data_str_m3_o1_o10_pcu_sym.89
_audit_creation_date              2020-01-03
_audit_creation_method            'Materials Studio'
_symmetry_space_group_name_H-M    'P1'
_symmetry_Int_Tables_number       1
_symmetry_cell_setting            triclinic
loop_
_symmetry_equiv_pos_as_xyz
  x,y,z
_cell_length_a                    25.5288
_cell_length_b                    32.4167
_cell_length_c                    29.9709
_cell_angle_alpha                 90.7453
_cell_angle_beta                  94.9914
_cell_angle_gamma                 93.3660
loop_
_atom_site_label
_atom_site_type_symbol
_atom_site_fract_x
_atom_site_fract_y
_atom_site_fract_z
_atom_site_U_iso_or_equiv
_atom_site_adp_type
_atom_site_occupancy
C1     C     0.16602   0.08671   0.16590   0.00000  Uiso   1.00
C2     C     0.17669   0.02367   0.20575   0.00000  Uiso   1.00
C3     C     0.16883   0.29093   0.16879   0.00000  Uiso   1.00
C4     C     0.16659   0.04245   0.16447   0.00000  Uiso   1.00
C5     C     0.20900   0.18419   0.02614   0.00000  Uiso   1.00
C6     C     0.12431   0.14920   0.30718   0.00000  Uiso   1.00
C7     C     0.20907   0.18217   0.31208   0.00000  Uiso   1.00
C8     C     0.12413   0.15143   0.02122   0.00000  Uiso   1.00
C9     C     0.16792   0.24662   0.16744   0.00000  Uiso   1.00
C10    C     0.06781   0.16230   0.15629   0.00000  Uiso   1.00
C11    C     0.26555   0.17097   0.17704   0.00000  Uiso   1.00
C12    C     0.01349   0.15326   0.15562   0.00000  Uiso   1.00
C13    C     0.31987   0.18003   0.17764   0.00000  Uiso   1.00
C14    C     0.15828   0.01850   0.12419   0.00000  Uiso   1.00
C15    C     0.17860   0.31491   0.20890   0.00000  Uiso   1.00
C16    C     0.15883   0.30971   0.12755   0.00000  Uiso   1.00
F17    F     0.25289   0.19442   0.29239   0.00000  Uiso   1.00
F18    F     0.08003   0.13974   0.04080   0.00000  Uiso   1.00
H19    H     0.15084   0.29116   0.09722   0.00000  Uiso   1.00
H20    H     0.18388   0.04216   0.23619   0.00000  Uiso   1.00
H21    H     0.02719   0.04222   0.14288   0.00000  Uiso   1.00
H22    H     0.30697   0.29130   0.19124   0.00000  Uiso   1.00
H23    H     0.06118   0.04245   0.06063   0.00000  Uiso   1.00
H24    H     0.11521   0.28700   0.28308   0.00000  Uiso   1.00
H25    H     0.24635   0.26632   0.08707   0.00000  Uiso   1.00
H26    H     0.05647   0.06854   0.23534   0.00000  Uiso   1.00
N27    N     0.16665   0.16666   0.28573   0.00000  Uiso   1.00
N28    N     0.16668   0.16668   0.04760   0.00000  Uiso   1.00
O29    O     0.16666   0.10558   0.20487   0.00000  Uiso   1.00
O30    O     0.29425   0.09762   0.09795   0.00000  Uiso   1.00
O31    O     0.04260   0.07102   0.14366   0.00000  Uiso   1.00
O32    O     0.03787   0.23563   0.23589   0.00000  Uiso   1.00
O33    O     0.04554   0.24780   0.15608   0.00000  Uiso   1.00
O34    O     0.29116   0.26264   0.18825   0.00000  Uiso   1.00
O35    O     0.19084   0.06557   0.05685   0.00000  Uiso   1.00
O36    O     0.13747   0.00279   0.03487   0.00000  Uiso   1.00
O37    O     0.09056   0.06374   0.06628   0.00000  Uiso   1.00
O38    O     0.24090   0.26952   0.26317   0.00000  Uiso   1.00
O39    O     0.20869   0.33045   0.29704   0.00000  Uiso   1.00
O40    O     0.16667   0.22775   0.12846   0.00000  Uiso   1.00
O41    O     0.14293   0.26719   0.28046   0.00000  Uiso   1.00
O42    O     0.29192   0.23984   0.02266   0.00000  Uiso   1.00
O43    O     0.30537   0.17927   0.06746   0.00000  Uiso   1.00
O44    O     0.25496   0.23887   0.09882   0.00000  Uiso   1.00
O45    O     0.04250   0.09302   0.31100   0.00000  Uiso   1.00
O46    O     0.02766   0.15339   0.26586   0.00000  Uiso   1.00
O47    O     0.07926   0.09428   0.23460   0.00000  Uiso   1.00
O48    O     0.16666   0.10559   0.12843   0.00000  Uiso   1.00
O49    O     0.16667   0.22774   0.20490   0.00000  Uiso   1.00
O50    O     0.09058   0.16666   0.19595   0.00000  Uiso   1.00
O51    O     0.24275   0.16667   0.13739   0.00000  Uiso   1.00
O52    O     0.09058   0.16667   0.11950   0.00000  Uiso   1.00
O53    O     0.24275   0.16666   0.21383   0.00000  Uiso   1.00
O54    O     0.28919   0.08521   0.17803   0.00000  Uiso   1.00
S55    S     0.32427   0.10079   0.14335   0.00000  Uiso   1.00
S56    S     0.00920   0.23250   0.18995   0.00000  Uiso   1.00
S57    S     0.14542   0.03757   0.06894   0.00000  Uiso   1.00
S58    S     0.19450   0.29571   0.26364   0.00000  Uiso   1.00
S59    S     0.26635   0.21059   0.05400   0.00000  Uiso   1.00
S60    S     0.06720   0.12244   0.27934   0.00000  Uiso   1.00
Zn61   Zn    0.16667   0.16666   0.21771   0.00000  Uiso   1.00
Zn62   Zn    0.16667   0.16667   0.11563   0.00000  Uiso   1.00
C63    C     0.49935   0.08671   0.16590   0.00000  Uiso   1.00
C64    C     0.51002   0.02367   0.20575   0.00000  Uiso   1.00
C65    C     0.50216   0.29093   0.16879   0.00000  Uiso   1.00
C66    C     0.49992   0.04245   0.16447   0.00000  Uiso   1.00
C67    C     0.54234   0.18419   0.02614   0.00000  Uiso   1.00
C68    C     0.45765   0.14920   0.30718   0.00000  Uiso   1.00
C69    C     0.54241   0.18217   0.31208   0.00000  Uiso   1.00
C70    C     0.45746   0.15143   0.02122   0.00000  Uiso   1.00
C71    C     0.50126   0.24662   0.16744   0.00000  Uiso   1.00
C72    C     0.40114   0.16230   0.15629   0.00000  Uiso   1.00
C73    C     0.59888   0.17097   0.17704   0.00000  Uiso   1.00
C74    C     0.34683   0.15326   0.15562   0.00000  Uiso   1.00
C75    C     0.65320   0.18003   0.17764   0.00000  Uiso   1.00
C76    C     0.49162   0.01850   0.12419   0.00000  Uiso   1.00
C77    C     0.51194   0.31491   0.20890   0.00000  Uiso   1.00
C78    C     0.49216   0.30971   0.12755   0.00000  Uiso   1.00
F79    F     0.58622   0.19442   0.29239   0.00000  Uiso   1.00
F80    F     0.41337   0.13974   0.04080   0.00000  Uiso   1.00
H81    H     0.48418   0.29116   0.09722   0.00000  Uiso   1.00
H82    H     0.51721   0.04216   0.23619   0.00000  Uiso   1.00
H83    H     0.36052   0.04222   0.14288   0.00000  Uiso   1.00
H84    H     0.64031   0.29130   0.19124   0.00000  Uiso   1.00
H85    H     0.39451   0.04245   0.06063   0.00000  Uiso   1.00
H86    H     0.44854   0.28700   0.28308   0.00000  Uiso   1.00
H87    H     0.57968   0.26632   0.08707   0.00000  Uiso   1.00
H88    H     0.38980   0.06854   0.23534   0.00000  Uiso   1.00
N89    N     0.49999   0.16666   0.28573   0.00000  Uiso   1.00
N90    N     0.50001   0.16668   0.04760   0.00000  Uiso   1.00
O91    O     0.50000   0.10558   0.20487   0.00000  Uiso   1.00
O92    O     0.62758   0.09762   0.09795   0.00000  Uiso   1.00
O93    O     0.37593   0.07102   0.14366   0.00000  Uiso   1.00
O94    O     0.37120   0.23563   0.23589   0.00000  Uiso   1.00
O95    O     0.37887   0.24780   0.15608   0.00000  Uiso   1.00
O96    O     0.62450   0.26264   0.18825   0.00000  Uiso   1.00
O97    O     0.52417   0.06557   0.05685   0.00000  Uiso   1.00
O98    O     0.47080   0.00279   0.03487   0.00000  Uiso   1.00
O99    O     0.42389   0.06374   0.06628   0.00000  Uiso   1.00
O100   O     0.57423   0.26952   0.26317   0.00000  Uiso   1.00
O101   O     0.54203   0.33045   0.29704   0.00000  Uiso   1.00
O102   O     0.50000   0.22775   0.12846   0.00000  Uiso   1.00
O103   O     0.47626   0.26719   0.28046   0.00000  Uiso   1.00
O104   O     0.62525   0.23984   0.02266   0.00000  Uiso   1.00
O105   O     0.63871   0.17927   0.06746   0.00000  Uiso   1.00
O106   O     0.58829   0.23887   0.09882   0.00000  Uiso   1.00
O107   O     0.37583   0.09302   0.31100   0.00000  Uiso   1.00
O108   O     0.36099   0.15339   0.26586   0.00000  Uiso   1.00
O109   O     0.41259   0.09428   0.23460   0.00000  Uiso   1.00
O110   O     0.50000   0.10559   0.12843   0.00000  Uiso   1.00
O111   O     0.50000   0.22774   0.20490   0.00000  Uiso   1.00
O112   O     0.42392   0.16666   0.19595   0.00000  Uiso   1.00
O113   O     0.57608   0.16667   0.13739   0.00000  Uiso   1.00
O114   O     0.42392   0.16667   0.11950   0.00000  Uiso   1.00
O115   O     0.57608   0.16666   0.21383   0.00000  Uiso   1.00
O116   O     0.62252   0.08521   0.17803   0.00000  Uiso   1.00
S117   S     0.65760   0.10079   0.14335   0.00000  Uiso   1.00
S118   S     0.34253   0.23250   0.18995   0.00000  Uiso   1.00
S119   S     0.47876   0.03757   0.06894   0.00000  Uiso   1.00
S120   S     0.52783   0.29571   0.26364   0.00000  Uiso   1.00
S121   S     0.59968   0.21059   0.05400   0.00000  Uiso   1.00
S122   S     0.40053   0.12244   0.27934   0.00000  Uiso   1.00
Zn123  Zn    0.50000   0.16666   0.21771   0.00000  Uiso   1.00
Zn124  Zn    0.50000   0.16667   0.11563   0.00000  Uiso   1.00
C125   C     0.83268   0.08671   0.16590   0.00000  Uiso   1.00
C126   C     0.84336   0.02367   0.20575   0.00000  Uiso   1.00
C127   C     0.83549   0.29093   0.16879   0.00000  Uiso   1.00
C128   C     0.83325   0.04245   0.16447   0.00000  Uiso   1.00
C129   C     0.87567   0.18419   0.02614   0.00000  Uiso   1.00
C130   C     0.79098   0.14920   0.30718   0.00000  Uiso   1.00
C131   C     0.87574   0.18217   0.31208   0.00000  Uiso   1.00
C132   C     0.79080   0.15143   0.02122   0.00000  Uiso   1.00
C133   C     0.83459   0.24662   0.16744   0.00000  Uiso   1.00
C134   C     0.73447   0.16230   0.15629   0.00000  Uiso   1.00
C135   C     0.93221   0.17097   0.17704   0.00000  Uiso   1.00
C136   C     0.68016   0.15326   0.15562   0.00000  Uiso   1.00
C137   C     0.98653   0.18003   0.17764   0.00000  Uiso   1.00
C138   C     0.82495   0.01850   0.12419   0.00000  Uiso   1.00
C139   C     0.84527   0.31491   0.20890   0.00000  Uiso   1.00
C140   C     0.82550   0.30971   0.12755   0.00000  Uiso   1.00
F141   F     0.91956   0.19442   0.29239   0.00000  Uiso   1.00
F142   F     0.74670   0.13974   0.04080   0.00000  Uiso   1.00
H143   H     0.81751   0.29116   0.09722   0.00000  Uiso   1.00
H144   H     0.85054   0.04216   0.23619   0.00000  Uiso   1.00
H145   H     0.69386   0.04222   0.14288   0.00000  Uiso   1.00
H146   H     0.97364   0.29130   0.19124   0.00000  Uiso   1.00
H147   H     0.72785   0.04245   0.06063   0.00000  Uiso   1.00
H148   H     0.78188   0.28700   0.28308   0.00000  Uiso   1.00
H149   H     0.91301   0.26632   0.08707   0.00000  Uiso   1.00
H150   H     0.72313   0.06854   0.23534   0.00000  Uiso   1.00
N151   N     0.83332   0.16666   0.28573   0.00000  Uiso   1.00
N152   N     0.83335   0.16668   0.04760   0.00000  Uiso   1.00
O153   O     0.83333   0.10558   0.20487   0.00000  Uiso   1.00
O154   O     0.96092   0.09762   0.09795   0.00000  Uiso   1.00
O155   O     0.70927   0.07102   0.14366   0.00000  Uiso   1.00
O156   O     0.70453   0.23563   0.23589   0.00000  Uiso   1.00
O157   O     0.71220   0.24780   0.15608   0.00000  Uiso   1.00
O158   O     0.95783   0.26264   0.18825   0.00000  Uiso   1.00
O159   O     0.85750   0.06557   0.05685   0.00000  Uiso   1.00
O160   O     0.80413   0.00279   0.03487   0.00000  Uiso   1.00
O161   O     0.75723   0.06374   0.06628   0.00000  Uiso   1.00
O162   O     0.90756   0.26952   0.26317   0.00000  Uiso   1.00
O163   O     0.87536   0.33045   0.29704   0.00000  Uiso   1.00
O164   O     0.83334   0.22775   0.12846   0.00000  Uiso   1.00
O165   O     0.80960   0.26719   0.28046   0.00000  Uiso   1.00
O166   O     0.95859   0.23984   0.02266   0.00000  Uiso   1.00
O167   O     0.97204   0.17927   0.06746   0.00000  Uiso   1.00
O168   O     0.92162   0.23887   0.09882   0.00000  Uiso   1.00
O169   O     0.70916   0.09302   0.31100   0.00000  Uiso   1.00
O170   O     0.69433   0.15339   0.26586   0.00000  Uiso   1.00
O171   O     0.74592   0.09428   0.23460   0.00000  Uiso   1.00
O172   O     0.83333   0.10559   0.12843   0.00000  Uiso   1.00
O173   O     0.83334   0.22774   0.20490   0.00000  Uiso   1.00
O174   O     0.75725   0.16666   0.19595   0.00000  Uiso   1.00
O175   O     0.90942   0.16667   0.13739   0.00000  Uiso   1.00
O176   O     0.75725   0.16667   0.11950   0.00000  Uiso   1.00
O177   O     0.90942   0.16666   0.21383   0.00000  Uiso   1.00
O178   O     0.95586   0.08521   0.17803   0.00000  Uiso   1.00
S179   S     0.99094   0.10079   0.14335   0.00000  Uiso   1.00
S180   S     0.67587   0.23250   0.18995   0.00000  Uiso   1.00
S181   S     0.81209   0.03757   0.06894   0.00000  Uiso   1.00
S182   S     0.86117   0.29571   0.26364   0.00000  Uiso   1.00
S183   S     0.93302   0.21059   0.05400   0.00000  Uiso   1.00
S184   S     0.73386   0.12244   0.27934   0.00000  Uiso   1.00
Zn185  Zn    0.83333   0.16666   0.21771   0.00000  Uiso   1.00
Zn186  Zn    0.83333   0.16667   0.11563   0.00000  Uiso   1.00
C187   C     0.16602   0.42005   0.16590   0.00000  Uiso   1.00
C188   C     0.17669   0.35700   0.20575   0.00000  Uiso   1.00
C189   C     0.16883   0.62427   0.16879   0.00000  Uiso   1.00
C190   C     0.16659   0.37578   0.16447   0.00000  Uiso   1.00
C191   C     0.20900   0.51752   0.02614   0.00000  Uiso   1.00
C192   C     0.12431   0.48253   0.30718   0.00000  Uiso   1.00
C193   C     0.20907   0.51550   0.31208   0.00000  Uiso   1.00
C194   C     0.12413   0.48476   0.02122   0.00000  Uiso   1.00
C195   C     0.16792   0.57995   0.16744   0.00000  Uiso   1.00
C196   C     0.06781   0.49563   0.15629   0.00000  Uiso   1.00
C197   C     0.26555   0.50430   0.17704   0.00000  Uiso   1.00
C198   C     0.01349   0.48660   0.15562   0.00000  Uiso   1.00
C199   C     0.31987   0.51337   0.17764   0.00000  Uiso   1.00
C200   C     0.15828   0.35183   0.12419   0.00000  Uiso   1.00
C201   C     0.17860   0.64824   0.20890   0.00000  Uiso   1.00
C202   C     0.15883   0.64305   0.12755   0.00000  Uiso   1.00
F203   F     0.25289   0.52775   0.29239   0.00000  Uiso   1.00
F204   F     0.08003   0.47307   0.04080   0.00000  Uiso   1.00
H205   H     0.15084   0.62450   0.09722   0.00000  Uiso   1.00
H206   H     0.18388   0.37549   0.23619   0.00000  Uiso   1.00
H207   H     0.02719   0.37556   0.14288   0.00000  Uiso   1.00
H208   H     0.30697   0.62463   0.19124   0.00000  Uiso   1.00
H209   H     0.06118   0.37579   0.06063   0.00000  Uiso   1.00
H210   H     0.11521   0.62033   0.28308   0.00000  Uiso   1.00
H211   H     0.24635   0.59966   0.08707   0.00000  Uiso   1.00
H212   H     0.05647   0.40187   0.23534   0.00000  Uiso   1.00
N213   N     0.16665   0.49999   0.28573   0.00000  Uiso   1.00
N214   N     0.16668   0.50001   0.04760   0.00000  Uiso   1.00
O215   O     0.16666   0.43892   0.20487   0.00000  Uiso   1.00
O216   O     0.29425   0.43096   0.09795   0.00000  Uiso   1.00
O217   O     0.04260   0.40435   0.14366   0.00000  Uiso   1.00
O218   O     0.03787   0.56897   0.23589   0.00000  Uiso   1.00
O219   O     0.04554   0.58113   0.15608   0.00000  Uiso   1.00
O220   O     0.29116   0.59597   0.18825   0.00000  Uiso   1.00
O221   O     0.19084   0.39890   0.05685   0.00000  Uiso   1.00
O222   O     0.13747   0.33613   0.03487   0.00000  Uiso   1.00
O223   O     0.09056   0.39707   0.06628   0.00000  Uiso   1.00
O224   O     0.24090   0.60285   0.26317   0.00000  Uiso   1.00
O225   O     0.20869   0.66378   0.29704   0.00000  Uiso   1.00
O226   O     0.16667   0.56108   0.12846   0.00000  Uiso   1.00
O227   O     0.14293   0.60053   0.28046   0.00000  Uiso   1.00
O228   O     0.29192   0.57317   0.02266   0.00000  Uiso   1.00
O229   O     0.30537   0.51260   0.06746   0.00000  Uiso   1.00
O230   O     0.25496   0.57220   0.09882   0.00000  Uiso   1.00
O231   O     0.04250   0.42636   0.31100   0.00000  Uiso   1.00
O232   O     0.02766   0.48672   0.26586   0.00000  Uiso   1.00
O233   O     0.07926   0.42762   0.23460   0.00000  Uiso   1.00
O234   O     0.16666   0.43893   0.12843   0.00000  Uiso   1.00
O235   O     0.16667   0.56107   0.20490   0.00000  Uiso   1.00
O236   O     0.09058   0.50000   0.19595   0.00000  Uiso   1.00
O237   O     0.24275   0.50000   0.13739   0.00000  Uiso   1.00
O238   O     0.09058   0.50000   0.11950   0.00000  Uiso   1.00
O239   O     0.24275   0.50000   0.21383   0.00000  Uiso   1.00
O240   O     0.28919   0.41855   0.17803   0.00000  Uiso   1.00
S241   S     0.32427   0.43412   0.14335   0.00000  Uiso   1.00
S242   S     0.00920   0.56583   0.18995   0.00000  Uiso   1.00
S243   S     0.14542   0.37090   0.06894   0.00000  Uiso   1.00
S244   S     0.19450   0.62904   0.26364   0.00000  Uiso   1.00
S245   S     0.26635   0.54392   0.05400   0.00000  Uiso   1.00
S246   S     0.06720   0.45578   0.27934   0.00000  Uiso   1.00
Zn247  Zn    0.16667   0.49999   0.21771   0.00000  Uiso   1.00
Zn248  Zn    0.16667   0.50001   0.11563   0.00000  Uiso   1.00
C249   C     0.49935   0.42005   0.16590   0.00000  Uiso   1.00
C250   C     0.51002   0.35700   0.20575   0.00000  Uiso   1.00
C251   C     0.50216   0.62427   0.16879   0.00000  Uiso   1.00
C252   C     0.49992   0.37578   0.16447   0.00000  Uiso   1.00
C253   C     0.54234   0.51752   0.02614   0.00000  Uiso   1.00
C254   C     0.45765   0.48253   0.30718   0.00000  Uiso   1.00
C255   C     0.54241   0.51550   0.31208   0.00000  Uiso   1.00
C256   C     0.45746   0.48476   0.02122   0.00000  Uiso   1.00
C257   C     0.50126   0.57995   0.16744   0.00000  Uiso   1.00
C258   C     0.40114   0.49563   0.15629   0.00000  Uiso   1.00
C259   C     0.59888   0.50430   0.17704   0.00000  Uiso   1.00
C260   C     0.34683   0.48660   0.15562   0.00000  Uiso   1.00
C261   C     0.65320   0.51337   0.17764   0.00000  Uiso   1.00
C262   C     0.49162   0.35183   0.12419   0.00000  Uiso   1.00
C263   C     0.51194   0.64824   0.20890   0.00000  Uiso   1.00
C264   C     0.49216   0.64305   0.12755   0.00000  Uiso   1.00
F265   F     0.58622   0.52775   0.29239   0.00000  Uiso   1.00
F266   F     0.41337   0.47307   0.04080   0.00000  Uiso   1.00
H267   H     0.48418   0.62450   0.09722   0.00000  Uiso   1.00
H268   H     0.51721   0.37549   0.23619   0.00000  Uiso   1.00
H269   H     0.36052   0.37556   0.14288   0.00000  Uiso   1.00
H270   H     0.64031   0.62463   0.19124   0.00000  Uiso   1.00
H271   H     0.39451   0.37579   0.06063   0.00000  Uiso   1.00
H272   H     0.44854   0.62033   0.28308   0.00000  Uiso   1.00
H273   H     0.57968   0.59966   0.08707   0.00000  Uiso   1.00
H274   H     0.38980   0.40187   0.23534   0.00000  Uiso   1.00
N275   N     0.49999   0.49999   0.28573   0.00000  Uiso   1.00
N276   N     0.50001   0.50001   0.04760   0.00000  Uiso   1.00
O277   O     0.50000   0.43892   0.20487   0.00000  Uiso   1.00
O278   O     0.62758   0.43096   0.09795   0.00000  Uiso   1.00
O279   O     0.37593   0.40435   0.14366   0.00000  Uiso   1.00
O280   O     0.37120   0.56897   0.23589   0.00000  Uiso   1.00
O281   O     0.37887   0.58113   0.15608   0.00000  Uiso   1.00
O282   O     0.62450   0.59597   0.18825   0.00000  Uiso   1.00
O283   O     0.52417   0.39890   0.05685   0.00000  Uiso   1.00
O284   O     0.47080   0.33613   0.03487   0.00000  Uiso   1.00
O285   O     0.42389   0.39707   0.06628   0.00000  Uiso   1.00
O286   O     0.57423   0.60285   0.26317   0.00000  Uiso   1.00
O287   O     0.54203   0.66378   0.29704   0.00000  Uiso   1.00
O288   O     0.50000   0.56108   0.12846   0.00000  Uiso   1.00
O289   O     0.47626   0.60053   0.28046   0.00000  Uiso   1.00
O290   O     0.62525   0.57317   0.02266   0.00000  Uiso   1.00
O291   O     0.63871   0.51260   0.06746   0.00000  Uiso   1.00
O292   O     0.58829   0.57220   0.09882   0.00000  Uiso   1.00
O293   O     0.37583   0.42636   0.31100   0.00000  Uiso   1.00
O294   O     0.36099   0.48672   0.26586   0.00000  Uiso   1.00
O295   O     0.41259   0.42762   0.23460   0.00000  Uiso   1.00
O296   O     0.50000   0.43893   0.12843   0.00000  Uiso   1.00
O297   O     0.50000   0.56107   0.20490   0.00000  Uiso   1.00
O298   O     0.42392   0.50000   0.19595   0.00000  Uiso   1.00
O299   O     0.57608   0.50000   0.13739   0.00000  Uiso   1.00
O300   O     0.42392   0.50000   0.11950   0.00000  Uiso   1.00
O301   O     0.57608   0.50000   0.21383   0.00000  Uiso   1.00
O302   O     0.62252   0.41855   0.17803   0.00000  Uiso   1.00
S303   S     0.65760   0.43412   0.14335   0.00000  Uiso   1.00
S304   S     0.34253   0.56583   0.18995   0.00000  Uiso   1.00
S305   S     0.47876   0.37090   0.06894   0.00000  Uiso   1.00
S306   S     0.52783   0.62904   0.26364   0.00000  Uiso   1.00
S307   S     0.59968   0.54392   0.05400   0.00000  Uiso   1.00
S308   S     0.40053   0.45578   0.27934   0.00000  Uiso   1.00
Zn309  Zn    0.50000   0.49999   0.21771   0.00000  Uiso   1.00
Zn310  Zn    0.50000   0.50001   0.11563   0.00000  Uiso   1.00
C311   C     0.83268   0.42005   0.16590   0.00000  Uiso   1.00
C312   C     0.84336   0.35700   0.20575   0.00000  Uiso   1.00
C313   C     0.83549   0.62427   0.16879   0.00000  Uiso   1.00
C314   C     0.83325   0.37578   0.16447   0.00000  Uiso   1.00
C315   C     0.87567   0.51752   0.02614   0.00000  Uiso   1.00
C316   C     0.79098   0.48253   0.30718   0.00000  Uiso   1.00
C317   C     0.87574   0.51550   0.31208   0.00000  Uiso   1.00
C318   C     0.79080   0.48476   0.02122   0.00000  Uiso   1.00
C319   C     0.83459   0.57995   0.16744   0.00000  Uiso   1.00
C320   C     0.73447   0.49563   0.15629   0.00000  Uiso   1.00
C321   C     0.93221   0.50430   0.17704   0.00000  Uiso   1.00
C322   C     0.68016   0.48660   0.15562   0.00000  Uiso   1.00
C323   C     0.98653   0.51337   0.17764   0.00000  Uiso   1.00
C324   C     0.82495   0.35183   0.12419   0.00000  Uiso   1.00
C325   C     0.84527   0.64824   0.20890   0.00000  Uiso   1.00
C326   C     0.82550   0.64305   0.12755   0.00000  Uiso   1.00
F327   F     0.91956   0.52775   0.29239   0.00000  Uiso   1.00
F328   F     0.74670   0.47307   0.04080   0.00000  Uiso   1.00
H329   H     0.81751   0.62450   0.09722   0.00000  Uiso   1.00
H330   H     0.85054   0.37549   0.23619   0.00000  Uiso   1.00
H331   H     0.69386   0.37556   0.14288   0.00000  Uiso   1.00
H332   H     0.97364   0.62463   0.19124   0.00000  Uiso   1.00
H333   H     0.72785   0.37579   0.06063   0.00000  Uiso   1.00
H334   H     0.78188   0.62033   0.28308   0.00000  Uiso   1.00
H335   H     0.91301   0.59966   0.08707   0.00000  Uiso   1.00
H336   H     0.72313   0.40187   0.23534   0.00000  Uiso   1.00
N337   N     0.83332   0.49999   0.28573   0.00000  Uiso   1.00
N338   N     0.83335   0.50001   0.04760   0.00000  Uiso   1.00
O339   O     0.83333   0.43892   0.20487   0.00000  Uiso   1.00
O340   O     0.96092   0.43096   0.09795   0.00000  Uiso   1.00
O341   O     0.70927   0.40435   0.14366   0.00000  Uiso   1.00
O342   O     0.70453   0.56897   0.23589   0.00000  Uiso   1.00
O343   O     0.71220   0.58113   0.15608   0.00000  Uiso   1.00
O344   O     0.95783   0.59597   0.18825   0.00000  Uiso   1.00
O345   O     0.85750   0.39890   0.05685   0.00000  Uiso   1.00
O346   O     0.80413   0.33613   0.03487   0.00000  Uiso   1.00
O347   O     0.75723   0.39707   0.06628   0.00000  Uiso   1.00
O348   O     0.90756   0.60285   0.26317   0.00000  Uiso   1.00
O349   O     0.87536   0.66378   0.29704   0.00000  Uiso   1.00
O350   O     0.83334   0.56108   0.12846   0.00000  Uiso   1.00
O351   O     0.80960   0.60053   0.28046   0.00000  Uiso   1.00
O352   O     0.95859   0.57317   0.02266   0.00000  Uiso   1.00
O353   O     0.97204   0.51260   0.06746   0.00000  Uiso   1.00
O354   O     0.92162   0.57220   0.09882   0.00000  Uiso   1.00
O355   O     0.70916   0.42636   0.31100   0.00000  Uiso   1.00
O356   O     0.69433   0.48672   0.26586   0.00000  Uiso   1.00
O357   O     0.74592   0.42762   0.23460   0.00000  Uiso   1.00
O358   O     0.83333   0.43893   0.12843   0.00000  Uiso   1.00
O359   O     0.83334   0.56107   0.20490   0.00000  Uiso   1.00
O360   O     0.75725   0.50000   0.19595   0.00000  Uiso   1.00
O361   O     0.90942   0.50000   0.13739   0.00000  Uiso   1.00
O362   O     0.75725   0.50000   0.11950   0.00000  Uiso   1.00
O363   O     0.90942   0.50000   0.21383   0.00000  Uiso   1.00
O364   O     0.95586   0.41855   0.17803   0.00000  Uiso   1.00
S365   S     0.99094   0.43412   0.14335   0.00000  Uiso   1.00
S366   S     0.67587   0.56583   0.18995   0.00000  Uiso   1.00
S367   S     0.81209   0.37090   0.06894   0.00000  Uiso   1.00
S368   S     0.86117   0.62904   0.26364   0.00000  Uiso   1.00
S369   S     0.93302   0.54392   0.05400   0.00000  Uiso   1.00
S370   S     0.73386   0.45578   0.27934   0.00000  Uiso   1.00
Zn371  Zn    0.83333   0.49999   0.21771   0.00000  Uiso   1.00
Zn372  Zn    0.83333   0.50001   0.11563   0.00000  Uiso   1.00
C373   C     0.16602   0.75338   0.16590   0.00000  Uiso   1.00
C374   C     0.17669   0.69033   0.20575   0.00000  Uiso   1.00
C375   C     0.16883   0.95760   0.16879   0.00000  Uiso   1.00
C376   C     0.16659   0.70912   0.16447   0.00000  Uiso   1.00
C377   C     0.20900   0.85086   0.02614   0.00000  Uiso   1.00
C378   C     0.12431   0.81586   0.30718   0.00000  Uiso   1.00
C379   C     0.20907   0.84884   0.31208   0.00000  Uiso   1.00
C380   C     0.12413   0.81809   0.02122   0.00000  Uiso   1.00
C381   C     0.16792   0.91328   0.16744   0.00000  Uiso   1.00
C382   C     0.06781   0.82897   0.15629   0.00000  Uiso   1.00
C383   C     0.26555   0.83763   0.17704   0.00000  Uiso   1.00
C384   C     0.01349   0.81993   0.15562   0.00000  Uiso   1.00
C385   C     0.31987   0.84670   0.17764   0.00000  Uiso   1.00
C386   C     0.15828   0.68517   0.12419   0.00000  Uiso   1.00
C387   C     0.17860   0.98158   0.20890   0.00000  Uiso   1.00
C388   C     0.15883   0.97638   0.12755   0.00000  Uiso   1.00
F389   F     0.25289   0.86109   0.29239   0.00000  Uiso   1.00
F390   F     0.08003   0.80641   0.04080   0.00000  Uiso   1.00
H391   H     0.15084   0.95783   0.09722   0.00000  Uiso   1.00
H392   H     0.18388   0.70883   0.23619   0.00000  Uiso   1.00
H393   H     0.02719   0.70889   0.14288   0.00000  Uiso   1.00
H394   H     0.30697   0.95796   0.19124   0.00000  Uiso   1.00
H395   H     0.06118   0.70912   0.06063   0.00000  Uiso   1.00
H396   H     0.11521   0.95367   0.28308   0.00000  Uiso   1.00
H397   H     0.24635   0.93299   0.08707   0.00000  Uiso   1.00
H398   H     0.05647   0.73521   0.23534   0.00000  Uiso   1.00
N399   N     0.16665   0.83332   0.28573   0.00000  Uiso   1.00
N400   N     0.16668   0.83334   0.04760   0.00000  Uiso   1.00
O401   O     0.16666   0.77225   0.20487   0.00000  Uiso   1.00
O402   O     0.29425   0.76429   0.09795   0.00000  Uiso   1.00
O403   O     0.04260   0.73769   0.14366   0.00000  Uiso   1.00
O404   O     0.03787   0.90230   0.23589   0.00000  Uiso   1.00
O405   O     0.04554   0.91446   0.15608   0.00000  Uiso   1.00
O406   O     0.29116   0.92931   0.18825   0.00000  Uiso   1.00
O407   O     0.19084   0.73224   0.05685   0.00000  Uiso   1.00
O408   O     0.13747   0.66946   0.03487   0.00000  Uiso   1.00
O409   O     0.09056   0.73040   0.06628   0.00000  Uiso   1.00
O410   O     0.24090   0.93618   0.26317   0.00000  Uiso   1.00
O411   O     0.20869   0.99712   0.29704   0.00000  Uiso   1.00
O412   O     0.16667   0.89442   0.12846   0.00000  Uiso   1.00
O413   O     0.14293   0.93386   0.28046   0.00000  Uiso   1.00
O414   O     0.29192   0.90650   0.02266   0.00000  Uiso   1.00
O415   O     0.30537   0.84594   0.06746   0.00000  Uiso   1.00
O416   O     0.25496   0.90553   0.09882   0.00000  Uiso   1.00
O417   O     0.04250   0.75969   0.31100   0.00000  Uiso   1.00
O418   O     0.02766   0.82005   0.26586   0.00000  Uiso   1.00
O419   O     0.07926   0.76095   0.23460   0.00000  Uiso   1.00
O420   O     0.16666   0.77226   0.12843   0.00000  Uiso   1.00
O421   O     0.16667   0.89441   0.20490   0.00000  Uiso   1.00
O422   O     0.09058   0.83333   0.19595   0.00000  Uiso   1.00
O423   O     0.24275   0.83334   0.13739   0.00000  Uiso   1.00
O424   O     0.09058   0.83334   0.11950   0.00000  Uiso   1.00
O425   O     0.24275   0.83333   0.21383   0.00000  Uiso   1.00
O426   O     0.28919   0.75188   0.17803   0.00000  Uiso   1.00
S427   S     0.32427   0.76746   0.14335   0.00000  Uiso   1.00
S428   S     0.00920   0.89917   0.18995   0.00000  Uiso   1.00
S429   S     0.14542   0.70423   0.06894   0.00000  Uiso   1.00
S430   S     0.19450   0.96237   0.26364   0.00000  Uiso   1.00
S431   S     0.26635   0.87726   0.05400   0.00000  Uiso   1.00
S432   S     0.06720   0.78911   0.27934   0.00000  Uiso   1.00
Zn433  Zn    0.16667   0.83333   0.21771   0.00000  Uiso   1.00
Zn434  Zn    0.16667   0.83334   0.11563   0.00000  Uiso   1.00
C435   C     0.49935   0.75338   0.16590   0.00000  Uiso   1.00
C436   C     0.51002   0.69033   0.20575   0.00000  Uiso   1.00
C437   C     0.50216   0.95760   0.16879   0.00000  Uiso   1.00
C438   C     0.49992   0.70912   0.16447   0.00000  Uiso   1.00
C439   C     0.54234   0.85086   0.02614   0.00000  Uiso   1.00
C440   C     0.45765   0.81586   0.30718   0.00000  Uiso   1.00
C441   C     0.54241   0.84884   0.31208   0.00000  Uiso   1.00
C442   C     0.45746   0.81809   0.02122   0.00000  Uiso   1.00
C443   C     0.50126   0.91328   0.16744   0.00000  Uiso   1.00
C444   C     0.40114   0.82897   0.15629   0.00000  Uiso   1.00
C445   C     0.59888   0.83763   0.17704   0.00000  Uiso   1.00
C446   C     0.34683   0.81993   0.15562   0.00000  Uiso   1.00
C447   C     0.65320   0.84670   0.17764   0.00000  Uiso   1.00
C448   C     0.49162   0.68517   0.12419   0.00000  Uiso   1.00
C449   C     0.51194   0.98158   0.20890   0.00000  Uiso   1.00
C450   C     0.49216   0.97638   0.12755   0.00000  Uiso   1.00
F451   F     0.58622   0.86109   0.29239   0.00000  Uiso   1.00
F452   F     0.41337   0.80641   0.04080   0.00000  Uiso   1.00
H453   H     0.48418   0.95783   0.09722   0.00000  Uiso   1.00
H454   H     0.51721   0.70883   0.23619   0.00000  Uiso   1.00
H455   H     0.36052   0.70889   0.14288   0.00000  Uiso   1.00
H456   H     0.64031   0.95796   0.19124   0.00000  Uiso   1.00
H457   H     0.39451   0.70912   0.06063   0.00000  Uiso   1.00
H458   H     0.44854   0.95367   0.28308   0.00000  Uiso   1.00
H459   H     0.57968   0.93299   0.08707   0.00000  Uiso   1.00
H460   H     0.38980   0.73521   0.23534   0.00000  Uiso   1.00
N461   N     0.49999   0.83332   0.28573   0.00000  Uiso   1.00
N462   N     0.50001   0.83334   0.04760   0.00000  Uiso   1.00
O463   O     0.50000   0.77225   0.20487   0.00000  Uiso   1.00
O464   O     0.62758   0.76429   0.09795   0.00000  Uiso   1.00
O465   O     0.37593   0.73769   0.14366   0.00000  Uiso   1.00
O466   O     0.37120   0.90230   0.23589   0.00000  Uiso   1.00
O467   O     0.37887   0.91446   0.15608   0.00000  Uiso   1.00
O468   O     0.62450   0.92931   0.18825   0.00000  Uiso   1.00
O469   O     0.52417   0.73224   0.05685   0.00000  Uiso   1.00
O470   O     0.47080   0.66946   0.03487   0.00000  Uiso   1.00
O471   O     0.42389   0.73040   0.06628   0.00000  Uiso   1.00
O472   O     0.57423   0.93618   0.26317   0.00000  Uiso   1.00
O473   O     0.54203   0.99712   0.29704   0.00000  Uiso   1.00
O474   O     0.50000   0.89442   0.12846   0.00000  Uiso   1.00
O475   O     0.47626   0.93386   0.28046   0.00000  Uiso   1.00
O476   O     0.62525   0.90650   0.02266   0.00000  Uiso   1.00
O477   O     0.63871   0.84594   0.06746   0.00000  Uiso   1.00
O478   O     0.58829   0.90553   0.09882   0.00000  Uiso   1.00
O479   O     0.37583   0.75969   0.31100   0.00000  Uiso   1.00
O480   O     0.36099   0.82005   0.26586   0.00000  Uiso   1.00
O481   O     0.41259   0.76095   0.23460   0.00000  Uiso   1.00
O482   O     0.50000   0.77226   0.12843   0.00000  Uiso   1.00
O483   O     0.50000   0.89441   0.20490   0.00000  Uiso   1.00
O484   O     0.42392   0.83333   0.19595   0.00000  Uiso   1.00
O485   O     0.57608   0.83334   0.13739   0.00000  Uiso   1.00
O486   O     0.42392   0.83334   0.11950   0.00000  Uiso   1.00
O487   O     0.57608   0.83333   0.21383   0.00000  Uiso   1.00
O488   O     0.62252   0.75188   0.17803   0.00000  Uiso   1.00
S489   S     0.65760   0.76746   0.14335   0.00000  Uiso   1.00
S490   S     0.34253   0.89917   0.18995   0.00000  Uiso   1.00
S491   S     0.47876   0.70423   0.06894   0.00000  Uiso   1.00
S492   S     0.52783   0.96237   0.26364   0.00000  Uiso   1.00
S493   S     0.59968   0.87726   0.05400   0.00000  Uiso   1.00
S494   S     0.40053   0.78911   0.27934   0.00000  Uiso   1.00
Zn495  Zn    0.50000   0.83333   0.21771   0.00000  Uiso   1.00
Zn496  Zn    0.50000   0.83334   0.11563   0.00000  Uiso   1.00
C497   C     0.83268   0.75338   0.16590   0.00000  Uiso   1.00
C498   C     0.84336   0.69033   0.20575   0.00000  Uiso   1.00
C499   C     0.83549   0.95760   0.16879   0.00000  Uiso   1.00
C500   C     0.83325   0.70912   0.16447   0.00000  Uiso   1.00
C501   C     0.87567   0.85086   0.02614   0.00000  Uiso   1.00
C502   C     0.79098   0.81586   0.30718   0.00000  Uiso   1.00
C503   C     0.87574   0.84884   0.31208   0.00000  Uiso   1.00
C504   C     0.79080   0.81809   0.02122   0.00000  Uiso   1.00
C505   C     0.83459   0.91328   0.16744   0.00000  Uiso   1.00
C506   C     0.73447   0.82897   0.15629   0.00000  Uiso   1.00
C507   C     0.93221   0.83763   0.17704   0.00000  Uiso   1.00
C508   C     0.68016   0.81993   0.15562   0.00000  Uiso   1.00
C509   C     0.98653   0.84670   0.17764   0.00000  Uiso   1.00
C510   C     0.82495   0.68517   0.12419   0.00000  Uiso   1.00
C511   C     0.84527   0.98158   0.20890   0.00000  Uiso   1.00
C512   C     0.82550   0.97638   0.12755   0.00000  Uiso   1.00
F513   F     0.91956   0.86109   0.29239   0.00000  Uiso   1.00
F514   F     0.74670   0.80641   0.04080   0.00000  Uiso   1.00
H515   H     0.81751   0.95783   0.09722   0.00000  Uiso   1.00
H516   H     0.85054   0.70883   0.23619   0.00000  Uiso   1.00
H517   H     0.69386   0.70889   0.14288   0.00000  Uiso   1.00
H518   H     0.97364   0.95796   0.19124   0.00000  Uiso   1.00
H519   H     0.72785   0.70912   0.06063   0.00000  Uiso   1.00
H520   H     0.78188   0.95367   0.28308   0.00000  Uiso   1.00
H521   H     0.91301   0.93299   0.08707   0.00000  Uiso   1.00
H522   H     0.72313   0.73521   0.23534   0.00000  Uiso   1.00
N523   N     0.83332   0.83332   0.28573   0.00000  Uiso   1.00
N524   N     0.83335   0.83334   0.04760   0.00000  Uiso   1.00
O525   O     0.83333   0.77225   0.20487   0.00000  Uiso   1.00
O526   O     0.96092   0.76429   0.09795   0.00000  Uiso   1.00
O527   O     0.70927   0.73769   0.14366   0.00000  Uiso   1.00
O528   O     0.70453   0.90230   0.23589   0.00000  Uiso   1.00
O529   O     0.71220   0.91446   0.15608   0.00000  Uiso   1.00
O530   O     0.95783   0.92931   0.18825   0.00000  Uiso   1.00
O531   O     0.85750   0.73224   0.05685   0.00000  Uiso   1.00
O532   O     0.80413   0.66946   0.03487   0.00000  Uiso   1.00
O533   O     0.75723   0.73040   0.06628   0.00000  Uiso   1.00
O534   O     0.90756   0.93618   0.26317   0.00000  Uiso   1.00
O535   O     0.87536   0.99712   0.29704   0.00000  Uiso   1.00
O536   O     0.83334   0.89442   0.12846   0.00000  Uiso   1.00
O537   O     0.80960   0.93386   0.28046   0.00000  Uiso   1.00
O538   O     0.95859   0.90650   0.02266   0.00000  Uiso   1.00
O539   O     0.97204   0.84594   0.06746   0.00000  Uiso   1.00
O540   O     0.92162   0.90553   0.09882   0.00000  Uiso   1.00
O541   O     0.70916   0.75969   0.31100   0.00000  Uiso   1.00
O542   O     0.69433   0.82005   0.26586   0.00000  Uiso   1.00
O543   O     0.74592   0.76095   0.23460   0.00000  Uiso   1.00
O544   O     0.83333   0.77226   0.12843   0.00000  Uiso   1.00
O545   O     0.83334   0.89441   0.20490   0.00000  Uiso   1.00
O546   O     0.75725   0.83333   0.19595   0.00000  Uiso   1.00
O547   O     0.90942   0.83334   0.13739   0.00000  Uiso   1.00
O548   O     0.75725   0.83334   0.11950   0.00000  Uiso   1.00
O549   O     0.90942   0.83333   0.21383   0.00000  Uiso   1.00
O550   O     0.95586   0.75188   0.17803   0.00000  Uiso   1.00
S551   S     0.99094   0.76746   0.14335   0.00000  Uiso   1.00
S552   S     0.67587   0.89917   0.18995   0.00000  Uiso   1.00
S553   S     0.81209   0.70423   0.06894   0.00000  Uiso   1.00
S554   S     0.86117   0.96237   0.26364   0.00000  Uiso   1.00
S555   S     0.93302   0.87726   0.05400   0.00000  Uiso   1.00
S556   S     0.73386   0.78911   0.27934   0.00000  Uiso   1.00
Zn557  Zn    0.83333   0.83333   0.21771   0.00000  Uiso   1.00
Zn558  Zn    0.83333   0.83334   0.11563   0.00000  Uiso   1.00
C559   C     0.16602   0.08671   0.49924   0.00000  Uiso   1.00
C560   C     0.17669   0.02367   0.53908   0.00000  Uiso   1.00
C561   C     0.16883   0.29093   0.50213   0.00000  Uiso   1.00
C562   C     0.16659   0.04245   0.49781   0.00000  Uiso   1.00
C563   C     0.20900   0.18419   0.35947   0.00000  Uiso   1.00
C564   C     0.12431   0.14920   0.64052   0.00000  Uiso   1.00
C565   C     0.20907   0.18217   0.64541   0.00000  Uiso   1.00
C566   C     0.12413   0.15143   0.35455   0.00000  Uiso   1.00
C567   C     0.16792   0.24662   0.50078   0.00000  Uiso   1.00
C568   C     0.06781   0.16230   0.48962   0.00000  Uiso   1.00
C569   C     0.26555   0.17097   0.51037   0.00000  Uiso   1.00
C570   C     0.01349   0.15326   0.48896   0.00000  Uiso   1.00
C571   C     0.31987   0.18003   0.51097   0.00000  Uiso   1.00
C572   C     0.15828   0.01850   0.45752   0.00000  Uiso   1.00
C573   C     0.17860   0.31491   0.54224   0.00000  Uiso   1.00
C574   C     0.15883   0.30971   0.46088   0.00000  Uiso   1.00
F575   F     0.25289   0.19442   0.62572   0.00000  Uiso   1.00
F576   F     0.08003   0.13974   0.37413   0.00000  Uiso   1.00
H577   H     0.15084   0.29116   0.43055   0.00000  Uiso   1.00
H578   H     0.18388   0.04216   0.56953   0.00000  Uiso   1.00
H579   H     0.02719   0.04222   0.47621   0.00000  Uiso   1.00
H580   H     0.30697   0.29130   0.52457   0.00000  Uiso   1.00
H581   H     0.06118   0.04245   0.39397   0.00000  Uiso   1.00
H582   H     0.11521   0.28700   0.61641   0.00000  Uiso   1.00
H583   H     0.24635   0.26632   0.42040   0.00000  Uiso   1.00
H584   H     0.05647   0.06854   0.56867   0.00000  Uiso   1.00
N585   N     0.16665   0.16666   0.61907   0.00000  Uiso   1.00
N586   N     0.16668   0.16668   0.38093   0.00000  Uiso   1.00
O587   O     0.16666   0.10558   0.53821   0.00000  Uiso   1.00
O588   O     0.29425   0.09762   0.43129   0.00000  Uiso   1.00
O589   O     0.04260   0.07102   0.47699   0.00000  Uiso   1.00
O590   O     0.03787   0.23563   0.56923   0.00000  Uiso   1.00
O591   O     0.04554   0.24780   0.48941   0.00000  Uiso   1.00
O592   O     0.29116   0.26264   0.52158   0.00000  Uiso   1.00
O593   O     0.19084   0.06557   0.39018   0.00000  Uiso   1.00
O594   O     0.13747   0.00279   0.36820   0.00000  Uiso   1.00
O595   O     0.09056   0.06374   0.39962   0.00000  Uiso   1.00
O596   O     0.24090   0.26952   0.59651   0.00000  Uiso   1.00
O597   O     0.20869   0.33045   0.63037   0.00000  Uiso   1.00
O598   O     0.16667   0.22775   0.46179   0.00000  Uiso   1.00
O599   O     0.14293   0.26719   0.61379   0.00000  Uiso   1.00
O600   O     0.29192   0.23984   0.35600   0.00000  Uiso   1.00
O601   O     0.30537   0.17927   0.40080   0.00000  Uiso   1.00
O602   O     0.25496   0.23887   0.43215   0.00000  Uiso   1.00
O603   O     0.04250   0.09302   0.64433   0.00000  Uiso   1.00
O604   O     0.02766   0.15339   0.59920   0.00000  Uiso   1.00
O605   O     0.07926   0.09428   0.56793   0.00000  Uiso   1.00
O606   O     0.16666   0.10559   0.46176   0.00000  Uiso   1.00
O607   O     0.16667   0.22774   0.53824   0.00000  Uiso   1.00
O608   O     0.09058   0.16666   0.52928   0.00000  Uiso   1.00
O609   O     0.24275   0.16667   0.47072   0.00000  Uiso   1.00
O610   O     0.09058   0.16667   0.45284   0.00000  Uiso   1.00
O611   O     0.24275   0.16666   0.54716   0.00000  Uiso   1.00
O612   O     0.28919   0.08521   0.51136   0.00000  Uiso   1.00
S613   S     0.32427   0.10079   0.47668   0.00000  Uiso   1.00
S614   S     0.00920   0.23250   0.52328   0.00000  Uiso   1.00
S615   S     0.14542   0.03757   0.40228   0.00000  Uiso   1.00
S616   S     0.19450   0.29571   0.59698   0.00000  Uiso   1.00
S617   S     0.26635   0.21059   0.38733   0.00000  Uiso   1.00
S618   S     0.06720   0.12244   0.61268   0.00000  Uiso   1.00
Zn619  Zn    0.16667   0.16666   0.55104   0.00000  Uiso   1.00
Zn620  Zn    0.16667   0.16667   0.44896   0.00000  Uiso   1.00
C621   C     0.49935   0.08671   0.49924   0.00000  Uiso   1.00
C622   C     0.51002   0.02367   0.53908   0.00000  Uiso   1.00
C623   C     0.50216   0.29093   0.50213   0.00000  Uiso   1.00
C624   C     0.49992   0.04245   0.49781   0.00000  Uiso   1.00
C625   C     0.54234   0.18419   0.35947   0.00000  Uiso   1.00
C626   C     0.45765   0.14920   0.64052   0.00000  Uiso   1.00
C627   C     0.54241   0.18217   0.64541   0.00000  Uiso   1.00
C628   C     0.45746   0.15143   0.35455   0.00000  Uiso   1.00
C629   C     0.50126   0.24662   0.50078   0.00000  Uiso   1.00
C630   C     0.40114   0.16230   0.48962   0.00000  Uiso   1.00
C631   C     0.59888   0.17097   0.51037   0.00000  Uiso   1.00
C632   C     0.34683   0.15326   0.48896   0.00000  Uiso   1.00
C633   C     0.65320   0.18003   0.51097   0.00000  Uiso   1.00
C634   C     0.49162   0.01850   0.45752   0.00000  Uiso   1.00
C635   C     0.51194   0.31491   0.54224   0.00000  Uiso   1.00
C636   C     0.49216   0.30971   0.46088   0.00000  Uiso   1.00
F637   F     0.58622   0.19442   0.62572   0.00000  Uiso   1.00
F638   F     0.41337   0.13974   0.37413   0.00000  Uiso   1.00
H639   H     0.48418   0.29116   0.43055   0.00000  Uiso   1.00
H640   H     0.51721   0.04216   0.56953   0.00000  Uiso   1.00
H641   H     0.36052   0.04222   0.47621   0.00000  Uiso   1.00
H642   H     0.64031   0.29130   0.52457   0.00000  Uiso   1.00
H643   H     0.39451   0.04245   0.39397   0.00000  Uiso   1.00
H644   H     0.44854   0.28700   0.61641   0.00000  Uiso   1.00
H645   H     0.57968   0.26632   0.42040   0.00000  Uiso   1.00
H646   H     0.38980   0.06854   0.56867   0.00000  Uiso   1.00
N647   N     0.49999   0.16666   0.61907   0.00000  Uiso   1.00
N648   N     0.50001   0.16668   0.38093   0.00000  Uiso   1.00
O649   O     0.50000   0.10558   0.53821   0.00000  Uiso   1.00
O650   O     0.62758   0.09762   0.43129   0.00000  Uiso   1.00
O651   O     0.37593   0.07102   0.47699   0.00000  Uiso   1.00
O652   O     0.37120   0.23563   0.56923   0.00000  Uiso   1.00
O653   O     0.37887   0.24780   0.48941   0.00000  Uiso   1.00
O654   O     0.62450   0.26264   0.52158   0.00000  Uiso   1.00
O655   O     0.52417   0.06557   0.39018   0.00000  Uiso   1.00
O656   O     0.47080   0.00279   0.36820   0.00000  Uiso   1.00
O657   O     0.42389   0.06374   0.39962   0.00000  Uiso   1.00
O658   O     0.57423   0.26952   0.59651   0.00000  Uiso   1.00
O659   O     0.54203   0.33045   0.63037   0.00000  Uiso   1.00
O660   O     0.50000   0.22775   0.46179   0.00000  Uiso   1.00
O661   O     0.47626   0.26719   0.61379   0.00000  Uiso   1.00
O662   O     0.62525   0.23984   0.35600   0.00000  Uiso   1.00
O663   O     0.63871   0.17927   0.40080   0.00000  Uiso   1.00
O664   O     0.58829   0.23887   0.43215   0.00000  Uiso   1.00
O665   O     0.37583   0.09302   0.64433   0.00000  Uiso   1.00
O666   O     0.36099   0.15339   0.59920   0.00000  Uiso   1.00
O667   O     0.41259   0.09428   0.56793   0.00000  Uiso   1.00
O668   O     0.50000   0.10559   0.46176   0.00000  Uiso   1.00
O669   O     0.50000   0.22774   0.53824   0.00000  Uiso   1.00
O670   O     0.42392   0.16666   0.52928   0.00000  Uiso   1.00
O671   O     0.57608   0.16667   0.47072   0.00000  Uiso   1.00
O672   O     0.42392   0.16667   0.45284   0.00000  Uiso   1.00
O673   O     0.57608   0.16666   0.54716   0.00000  Uiso   1.00
O674   O     0.62252   0.08521   0.51136   0.00000  Uiso   1.00
S675   S     0.65760   0.10079   0.47668   0.00000  Uiso   1.00
S676   S     0.34253   0.23250   0.52328   0.00000  Uiso   1.00
S677   S     0.47876   0.03757   0.40228   0.00000  Uiso   1.00
S678   S     0.52783   0.29571   0.59698   0.00000  Uiso   1.00
S679   S     0.59968   0.21059   0.38733   0.00000  Uiso   1.00
S680   S     0.40053   0.12244   0.61268   0.00000  Uiso   1.00
Zn681  Zn    0.50000   0.16666   0.55104   0.00000  Uiso   1.00
Zn682  Zn    0.50000   0.16667   0.44896   0.00000  Uiso   1.00
C683   C     0.83268   0.08671   0.49924   0.00000  Uiso   1.00
C684   C     0.84336   0.02367   0.53908   0.00000  Uiso   1.00
C685   C     0.83549   0.29093   0.50213   0.00000  Uiso   1.00
C686   C     0.83325   0.04245   0.49781   0.00000  Uiso   1.00
C687   C     0.87567   0.18419   0.35947   0.00000  Uiso   1.00
C688   C     0.79098   0.14920   0.64052   0.00000  Uiso   1.00
C689   C     0.87574   0.18217   0.64541   0.00000  Uiso   1.00
C690   C     0.79080   0.15143   0.35455   0.00000  Uiso   1.00
C691   C     0.83459   0.24662   0.50078   0.00000  Uiso   1.00
C692   C     0.73447   0.16230   0.48962   0.00000  Uiso   1.00
C693   C     0.93221   0.17097   0.51037   0.00000  Uiso   1.00
C694   C     0.68016   0.15326   0.48896   0.00000  Uiso   1.00
C695   C     0.98653   0.18003   0.51097   0.00000  Uiso   1.00
C696   C     0.82495   0.01850   0.45752   0.00000  Uiso   1.00
C697   C     0.84527   0.31491   0.54224   0.00000  Uiso   1.00
C698   C     0.82550   0.30971   0.46088   0.00000  Uiso   1.00
F699   F     0.91956   0.19442   0.62572   0.00000  Uiso   1.00
F700   F     0.74670   0.13974   0.37413   0.00000  Uiso   1.00
H701   H     0.81751   0.29116   0.43055   0.00000  Uiso   1.00
H702   H     0.85054   0.04216   0.56953   0.00000  Uiso   1.00
H703   H     0.69386   0.04222   0.47621   0.00000  Uiso   1.00
H704   H     0.97364   0.29130   0.52457   0.00000  Uiso   1.00
H705   H     0.72785   0.04245   0.39397   0.00000  Uiso   1.00
H706   H     0.78188   0.28700   0.61641   0.00000  Uiso   1.00
H707   H     0.91301   0.26632   0.42040   0.00000  Uiso   1.00
H708   H     0.72313   0.06854   0.56867   0.00000  Uiso   1.00
N709   N     0.83332   0.16666   0.61907   0.00000  Uiso   1.00
N710   N     0.83335   0.16668   0.38093   0.00000  Uiso   1.00
O711   O     0.83333   0.10558   0.53821   0.00000  Uiso   1.00
O712   O     0.96092   0.09762   0.43129   0.00000  Uiso   1.00
O713   O     0.70927   0.07102   0.47699   0.00000  Uiso   1.00
O714   O     0.70453   0.23563   0.56923   0.00000  Uiso   1.00
O715   O     0.71220   0.24780   0.48941   0.00000  Uiso   1.00
O716   O     0.95783   0.26264   0.52158   0.00000  Uiso   1.00
O717   O     0.85750   0.06557   0.39018   0.00000  Uiso   1.00
O718   O     0.80413   0.00279   0.36820   0.00000  Uiso   1.00
O719   O     0.75723   0.06374   0.39962   0.00000  Uiso   1.00
O720   O     0.90756   0.26952   0.59651   0.00000  Uiso   1.00
O721   O     0.87536   0.33045   0.63037   0.00000  Uiso   1.00
O722   O     0.83334   0.22775   0.46179   0.00000  Uiso   1.00
O723   O     0.80960   0.26719   0.61379   0.00000  Uiso   1.00
O724   O     0.95859   0.23984   0.35600   0.00000  Uiso   1.00
O725   O     0.97204   0.17927   0.40080   0.00000  Uiso   1.00
O726   O     0.92162   0.23887   0.43215   0.00000  Uiso   1.00
O727   O     0.70916   0.09302   0.64433   0.00000  Uiso   1.00
O728   O     0.69433   0.15339   0.59920   0.00000  Uiso   1.00
O729   O     0.74592   0.09428   0.56793   0.00000  Uiso   1.00
O730   O     0.83333   0.10559   0.46176   0.00000  Uiso   1.00
O731   O     0.83334   0.22774   0.53824   0.00000  Uiso   1.00
O732   O     0.75725   0.16666   0.52928   0.00000  Uiso   1.00
O733   O     0.90942   0.16667   0.47072   0.00000  Uiso   1.00
O734   O     0.75725   0.16667   0.45284   0.00000  Uiso   1.00
O735   O     0.90942   0.16666   0.54716   0.00000  Uiso   1.00
O736   O     0.95586   0.08521   0.51136   0.00000  Uiso   1.00
S737   S     0.99094   0.10079   0.47668   0.00000  Uiso   1.00
S738   S     0.67587   0.23250   0.52328   0.00000  Uiso   1.00
S739   S     0.81209   0.03757   0.40228   0.00000  Uiso   1.00
S740   S     0.86117   0.29571   0.59698   0.00000  Uiso   1.00
S741   S     0.93302   0.21059   0.38733   0.00000  Uiso   1.00
S742   S     0.73386   0.12244   0.61268   0.00000  Uiso   1.00
Zn743  Zn    0.83333   0.16666   0.55104   0.00000  Uiso   1.00
Zn744  Zn    0.83333   0.16667   0.44896   0.00000  Uiso   1.00
C745   C     0.16602   0.42005   0.49924   0.00000  Uiso   1.00
C746   C     0.17669   0.35700   0.53908   0.00000  Uiso   1.00
C747   C     0.16883   0.62427   0.50213   0.00000  Uiso   1.00
C748   C     0.16659   0.37578   0.49781   0.00000  Uiso   1.00
C749   C     0.20900   0.51752   0.35947   0.00000  Uiso   1.00
C750   C     0.12431   0.48253   0.64052   0.00000  Uiso   1.00
C751   C     0.20907   0.51550   0.64541   0.00000  Uiso   1.00
C752   C     0.12413   0.48476   0.35455   0.00000  Uiso   1.00
C753   C     0.16792   0.57995   0.50078   0.00000  Uiso   1.00
C754   C     0.06781   0.49563   0.48962   0.00000  Uiso   1.00
C755   C     0.26555   0.50430   0.51037   0.00000  Uiso   1.00
C756   C     0.01349   0.48660   0.48896   0.00000  Uiso   1.00
C757   C     0.31987   0.51337   0.51097   0.00000  Uiso   1.00
C758   C     0.15828   0.35183   0.45752   0.00000  Uiso   1.00
C759   C     0.17860   0.64824   0.54224   0.00000  Uiso   1.00
C760   C     0.15883   0.64305   0.46088   0.00000  Uiso   1.00
F761   F     0.25289   0.52775   0.62572   0.00000  Uiso   1.00
F762   F     0.08003   0.47307   0.37413   0.00000  Uiso   1.00
H763   H     0.15084   0.62450   0.43055   0.00000  Uiso   1.00
H764   H     0.18388   0.37549   0.56953   0.00000  Uiso   1.00
H765   H     0.02719   0.37556   0.47621   0.00000  Uiso   1.00
H766   H     0.30697   0.62463   0.52457   0.00000  Uiso   1.00
H767   H     0.06118   0.37579   0.39397   0.00000  Uiso   1.00
H768   H     0.11521   0.62033   0.61641   0.00000  Uiso   1.00
H769   H     0.24635   0.59966   0.42040   0.00000  Uiso   1.00
H770   H     0.05647   0.40187   0.56867   0.00000  Uiso   1.00
N771   N     0.16665   0.49999   0.61907   0.00000  Uiso   1.00
N772   N     0.16668   0.50001   0.38093   0.00000  Uiso   1.00
O773   O     0.16666   0.43892   0.53821   0.00000  Uiso   1.00
O774   O     0.29425   0.43096   0.43129   0.00000  Uiso   1.00
O775   O     0.04260   0.40435   0.47699   0.00000  Uiso   1.00
O776   O     0.03787   0.56897   0.56923   0.00000  Uiso   1.00
O777   O     0.04554   0.58113   0.48941   0.00000  Uiso   1.00
O778   O     0.29116   0.59597   0.52158   0.00000  Uiso   1.00
O779   O     0.19084   0.39890   0.39018   0.00000  Uiso   1.00
O780   O     0.13747   0.33613   0.36820   0.00000  Uiso   1.00
O781   O     0.09056   0.39707   0.39962   0.00000  Uiso   1.00
O782   O     0.24090   0.60285   0.59651   0.00000  Uiso   1.00
O783   O     0.20869   0.66378   0.63037   0.00000  Uiso   1.00
O784   O     0.16667   0.56108   0.46179   0.00000  Uiso   1.00
O785   O     0.14293   0.60053   0.61379   0.00000  Uiso   1.00
O786   O     0.29192   0.57317   0.35600   0.00000  Uiso   1.00
O787   O     0.30537   0.51260   0.40080   0.00000  Uiso   1.00
O788   O     0.25496   0.57220   0.43215   0.00000  Uiso   1.00
O789   O     0.04250   0.42636   0.64433   0.00000  Uiso   1.00
O790   O     0.02766   0.48672   0.59920   0.00000  Uiso   1.00
O791   O     0.07926   0.42762   0.56793   0.00000  Uiso   1.00
O792   O     0.16666   0.43893   0.46176   0.00000  Uiso   1.00
O793   O     0.16667   0.56107   0.53824   0.00000  Uiso   1.00
O794   O     0.09058   0.50000   0.52928   0.00000  Uiso   1.00
O795   O     0.24275   0.50000   0.47072   0.00000  Uiso   1.00
O796   O     0.09058   0.50000   0.45284   0.00000  Uiso   1.00
O797   O     0.24275   0.50000   0.54716   0.00000  Uiso   1.00
O798   O     0.28919   0.41855   0.51136   0.00000  Uiso   1.00
S799   S     0.32427   0.43412   0.47668   0.00000  Uiso   1.00
S800   S     0.00920   0.56583   0.52328   0.00000  Uiso   1.00
S801   S     0.14542   0.37090   0.40228   0.00000  Uiso   1.00
S802   S     0.19450   0.62904   0.59698   0.00000  Uiso   1.00
S803   S     0.26635   0.54392   0.38733   0.00000  Uiso   1.00
S804   S     0.06720   0.45578   0.61268   0.00000  Uiso   1.00
Zn805  Zn    0.16667   0.49999   0.55104   0.00000  Uiso   1.00
Zn806  Zn    0.16667   0.50001   0.44896   0.00000  Uiso   1.00
C807   C     0.49935   0.42005   0.49924   0.00000  Uiso   1.00
C808   C     0.51002   0.35700   0.53908   0.00000  Uiso   1.00
C809   C     0.50216   0.62427   0.50213   0.00000  Uiso   1.00
C810   C     0.49992   0.37578   0.49781   0.00000  Uiso   1.00
C811   C     0.54234   0.51752   0.35947   0.00000  Uiso   1.00
C812   C     0.45765   0.48253   0.64052   0.00000  Uiso   1.00
C813   C     0.54241   0.51550   0.64541   0.00000  Uiso   1.00
C814   C     0.45746   0.48476   0.35455   0.00000  Uiso   1.00
C815   C     0.50126   0.57995   0.50078   0.00000  Uiso   1.00
C816   C     0.40114   0.49563   0.48962   0.00000  Uiso   1.00
C817   C     0.59888   0.50430   0.51037   0.00000  Uiso   1.00
C818   C     0.34683   0.48660   0.48896   0.00000  Uiso   1.00
C819   C     0.65320   0.51337   0.51097   0.00000  Uiso   1.00
C820   C     0.49162   0.35183   0.45752   0.00000  Uiso   1.00
C821   C     0.51194   0.64824   0.54224   0.00000  Uiso   1.00
C822   C     0.49216   0.64305   0.46088   0.00000  Uiso   1.00
F823   F     0.58622   0.52775   0.62572   0.00000  Uiso   1.00
F824   F     0.41337   0.47307   0.37413   0.00000  Uiso   1.00
H825   H     0.48418   0.62450   0.43055   0.00000  Uiso   1.00
H826   H     0.51721   0.37549   0.56953   0.00000  Uiso   1.00
H827   H     0.36052   0.37556   0.47621   0.00000  Uiso   1.00
H828   H     0.64031   0.62463   0.52457   0.00000  Uiso   1.00
H829   H     0.39451   0.37579   0.39397   0.00000  Uiso   1.00
H830   H     0.44854   0.62033   0.61641   0.00000  Uiso   1.00
H831   H     0.57968   0.59966   0.42040   0.00000  Uiso   1.00
H832   H     0.38980   0.40187   0.56867   0.00000  Uiso   1.00
N833   N     0.49999   0.49999   0.61907   0.00000  Uiso   1.00
N834   N     0.50001   0.50001   0.38093   0.00000  Uiso   1.00
O835   O     0.50000   0.43892   0.53821   0.00000  Uiso   1.00
O836   O     0.62758   0.43096   0.43129   0.00000  Uiso   1.00
O837   O     0.37593   0.40435   0.47699   0.00000  Uiso   1.00
O838   O     0.37120   0.56897   0.56923   0.00000  Uiso   1.00
O839   O     0.37887   0.58113   0.48941   0.00000  Uiso   1.00
O840   O     0.62450   0.59597   0.52158   0.00000  Uiso   1.00
O841   O     0.52417   0.39890   0.39018   0.00000  Uiso   1.00
O842   O     0.47080   0.33613   0.36820   0.00000  Uiso   1.00
O843   O     0.42389   0.39707   0.39962   0.00000  Uiso   1.00
O844   O     0.57423   0.60285   0.59651   0.00000  Uiso   1.00
O845   O     0.54203   0.66378   0.63037   0.00000  Uiso   1.00
O846   O     0.50000   0.56108   0.46179   0.00000  Uiso   1.00
O847   O     0.47626   0.60053   0.61379   0.00000  Uiso   1.00
O848   O     0.62525   0.57317   0.35600   0.00000  Uiso   1.00
O849   O     0.63871   0.51260   0.40080   0.00000  Uiso   1.00
O850   O     0.58829   0.57220   0.43215   0.00000  Uiso   1.00
O851   O     0.37583   0.42636   0.64433   0.00000  Uiso   1.00
O852   O     0.36099   0.48672   0.59920   0.00000  Uiso   1.00
O853   O     0.41259   0.42762   0.56793   0.00000  Uiso   1.00
O854   O     0.50000   0.43893   0.46176   0.00000  Uiso   1.00
O855   O     0.50000   0.56107   0.53824   0.00000  Uiso   1.00
O856   O     0.42392   0.50000   0.52928   0.00000  Uiso   1.00
O857   O     0.57608   0.50000   0.47072   0.00000  Uiso   1.00
O858   O     0.42392   0.50000   0.45284   0.00000  Uiso   1.00
O859   O     0.57608   0.50000   0.54716   0.00000  Uiso   1.00
O860   O     0.62252   0.41855   0.51136   0.00000  Uiso   1.00
S861   S     0.65760   0.43412   0.47668   0.00000  Uiso   1.00
S862   S     0.34253   0.56583   0.52328   0.00000  Uiso   1.00
S863   S     0.47876   0.37090   0.40228   0.00000  Uiso   1.00
S864   S     0.52783   0.62904   0.59698   0.00000  Uiso   1.00
S865   S     0.59968   0.54392   0.38733   0.00000  Uiso   1.00
S866   S     0.40053   0.45578   0.61268   0.00000  Uiso   1.00
Zn867  Zn    0.50000   0.49999   0.55104   0.00000  Uiso   1.00
Zn868  Zn    0.50000   0.50001   0.44896   0.00000  Uiso   1.00
C869   C     0.83268   0.42005   0.49924   0.00000  Uiso   1.00
C870   C     0.84336   0.35700   0.53908   0.00000  Uiso   1.00
C871   C     0.83549   0.62427   0.50213   0.00000  Uiso   1.00
C872   C     0.83325   0.37578   0.49781   0.00000  Uiso   1.00
C873   C     0.87567   0.51752   0.35947   0.00000  Uiso   1.00
C874   C     0.79098   0.48253   0.64052   0.00000  Uiso   1.00
C875   C     0.87574   0.51550   0.64541   0.00000  Uiso   1.00
C876   C     0.79080   0.48476   0.35455   0.00000  Uiso   1.00
C877   C     0.83459   0.57995   0.50078   0.00000  Uiso   1.00
C878   C     0.73447   0.49563   0.48962   0.00000  Uiso   1.00
C879   C     0.93221   0.50430   0.51037   0.00000  Uiso   1.00
C880   C     0.68016   0.48660   0.48896   0.00000  Uiso   1.00
C881   C     0.98653   0.51337   0.51097   0.00000  Uiso   1.00
C882   C     0.82495   0.35183   0.45752   0.00000  Uiso   1.00
C883   C     0.84527   0.64824   0.54224   0.00000  Uiso   1.00
C884   C     0.82550   0.64305   0.46088   0.00000  Uiso   1.00
F885   F     0.91956   0.52775   0.62572   0.00000  Uiso   1.00
F886   F     0.74670   0.47307   0.37413   0.00000  Uiso   1.00
H887   H     0.81751   0.62450   0.43055   0.00000  Uiso   1.00
H888   H     0.85054   0.37549   0.56953   0.00000  Uiso   1.00
H889   H     0.69386   0.37556   0.47621   0.00000  Uiso   1.00
H890   H     0.97364   0.62463   0.52457   0.00000  Uiso   1.00
H891   H     0.72785   0.37579   0.39397   0.00000  Uiso   1.00
H892   H     0.78188   0.62033   0.61641   0.00000  Uiso   1.00
H893   H     0.91301   0.59966   0.42040   0.00000  Uiso   1.00
H894   H     0.72313   0.40187   0.56867   0.00000  Uiso   1.00
N895   N     0.83332   0.49999   0.61907   0.00000  Uiso   1.00
N896   N     0.83335   0.50001   0.38093   0.00000  Uiso   1.00
O897   O     0.83333   0.43892   0.53821   0.00000  Uiso   1.00
O898   O     0.96092   0.43096   0.43129   0.00000  Uiso   1.00
O899   O     0.70927   0.40435   0.47699   0.00000  Uiso   1.00
O900   O     0.70453   0.56897   0.56923   0.00000  Uiso   1.00
O901   O     0.71220   0.58113   0.48941   0.00000  Uiso   1.00
O902   O     0.95783   0.59597   0.52158   0.00000  Uiso   1.00
O903   O     0.85750   0.39890   0.39018   0.00000  Uiso   1.00
O904   O     0.80413   0.33613   0.36820   0.00000  Uiso   1.00
O905   O     0.75723   0.39707   0.39962   0.00000  Uiso   1.00
O906   O     0.90756   0.60285   0.59651   0.00000  Uiso   1.00
O907   O     0.87536   0.66378   0.63037   0.00000  Uiso   1.00
O908   O     0.83334   0.56108   0.46179   0.00000  Uiso   1.00
O909   O     0.80960   0.60053   0.61379   0.00000  Uiso   1.00
O910   O     0.95859   0.57317   0.35600   0.00000  Uiso   1.00
O911   O     0.97204   0.51260   0.40080   0.00000  Uiso   1.00
O912   O     0.92162   0.57220   0.43215   0.00000  Uiso   1.00
O913   O     0.70916   0.42636   0.64433   0.00000  Uiso   1.00
O914   O     0.69433   0.48672   0.59920   0.00000  Uiso   1.00
O915   O     0.74592   0.42762   0.56793   0.00000  Uiso   1.00
O916   O     0.83333   0.43893   0.46176   0.00000  Uiso   1.00
O917   O     0.83334   0.56107   0.53824   0.00000  Uiso   1.00
O918   O     0.75725   0.50000   0.52928   0.00000  Uiso   1.00
O919   O     0.90942   0.50000   0.47072   0.00000  Uiso   1.00
O920   O     0.75725   0.50000   0.45284   0.00000  Uiso   1.00
O921   O     0.90942   0.50000   0.54716   0.00000  Uiso   1.00
O922   O     0.95586   0.41855   0.51136   0.00000  Uiso   1.00
S923   S     0.99094   0.43412   0.47668   0.00000  Uiso   1.00
S924   S     0.67587   0.56583   0.52328   0.00000  Uiso   1.00
S925   S     0.81209   0.37090   0.40228   0.00000  Uiso   1.00
S926   S     0.86117   0.62904   0.59698   0.00000  Uiso   1.00
S927   S     0.93302   0.54392   0.38733   0.00000  Uiso   1.00
S928   S     0.73386   0.45578   0.61268   0.00000  Uiso   1.00
Zn929  Zn    0.83333   0.49999   0.55104   0.00000  Uiso   1.00
Zn930  Zn    0.83333   0.50001   0.44896   0.00000  Uiso   1.00
C931   C     0.16602   0.75338   0.49924   0.00000  Uiso   1.00
C932   C     0.17669   0.69033   0.53908   0.00000  Uiso   1.00
C933   C     0.16883   0.95760   0.50213   0.00000  Uiso   1.00
C934   C     0.16659   0.70912   0.49781   0.00000  Uiso   1.00
C935   C     0.20900   0.85086   0.35947   0.00000  Uiso   1.00
C936   C     0.12431   0.81586   0.64052   0.00000  Uiso   1.00
C937   C     0.20907   0.84884   0.64541   0.00000  Uiso   1.00
C938   C     0.12413   0.81809   0.35455   0.00000  Uiso   1.00
C939   C     0.16792   0.91328   0.50078   0.00000  Uiso   1.00
C940   C     0.06781   0.82897   0.48962   0.00000  Uiso   1.00
C941   C     0.26555   0.83763   0.51037   0.00000  Uiso   1.00
C942   C     0.01349   0.81993   0.48896   0.00000  Uiso   1.00
C943   C     0.31987   0.84670   0.51097   0.00000  Uiso   1.00
C944   C     0.15828   0.68517   0.45752   0.00000  Uiso   1.00
C945   C     0.17860   0.98158   0.54224   0.00000  Uiso   1.00
C946   C     0.15883   0.97638   0.46088   0.00000  Uiso   1.00
F947   F     0.25289   0.86109   0.62572   0.00000  Uiso   1.00
F948   F     0.08003   0.80641   0.37413   0.00000  Uiso   1.00
H949   H     0.15084   0.95783   0.43055   0.00000  Uiso   1.00
H950   H     0.18388   0.70883   0.56953   0.00000  Uiso   1.00
H951   H     0.02719   0.70889   0.47621   0.00000  Uiso   1.00
H952   H     0.30697   0.95796   0.52457   0.00000  Uiso   1.00
H953   H     0.06118   0.70912   0.39397   0.00000  Uiso   1.00
H954   H     0.11521   0.95367   0.61641   0.00000  Uiso   1.00
H955   H     0.24635   0.93299   0.42040   0.00000  Uiso   1.00
H956   H     0.05647   0.73521   0.56867   0.00000  Uiso   1.00
N957   N     0.16665   0.83332   0.61907   0.00000  Uiso   1.00
N958   N     0.16668   0.83334   0.38093   0.00000  Uiso   1.00
O959   O     0.16666   0.77225   0.53821   0.00000  Uiso   1.00
O960   O     0.29425   0.76429   0.43129   0.00000  Uiso   1.00
O961   O     0.04260   0.73769   0.47699   0.00000  Uiso   1.00
O962   O     0.03787   0.90230   0.56923   0.00000  Uiso   1.00
O963   O     0.04554   0.91446   0.48941   0.00000  Uiso   1.00
O964   O     0.29116   0.92931   0.52158   0.00000  Uiso   1.00
O965   O     0.19084   0.73224   0.39018   0.00000  Uiso   1.00
O966   O     0.13747   0.66946   0.36820   0.00000  Uiso   1.00
O967   O     0.09056   0.73040   0.39962   0.00000  Uiso   1.00
O968   O     0.24090   0.93618   0.59651   0.00000  Uiso   1.00
O969   O     0.20869   0.99712   0.63037   0.00000  Uiso   1.00
O970   O     0.16667   0.89442   0.46179   0.00000  Uiso   1.00
O971   O     0.14293   0.93386   0.61379   0.00000  Uiso   1.00
O972   O     0.29192   0.90650   0.35600   0.00000  Uiso   1.00
O973   O     0.30537   0.84594   0.40080   0.00000  Uiso   1.00
O974   O     0.25496   0.90553   0.43215   0.00000  Uiso   1.00
O975   O     0.04250   0.75969   0.64433   0.00000  Uiso   1.00
O976   O     0.02766   0.82005   0.59920   0.00000  Uiso   1.00
O977   O     0.07926   0.76095   0.56793   0.00000  Uiso   1.00
O978   O     0.16666   0.77226   0.46176   0.00000  Uiso   1.00
O979   O     0.16667   0.89441   0.53824   0.00000  Uiso   1.00
O980   O     0.09058   0.83333   0.52928   0.00000  Uiso   1.00
O981   O     0.24275   0.83334   0.47072   0.00000  Uiso   1.00
O982   O     0.09058   0.83334   0.45284   0.00000  Uiso   1.00
O983   O     0.24275   0.83333   0.54716   0.00000  Uiso   1.00
O984   O     0.28919   0.75188   0.51136   0.00000  Uiso   1.00
S985   S     0.32427   0.76746   0.47668   0.00000  Uiso   1.00
S986   S     0.00920   0.89917   0.52328   0.00000  Uiso   1.00
S987   S     0.14542   0.70423   0.40228   0.00000  Uiso   1.00
S988   S     0.19450   0.96237   0.59698   0.00000  Uiso   1.00
S989   S     0.26635   0.87726   0.38733   0.00000  Uiso   1.00
S990   S     0.06720   0.78911   0.61268   0.00000  Uiso   1.00
Zn991  Zn    0.16667   0.83333   0.55104   0.00000  Uiso   1.00
Zn992  Zn    0.16667   0.83334   0.44896   0.00000  Uiso   1.00
C993   C     0.49935   0.75338   0.49924   0.00000  Uiso   1.00
C994   C     0.51002   0.69033   0.53908   0.00000  Uiso   1.00
C995   C     0.50216   0.95760   0.50213   0.00000  Uiso   1.00
C996   C     0.49992   0.70912   0.49781   0.00000  Uiso   1.00
C997   C     0.54234   0.85086   0.35947   0.00000  Uiso   1.00
C998   C     0.45765   0.81586   0.64052   0.00000  Uiso   1.00
C999   C     0.54241   0.84884   0.64541   0.00000  Uiso   1.00
C1000  C     0.45746   0.81809   0.35455   0.00000  Uiso   1.00
C1001  C     0.50126   0.91328   0.50078   0.00000  Uiso   1.00
C1002  C     0.40114   0.82897   0.48962   0.00000  Uiso   1.00
C1003  C     0.59888   0.83763   0.51037   0.00000  Uiso   1.00
C1004  C     0.34683   0.81993   0.48896   0.00000  Uiso   1.00
C1005  C     0.65320   0.84670   0.51097   0.00000  Uiso   1.00
C1006  C     0.49162   0.68517   0.45752   0.00000  Uiso   1.00
C1007  C     0.51194   0.98158   0.54224   0.00000  Uiso   1.00
C1008  C     0.49216   0.97638   0.46088   0.00000  Uiso   1.00
F1009  F     0.58622   0.86109   0.62572   0.00000  Uiso   1.00
F1010  F     0.41337   0.80641   0.37413   0.00000  Uiso   1.00
H1011  H     0.48418   0.95783   0.43055   0.00000  Uiso   1.00
H1012  H     0.51721   0.70883   0.56953   0.00000  Uiso   1.00
H1013  H     0.36052   0.70889   0.47621   0.00000  Uiso   1.00
H1014  H     0.64031   0.95796   0.52457   0.00000  Uiso   1.00
H1015  H     0.39451   0.70912   0.39397   0.00000  Uiso   1.00
H1016  H     0.44854   0.95367   0.61641   0.00000  Uiso   1.00
H1017  H     0.57968   0.93299   0.42040   0.00000  Uiso   1.00
H1018  H     0.38980   0.73521   0.56867   0.00000  Uiso   1.00
N1019  N     0.49999   0.83332   0.61907   0.00000  Uiso   1.00
N1020  N     0.50001   0.83334   0.38093   0.00000  Uiso   1.00
O1021  O     0.50000   0.77225   0.53821   0.00000  Uiso   1.00
O1022  O     0.62758   0.76429   0.43129   0.00000  Uiso   1.00
O1023  O     0.37593   0.73769   0.47699   0.00000  Uiso   1.00
O1024  O     0.37120   0.90230   0.56923   0.00000  Uiso   1.00
O1025  O     0.37887   0.91446   0.48941   0.00000  Uiso   1.00
O1026  O     0.62450   0.92931   0.52158   0.00000  Uiso   1.00
O1027  O     0.52417   0.73224   0.39018   0.00000  Uiso   1.00
O1028  O     0.47080   0.66946   0.36820   0.00000  Uiso   1.00
O1029  O     0.42389   0.73040   0.39962   0.00000  Uiso   1.00
O1030  O     0.57423   0.93618   0.59651   0.00000  Uiso   1.00
O1031  O     0.54203   0.99712   0.63037   0.00000  Uiso   1.00
O1032  O     0.50000   0.89442   0.46179   0.00000  Uiso   1.00
O1033  O     0.47626   0.93386   0.61379   0.00000  Uiso   1.00
O1034  O     0.62525   0.90650   0.35600   0.00000  Uiso   1.00
O1035  O     0.63871   0.84594   0.40080   0.00000  Uiso   1.00
O1036  O     0.58829   0.90553   0.43215   0.00000  Uiso   1.00
O1037  O     0.37583   0.75969   0.64433   0.00000  Uiso   1.00
O1038  O     0.36099   0.82005   0.59920   0.00000  Uiso   1.00
O1039  O     0.41259   0.76095   0.56793   0.00000  Uiso   1.00
O1040  O     0.50000   0.77226   0.46176   0.00000  Uiso   1.00
O1041  O     0.50000   0.89441   0.53824   0.00000  Uiso   1.00
O1042  O     0.42392   0.83333   0.52928   0.00000  Uiso   1.00
O1043  O     0.57608   0.83334   0.47072   0.00000  Uiso   1.00
O1044  O     0.42392   0.83334   0.45284   0.00000  Uiso   1.00
O1045  O     0.57608   0.83333   0.54716   0.00000  Uiso   1.00
O1046  O     0.62252   0.75188   0.51136   0.00000  Uiso   1.00
S1047  S     0.65760   0.76746   0.47668   0.00000  Uiso   1.00
S1048  S     0.34253   0.89917   0.52328   0.00000  Uiso   1.00
S1049  S     0.47876   0.70423   0.40228   0.00000  Uiso   1.00
S1050  S     0.52783   0.96237   0.59698   0.00000  Uiso   1.00
S1051  S     0.59968   0.87726   0.38733   0.00000  Uiso   1.00
S1052  S     0.40053   0.78911   0.61268   0.00000  Uiso   1.00
Zn1053 Zn    0.50000   0.83333   0.55104   0.00000  Uiso   1.00
Zn1054 Zn    0.50000   0.83334   0.44896   0.00000  Uiso   1.00
C1055  C     0.83268   0.75338   0.49924   0.00000  Uiso   1.00
C1056  C     0.84336   0.69033   0.53908   0.00000  Uiso   1.00
C1057  C     0.83549   0.95760   0.50213   0.00000  Uiso   1.00
C1058  C     0.83325   0.70912   0.49781   0.00000  Uiso   1.00
C1059  C     0.87567   0.85086   0.35947   0.00000  Uiso   1.00
C1060  C     0.79098   0.81586   0.64052   0.00000  Uiso   1.00
C1061  C     0.87574   0.84884   0.64541   0.00000  Uiso   1.00
C1062  C     0.79080   0.81809   0.35455   0.00000  Uiso   1.00
C1063  C     0.83459   0.91328   0.50078   0.00000  Uiso   1.00
C1064  C     0.73447   0.82897   0.48962   0.00000  Uiso   1.00
C1065  C     0.93221   0.83763   0.51037   0.00000  Uiso   1.00
C1066  C     0.68016   0.81993   0.48896   0.00000  Uiso   1.00
C1067  C     0.98653   0.84670   0.51097   0.00000  Uiso   1.00
C1068  C     0.82495   0.68517   0.45752   0.00000  Uiso   1.00
C1069  C     0.84527   0.98158   0.54224   0.00000  Uiso   1.00
C1070  C     0.82550   0.97638   0.46088   0.00000  Uiso   1.00
F1071  F     0.91956   0.86109   0.62572   0.00000  Uiso   1.00
F1072  F     0.74670   0.80641   0.37413   0.00000  Uiso   1.00
H1073  H     0.81751   0.95783   0.43055   0.00000  Uiso   1.00
H1074  H     0.85054   0.70883   0.56953   0.00000  Uiso   1.00
H1075  H     0.69386   0.70889   0.47621   0.00000  Uiso   1.00
H1076  H     0.97364   0.95796   0.52457   0.00000  Uiso   1.00
H1077  H     0.72785   0.70912   0.39397   0.00000  Uiso   1.00
H1078  H     0.78188   0.95367   0.61641   0.00000  Uiso   1.00
H1079  H     0.91301   0.93299   0.42040   0.00000  Uiso   1.00
H1080  H     0.72313   0.73521   0.56867   0.00000  Uiso   1.00
N1081  N     0.83332   0.83332   0.61907   0.00000  Uiso   1.00
N1082  N     0.83335   0.83334   0.38093   0.00000  Uiso   1.00
O1083  O     0.83333   0.77225   0.53821   0.00000  Uiso   1.00
O1084  O     0.96092   0.76429   0.43129   0.00000  Uiso   1.00
O1085  O     0.70927   0.73769   0.47699   0.00000  Uiso   1.00
O1086  O     0.70453   0.90230   0.56923   0.00000  Uiso   1.00
O1087  O     0.71220   0.91446   0.48941   0.00000  Uiso   1.00
O1088  O     0.95783   0.92931   0.52158   0.00000  Uiso   1.00
O1089  O     0.85750   0.73224   0.39018   0.00000  Uiso   1.00
O1090  O     0.80413   0.66946   0.36820   0.00000  Uiso   1.00
O1091  O     0.75723   0.73040   0.39962   0.00000  Uiso   1.00
O1092  O     0.90756   0.93618   0.59651   0.00000  Uiso   1.00
O1093  O     0.87536   0.99712   0.63037   0.00000  Uiso   1.00
O1094  O     0.83334   0.89442   0.46179   0.00000  Uiso   1.00
O1095  O     0.80960   0.93386   0.61379   0.00000  Uiso   1.00
O1096  O     0.95859   0.90650   0.35600   0.00000  Uiso   1.00
O1097  O     0.97204   0.84594   0.40080   0.00000  Uiso   1.00
O1098  O     0.92162   0.90553   0.43215   0.00000  Uiso   1.00
O1099  O     0.70916   0.75969   0.64433   0.00000  Uiso   1.00
O1100  O     0.69433   0.82005   0.59920   0.00000  Uiso   1.00
O1101  O     0.74592   0.76095   0.56793   0.00000  Uiso   1.00
O1102  O     0.83333   0.77226   0.46176   0.00000  Uiso   1.00
O1103  O     0.83334   0.89441   0.53824   0.00000  Uiso   1.00
O1104  O     0.75725   0.83333   0.52928   0.00000  Uiso   1.00
O1105  O     0.90942   0.83334   0.47072   0.00000  Uiso   1.00
O1106  O     0.75725   0.83334   0.45284   0.00000  Uiso   1.00
O1107  O     0.90942   0.83333   0.54716   0.00000  Uiso   1.00
O1108  O     0.95586   0.75188   0.51136   0.00000  Uiso   1.00
S1109  S     0.99094   0.76746   0.47668   0.00000  Uiso   1.00
S1110  S     0.67587   0.89917   0.52328   0.00000  Uiso   1.00
S1111  S     0.81209   0.70423   0.40228   0.00000  Uiso   1.00
S1112  S     0.86117   0.96237   0.59698   0.00000  Uiso   1.00
S1113  S     0.93302   0.87726   0.38733   0.00000  Uiso   1.00
S1114  S     0.73386   0.78911   0.61268   0.00000  Uiso   1.00
Zn1115 Zn    0.83333   0.83333   0.55104   0.00000  Uiso   1.00
Zn1116 Zn    0.83333   0.83334   0.44896   0.00000  Uiso   1.00
C1117  C     0.16602   0.08671   0.83257   0.00000  Uiso   1.00
C1118  C     0.17669   0.02367   0.87241   0.00000  Uiso   1.00
C1119  C     0.16883   0.29093   0.83546   0.00000  Uiso   1.00
C1120  C     0.16659   0.04245   0.83114   0.00000  Uiso   1.00
C1121  C     0.20900   0.18419   0.69280   0.00000  Uiso   1.00
C1122  C     0.12431   0.14920   0.97385   0.00000  Uiso   1.00
C1123  C     0.20907   0.18217   0.97874   0.00000  Uiso   1.00
C1124  C     0.12413   0.15143   0.68789   0.00000  Uiso   1.00
C1125  C     0.16792   0.24662   0.83411   0.00000  Uiso   1.00
C1126  C     0.06781   0.16230   0.82295   0.00000  Uiso   1.00
C1127  C     0.26555   0.17097   0.84371   0.00000  Uiso   1.00
C1128  C     0.01349   0.15326   0.82229   0.00000  Uiso   1.00
C1129  C     0.31987   0.18003   0.84431   0.00000  Uiso   1.00
C1130  C     0.15828   0.01850   0.79086   0.00000  Uiso   1.00
C1131  C     0.17860   0.31491   0.87557   0.00000  Uiso   1.00
C1132  C     0.15883   0.30971   0.79422   0.00000  Uiso   1.00
F1133  F     0.25289   0.19442   0.95906   0.00000  Uiso   1.00
F1134  F     0.08003   0.13974   0.70747   0.00000  Uiso   1.00
H1135  H     0.15084   0.29116   0.76388   0.00000  Uiso   1.00
H1136  H     0.18388   0.04216   0.90286   0.00000  Uiso   1.00
H1137  H     0.02719   0.04222   0.80955   0.00000  Uiso   1.00
H1138  H     0.30697   0.29130   0.85791   0.00000  Uiso   1.00
H1139  H     0.06118   0.04245   0.72730   0.00000  Uiso   1.00
H1140  H     0.11521   0.28700   0.94975   0.00000  Uiso   1.00
H1141  H     0.24635   0.26632   0.75374   0.00000  Uiso   1.00
H1142  H     0.05647   0.06854   0.90201   0.00000  Uiso   1.00
N1143  N     0.16665   0.16666   0.95240   0.00000  Uiso   1.00
N1144  N     0.16668   0.16668   0.71427   0.00000  Uiso   1.00
O1145  O     0.16666   0.10558   0.87154   0.00000  Uiso   1.00
O1146  O     0.29425   0.09762   0.76462   0.00000  Uiso   1.00
O1147  O     0.04260   0.07102   0.81032   0.00000  Uiso   1.00
O1148  O     0.03787   0.23563   0.90256   0.00000  Uiso   1.00
O1149  O     0.04554   0.24780   0.82275   0.00000  Uiso   1.00
O1150  O     0.29116   0.26264   0.85492   0.00000  Uiso   1.00
O1151  O     0.19084   0.06557   0.72352   0.00000  Uiso   1.00
O1152  O     0.13747   0.00279   0.70153   0.00000  Uiso   1.00
O1153  O     0.09056   0.06374   0.73295   0.00000  Uiso   1.00
O1154  O     0.24090   0.26952   0.92984   0.00000  Uiso   1.00
O1155  O     0.20869   0.33045   0.96370   0.00000  Uiso   1.00
O1156  O     0.16667   0.22775   0.79513   0.00000  Uiso   1.00
O1157  O     0.14293   0.26719   0.94713   0.00000  Uiso   1.00
O1158  O     0.29192   0.23984   0.68933   0.00000  Uiso   1.00
O1159  O     0.30537   0.17927   0.73413   0.00000  Uiso   1.00
O1160  O     0.25496   0.23887   0.76548   0.00000  Uiso   1.00
O1161  O     0.04250   0.09302   0.97767   0.00000  Uiso   1.00
O1162  O     0.02766   0.15339   0.93253   0.00000  Uiso   1.00
O1163  O     0.07926   0.09428   0.90126   0.00000  Uiso   1.00
O1164  O     0.16666   0.10559   0.79510   0.00000  Uiso   1.00
O1165  O     0.16667   0.22774   0.87157   0.00000  Uiso   1.00
O1166  O     0.09058   0.16666   0.86261   0.00000  Uiso   1.00
O1167  O     0.24275   0.16667   0.80405   0.00000  Uiso   1.00
O1168  O     0.09058   0.16667   0.78617   0.00000  Uiso   1.00
O1169  O     0.24275   0.16666   0.88050   0.00000  Uiso   1.00
O1170  O     0.28919   0.08521   0.84470   0.00000  Uiso   1.00
S1171  S     0.32427   0.10079   0.81002   0.00000  Uiso   1.00
S1172  S     0.00920   0.23250   0.85661   0.00000  Uiso   1.00
S1173  S     0.14542   0.03757   0.73561   0.00000  Uiso   1.00
S1174  S     0.19450   0.29571   0.93031   0.00000  Uiso   1.00
S1175  S     0.26635   0.21059   0.72066   0.00000  Uiso   1.00
S1176  S     0.06720   0.12244   0.94601   0.00000  Uiso   1.00
Zn1177 Zn    0.16667   0.16666   0.88437   0.00000  Uiso   1.00
Zn1178 Zn    0.16667   0.16667   0.78229   0.00000  Uiso   1.00
C1179  C     0.49935   0.08671   0.83257   0.00000  Uiso   1.00
C1180  C     0.51002   0.02367   0.87241   0.00000  Uiso   1.00
C1181  C     0.50216   0.29093   0.83546   0.00000  Uiso   1.00
C1182  C     0.49992   0.04245   0.83114   0.00000  Uiso   1.00
C1183  C     0.54234   0.18419   0.69280   0.00000  Uiso   1.00
C1184  C     0.45765   0.14920   0.97385   0.00000  Uiso   1.00
C1185  C     0.54241   0.18217   0.97874   0.00000  Uiso   1.00
C1186  C     0.45746   0.15143   0.68789   0.00000  Uiso   1.00
C1187  C     0.50126   0.24662   0.83411   0.00000  Uiso   1.00
C1188  C     0.40114   0.16230   0.82295   0.00000  Uiso   1.00
C1189  C     0.59888   0.17097   0.84371   0.00000  Uiso   1.00
C1190  C     0.34683   0.15326   0.82229   0.00000  Uiso   1.00
C1191  C     0.65320   0.18003   0.84431   0.00000  Uiso   1.00
C1192  C     0.49162   0.01850   0.79086   0.00000  Uiso   1.00
C1193  C     0.51194   0.31491   0.87557   0.00000  Uiso   1.00
C1194  C     0.49216   0.30971   0.79422   0.00000  Uiso   1.00
F1195  F     0.58622   0.19442   0.95906   0.00000  Uiso   1.00
F1196  F     0.41337   0.13974   0.70747   0.00000  Uiso   1.00
H1197  H     0.48418   0.29116   0.76388   0.00000  Uiso   1.00
H1198  H     0.51721   0.04216   0.90286   0.00000  Uiso   1.00
H1199  H     0.36052   0.04222   0.80955   0.00000  Uiso   1.00
H1200  H     0.64031   0.29130   0.85791   0.00000  Uiso   1.00
H1201  H     0.39451   0.04245   0.72730   0.00000  Uiso   1.00
H1202  H     0.44854   0.28700   0.94975   0.00000  Uiso   1.00
H1203  H     0.57968   0.26632   0.75374   0.00000  Uiso   1.00
H1204  H     0.38980   0.06854   0.90201   0.00000  Uiso   1.00
N1205  N     0.49999   0.16666   0.95240   0.00000  Uiso   1.00
N1206  N     0.50001   0.16668   0.71427   0.00000  Uiso   1.00
O1207  O     0.50000   0.10558   0.87154   0.00000  Uiso   1.00
O1208  O     0.62758   0.09762   0.76462   0.00000  Uiso   1.00
O1209  O     0.37593   0.07102   0.81032   0.00000  Uiso   1.00
O1210  O     0.37120   0.23563   0.90256   0.00000  Uiso   1.00
O1211  O     0.37887   0.24780   0.82275   0.00000  Uiso   1.00
O1212  O     0.62450   0.26264   0.85492   0.00000  Uiso   1.00
O1213  O     0.52417   0.06557   0.72352   0.00000  Uiso   1.00
O1214  O     0.47080   0.00279   0.70153   0.00000  Uiso   1.00
O1215  O     0.42389   0.06374   0.73295   0.00000  Uiso   1.00
O1216  O     0.57423   0.26952   0.92984   0.00000  Uiso   1.00
O1217  O     0.54203   0.33045   0.96370   0.00000  Uiso   1.00
O1218  O     0.50000   0.22775   0.79513   0.00000  Uiso   1.00
O1219  O     0.47626   0.26719   0.94713   0.00000  Uiso   1.00
O1220  O     0.62525   0.23984   0.68933   0.00000  Uiso   1.00
O1221  O     0.63871   0.17927   0.73413   0.00000  Uiso   1.00
O1222  O     0.58829   0.23887   0.76548   0.00000  Uiso   1.00
O1223  O     0.37583   0.09302   0.97767   0.00000  Uiso   1.00
O1224  O     0.36099   0.15339   0.93253   0.00000  Uiso   1.00
O1225  O     0.41259   0.09428   0.90126   0.00000  Uiso   1.00
O1226  O     0.50000   0.10559   0.79510   0.00000  Uiso   1.00
O1227  O     0.50000   0.22774   0.87157   0.00000  Uiso   1.00
O1228  O     0.42392   0.16666   0.86261   0.00000  Uiso   1.00
O1229  O     0.57608   0.16667   0.80405   0.00000  Uiso   1.00
O1230  O     0.42392   0.16667   0.78617   0.00000  Uiso   1.00
O1231  O     0.57608   0.16666   0.88050   0.00000  Uiso   1.00
O1232  O     0.62252   0.08521   0.84470   0.00000  Uiso   1.00
S1233  S     0.65760   0.10079   0.81002   0.00000  Uiso   1.00
S1234  S     0.34253   0.23250   0.85661   0.00000  Uiso   1.00
S1235  S     0.47876   0.03757   0.73561   0.00000  Uiso   1.00
S1236  S     0.52783   0.29571   0.93031   0.00000  Uiso   1.00
S1237  S     0.59968   0.21059   0.72066   0.00000  Uiso   1.00
S1238  S     0.40053   0.12244   0.94601   0.00000  Uiso   1.00
Zn1239 Zn    0.50000   0.16666   0.88437   0.00000  Uiso   1.00
Zn1240 Zn    0.50000   0.16667   0.78229   0.00000  Uiso   1.00
C1241  C     0.83268   0.08671   0.83257   0.00000  Uiso   1.00
C1242  C     0.84336   0.02367   0.87241   0.00000  Uiso   1.00
C1243  C     0.83549   0.29093   0.83546   0.00000  Uiso   1.00
C1244  C     0.83325   0.04245   0.83114   0.00000  Uiso   1.00
C1245  C     0.87567   0.18419   0.69280   0.00000  Uiso   1.00
C1246  C     0.79098   0.14920   0.97385   0.00000  Uiso   1.00
C1247  C     0.87574   0.18217   0.97874   0.00000  Uiso   1.00
C1248  C     0.79080   0.15143   0.68789   0.00000  Uiso   1.00
C1249  C     0.83459   0.24662   0.83411   0.00000  Uiso   1.00
C1250  C     0.73447   0.16230   0.82295   0.00000  Uiso   1.00
C1251  C     0.93221   0.17097   0.84371   0.00000  Uiso   1.00
C1252  C     0.68016   0.15326   0.82229   0.00000  Uiso   1.00
C1253  C     0.98653   0.18003   0.84431   0.00000  Uiso   1.00
C1254  C     0.82495   0.01850   0.79086   0.00000  Uiso   1.00
C1255  C     0.84527   0.31491   0.87557   0.00000  Uiso   1.00
C1256  C     0.82550   0.30971   0.79422   0.00000  Uiso   1.00
F1257  F     0.91956   0.19442   0.95906   0.00000  Uiso   1.00
F1258  F     0.74670   0.13974   0.70747   0.00000  Uiso   1.00
H1259  H     0.81751   0.29116   0.76388   0.00000  Uiso   1.00
H1260  H     0.85054   0.04216   0.90286   0.00000  Uiso   1.00
H1261  H     0.69386   0.04222   0.80955   0.00000  Uiso   1.00
H1262  H     0.97364   0.29130   0.85791   0.00000  Uiso   1.00
H1263  H     0.72785   0.04245   0.72730   0.00000  Uiso   1.00
H1264  H     0.78188   0.28700   0.94975   0.00000  Uiso   1.00
H1265  H     0.91301   0.26632   0.75374   0.00000  Uiso   1.00
H1266  H     0.72313   0.06854   0.90201   0.00000  Uiso   1.00
N1267  N     0.83332   0.16666   0.95240   0.00000  Uiso   1.00
N1268  N     0.83335   0.16668   0.71427   0.00000  Uiso   1.00
O1269  O     0.83333   0.10558   0.87154   0.00000  Uiso   1.00
O1270  O     0.96092   0.09762   0.76462   0.00000  Uiso   1.00
O1271  O     0.70927   0.07102   0.81032   0.00000  Uiso   1.00
O1272  O     0.70453   0.23563   0.90256   0.00000  Uiso   1.00
O1273  O     0.71220   0.24780   0.82275   0.00000  Uiso   1.00
O1274  O     0.95783   0.26264   0.85492   0.00000  Uiso   1.00
O1275  O     0.85750   0.06557   0.72352   0.00000  Uiso   1.00
O1276  O     0.80413   0.00279   0.70153   0.00000  Uiso   1.00
O1277  O     0.75723   0.06374   0.73295   0.00000  Uiso   1.00
O1278  O     0.90756   0.26952   0.92984   0.00000  Uiso   1.00
O1279  O     0.87536   0.33045   0.96370   0.00000  Uiso   1.00
O1280  O     0.83334   0.22775   0.79513   0.00000  Uiso   1.00
O1281  O     0.80960   0.26719   0.94713   0.00000  Uiso   1.00
O1282  O     0.95859   0.23984   0.68933   0.00000  Uiso   1.00
O1283  O     0.97204   0.17927   0.73413   0.00000  Uiso   1.00
O1284  O     0.92162   0.23887   0.76548   0.00000  Uiso   1.00
O1285  O     0.70916   0.09302   0.97767   0.00000  Uiso   1.00
O1286  O     0.69433   0.15339   0.93253   0.00000  Uiso   1.00
O1287  O     0.74592   0.09428   0.90126   0.00000  Uiso   1.00
O1288  O     0.83333   0.10559   0.79510   0.00000  Uiso   1.00
O1289  O     0.83334   0.22774   0.87157   0.00000  Uiso   1.00
O1290  O     0.75725   0.16666   0.86261   0.00000  Uiso   1.00
O1291  O     0.90942   0.16667   0.80405   0.00000  Uiso   1.00
O1292  O     0.75725   0.16667   0.78617   0.00000  Uiso   1.00
O1293  O     0.90942   0.16666   0.88050   0.00000  Uiso   1.00
O1294  O     0.95586   0.08521   0.84470   0.00000  Uiso   1.00
S1295  S     0.99094   0.10079   0.81002   0.00000  Uiso   1.00
S1296  S     0.67587   0.23250   0.85661   0.00000  Uiso   1.00
S1297  S     0.81209   0.03757   0.73561   0.00000  Uiso   1.00
S1298  S     0.86117   0.29571   0.93031   0.00000  Uiso   1.00
S1299  S     0.93302   0.21059   0.72066   0.00000  Uiso   1.00
S1300  S     0.73386   0.12244   0.94601   0.00000  Uiso   1.00
Zn1301 Zn    0.83333   0.16666   0.88437   0.00000  Uiso   1.00
Zn1302 Zn    0.83333   0.16667   0.78229   0.00000  Uiso   1.00
C1303  C     0.16602   0.42005   0.83257   0.00000  Uiso   1.00
C1304  C     0.17669   0.35700   0.87241   0.00000  Uiso   1.00
C1305  C     0.16883   0.62427   0.83546   0.00000  Uiso   1.00
C1306  C     0.16659   0.37578   0.83114   0.00000  Uiso   1.00
C1307  C     0.20900   0.51752   0.69280   0.00000  Uiso   1.00
C1308  C     0.12431   0.48253   0.97385   0.00000  Uiso   1.00
C1309  C     0.20907   0.51550   0.97874   0.00000  Uiso   1.00
C1310  C     0.12413   0.48476   0.68789   0.00000  Uiso   1.00
C1311  C     0.16792   0.57995   0.83411   0.00000  Uiso   1.00
C1312  C     0.06781   0.49563   0.82295   0.00000  Uiso   1.00
C1313  C     0.26555   0.50430   0.84371   0.00000  Uiso   1.00
C1314  C     0.01349   0.48660   0.82229   0.00000  Uiso   1.00
C1315  C     0.31987   0.51337   0.84431   0.00000  Uiso   1.00
C1316  C     0.15828   0.35183   0.79086   0.00000  Uiso   1.00
C1317  C     0.17860   0.64824   0.87557   0.00000  Uiso   1.00
C1318  C     0.15883   0.64305   0.79422   0.00000  Uiso   1.00
F1319  F     0.25289   0.52775   0.95906   0.00000  Uiso   1.00
F1320  F     0.08003   0.47307   0.70747   0.00000  Uiso   1.00
H1321  H     0.15084   0.62450   0.76388   0.00000  Uiso   1.00
H1322  H     0.18388   0.37549   0.90286   0.00000  Uiso   1.00
H1323  H     0.02719   0.37556   0.80955   0.00000  Uiso   1.00
H1324  H     0.30697   0.62463   0.85791   0.00000  Uiso   1.00
H1325  H     0.06118   0.37579   0.72730   0.00000  Uiso   1.00
H1326  H     0.11521   0.62033   0.94975   0.00000  Uiso   1.00
H1327  H     0.24635   0.59966   0.75374   0.00000  Uiso   1.00
H1328  H     0.05647   0.40187   0.90201   0.00000  Uiso   1.00
N1329  N     0.16665   0.49999   0.95240   0.00000  Uiso   1.00
N1330  N     0.16668   0.50001   0.71427   0.00000  Uiso   1.00
O1331  O     0.16666   0.43892   0.87154   0.00000  Uiso   1.00
O1332  O     0.29425   0.43096   0.76462   0.00000  Uiso   1.00
O1333  O     0.04260   0.40435   0.81032   0.00000  Uiso   1.00
O1334  O     0.03787   0.56897   0.90256   0.00000  Uiso   1.00
O1335  O     0.04554   0.58113   0.82275   0.00000  Uiso   1.00
O1336  O     0.29116   0.59597   0.85492   0.00000  Uiso   1.00
O1337  O     0.19084   0.39890   0.72352   0.00000  Uiso   1.00
O1338  O     0.13747   0.33613   0.70153   0.00000  Uiso   1.00
O1339  O     0.09056   0.39707   0.73295   0.00000  Uiso   1.00
O1340  O     0.24090   0.60285   0.92984   0.00000  Uiso   1.00
O1341  O     0.20869   0.66378   0.96370   0.00000  Uiso   1.00
O1342  O     0.16667   0.56108   0.79513   0.00000  Uiso   1.00
O1343  O     0.14293   0.60053   0.94713   0.00000  Uiso   1.00
O1344  O     0.29192   0.57317   0.68933   0.00000  Uiso   1.00
O1345  O     0.30537   0.51260   0.73413   0.00000  Uiso   1.00
O1346  O     0.25496   0.57220   0.76548   0.00000  Uiso   1.00
O1347  O     0.04250   0.42636   0.97767   0.00000  Uiso   1.00
O1348  O     0.02766   0.48672   0.93253   0.00000  Uiso   1.00
O1349  O     0.07926   0.42762   0.90126   0.00000  Uiso   1.00
O1350  O     0.16666   0.43893   0.79510   0.00000  Uiso   1.00
O1351  O     0.16667   0.56107   0.87157   0.00000  Uiso   1.00
O1352  O     0.09058   0.50000   0.86261   0.00000  Uiso   1.00
O1353  O     0.24275   0.50000   0.80405   0.00000  Uiso   1.00
O1354  O     0.09058   0.50000   0.78617   0.00000  Uiso   1.00
O1355  O     0.24275   0.50000   0.88050   0.00000  Uiso   1.00
O1356  O     0.28919   0.41855   0.84470   0.00000  Uiso   1.00
S1357  S     0.32427   0.43412   0.81002   0.00000  Uiso   1.00
S1358  S     0.00920   0.56583   0.85661   0.00000  Uiso   1.00
S1359  S     0.14542   0.37090   0.73561   0.00000  Uiso   1.00
S1360  S     0.19450   0.62904   0.93031   0.00000  Uiso   1.00
S1361  S     0.26635   0.54392   0.72066   0.00000  Uiso   1.00
S1362  S     0.06720   0.45578   0.94601   0.00000  Uiso   1.00
Zn1363 Zn    0.16667   0.49999   0.88437   0.00000  Uiso   1.00
Zn1364 Zn    0.16667   0.50001   0.78229   0.00000  Uiso   1.00
C1365  C     0.49935   0.42005   0.83257   0.00000  Uiso   1.00
C1366  C     0.51002   0.35700   0.87241   0.00000  Uiso   1.00
C1367  C     0.50216   0.62427   0.83546   0.00000  Uiso   1.00
C1368  C     0.49992   0.37578   0.83114   0.00000  Uiso   1.00
C1369  C     0.54234   0.51752   0.69280   0.00000  Uiso   1.00
C1370  C     0.45765   0.48253   0.97385   0.00000  Uiso   1.00
C1371  C     0.54241   0.51550   0.97874   0.00000  Uiso   1.00
C1372  C     0.45746   0.48476   0.68789   0.00000  Uiso   1.00
C1373  C     0.50126   0.57995   0.83411   0.00000  Uiso   1.00
C1374  C     0.40114   0.49563   0.82295   0.00000  Uiso   1.00
C1375  C     0.59888   0.50430   0.84371   0.00000  Uiso   1.00
C1376  C     0.34683   0.48660   0.82229   0.00000  Uiso   1.00
C1377  C     0.65320   0.51337   0.84431   0.00000  Uiso   1.00
C1378  C     0.49162   0.35183   0.79086   0.00000  Uiso   1.00
C1379  C     0.51194   0.64824   0.87557   0.00000  Uiso   1.00
C1380  C     0.49216   0.64305   0.79422   0.00000  Uiso   1.00
F1381  F     0.58622   0.52775   0.95906   0.00000  Uiso   1.00
F1382  F     0.41337   0.47307   0.70747   0.00000  Uiso   1.00
H1383  H     0.48418   0.62450   0.76388   0.00000  Uiso   1.00
H1384  H     0.51721   0.37549   0.90286   0.00000  Uiso   1.00
H1385  H     0.36052   0.37556   0.80955   0.00000  Uiso   1.00
H1386  H     0.64031   0.62463   0.85791   0.00000  Uiso   1.00
H1387  H     0.39451   0.37579   0.72730   0.00000  Uiso   1.00
H1388  H     0.44854   0.62033   0.94975   0.00000  Uiso   1.00
H1389  H     0.57968   0.59966   0.75374   0.00000  Uiso   1.00
H1390  H     0.38980   0.40187   0.90201   0.00000  Uiso   1.00
N1391  N     0.49999   0.49999   0.95240   0.00000  Uiso   1.00
N1392  N     0.50001   0.50001   0.71427   0.00000  Uiso   1.00
O1393  O     0.50000   0.43892   0.87154   0.00000  Uiso   1.00
O1394  O     0.62758   0.43096   0.76462   0.00000  Uiso   1.00
O1395  O     0.37593   0.40435   0.81032   0.00000  Uiso   1.00
O1396  O     0.37120   0.56897   0.90256   0.00000  Uiso   1.00
O1397  O     0.37887   0.58113   0.82275   0.00000  Uiso   1.00
O1398  O     0.62450   0.59597   0.85492   0.00000  Uiso   1.00
O1399  O     0.52417   0.39890   0.72352   0.00000  Uiso   1.00
O1400  O     0.47080   0.33613   0.70153   0.00000  Uiso   1.00
O1401  O     0.42389   0.39707   0.73295   0.00000  Uiso   1.00
O1402  O     0.57423   0.60285   0.92984   0.00000  Uiso   1.00
O1403  O     0.54203   0.66378   0.96370   0.00000  Uiso   1.00
O1404  O     0.50000   0.56108   0.79513   0.00000  Uiso   1.00
O1405  O     0.47626   0.60053   0.94713   0.00000  Uiso   1.00
O1406  O     0.62525   0.57317   0.68933   0.00000  Uiso   1.00
O1407  O     0.63871   0.51260   0.73413   0.00000  Uiso   1.00
O1408  O     0.58829   0.57220   0.76548   0.00000  Uiso   1.00
O1409  O     0.37583   0.42636   0.97767   0.00000  Uiso   1.00
O1410  O     0.36099   0.48672   0.93253   0.00000  Uiso   1.00
O1411  O     0.41259   0.42762   0.90126   0.00000  Uiso   1.00
O1412  O     0.50000   0.43893   0.79510   0.00000  Uiso   1.00
O1413  O     0.50000   0.56107   0.87157   0.00000  Uiso   1.00
O1414  O     0.42392   0.50000   0.86261   0.00000  Uiso   1.00
O1415  O     0.57608   0.50000   0.80405   0.00000  Uiso   1.00
O1416  O     0.42392   0.50000   0.78617   0.00000  Uiso   1.00
O1417  O     0.57608   0.50000   0.88050   0.00000  Uiso   1.00
O1418  O     0.62252   0.41855   0.84470   0.00000  Uiso   1.00
S1419  S     0.65760   0.43412   0.81002   0.00000  Uiso   1.00
S1420  S     0.34253   0.56583   0.85661   0.00000  Uiso   1.00
S1421  S     0.47876   0.37090   0.73561   0.00000  Uiso   1.00
S1422  S     0.52783   0.62904   0.93031   0.00000  Uiso   1.00
S1423  S     0.59968   0.54392   0.72066   0.00000  Uiso   1.00
S1424  S     0.40053   0.45578   0.94601   0.00000  Uiso   1.00
Zn1425 Zn    0.50000   0.49999   0.88437   0.00000  Uiso   1.00
Zn1426 Zn    0.50000   0.50001   0.78229   0.00000  Uiso   1.00
C1427  C     0.83268   0.42005   0.83257   0.00000  Uiso   1.00
C1428  C     0.84336   0.35700   0.87241   0.00000  Uiso   1.00
C1429  C     0.83549   0.62427   0.83546   0.00000  Uiso   1.00
C1430  C     0.83325   0.37578   0.83114   0.00000  Uiso   1.00
C1431  C     0.87567   0.51752   0.69280   0.00000  Uiso   1.00
C1432  C     0.79098   0.48253   0.97385   0.00000  Uiso   1.00
C1433  C     0.87574   0.51550   0.97874   0.00000  Uiso   1.00
C1434  C     0.79080   0.48476   0.68789   0.00000  Uiso   1.00
C1435  C     0.83459   0.57995   0.83411   0.00000  Uiso   1.00
C1436  C     0.73447   0.49563   0.82295   0.00000  Uiso   1.00
C1437  C     0.93221   0.50430   0.84371   0.00000  Uiso   1.00
C1438  C     0.68016   0.48660   0.82229   0.00000  Uiso   1.00
C1439  C     0.98653   0.51337   0.84431   0.00000  Uiso   1.00
C1440  C     0.82495   0.35183   0.79086   0.00000  Uiso   1.00
C1441  C     0.84527   0.64824   0.87557   0.00000  Uiso   1.00
C1442  C     0.82550   0.64305   0.79422   0.00000  Uiso   1.00
F1443  F     0.91956   0.52775   0.95906   0.00000  Uiso   1.00
F1444  F     0.74670   0.47307   0.70747   0.00000  Uiso   1.00
H1445  H     0.81751   0.62450   0.76388   0.00000  Uiso   1.00
H1446  H     0.85054   0.37549   0.90286   0.00000  Uiso   1.00
H1447  H     0.69386   0.37556   0.80955   0.00000  Uiso   1.00
H1448  H     0.97364   0.62463   0.85791   0.00000  Uiso   1.00
H1449  H     0.72785   0.37579   0.72730   0.00000  Uiso   1.00
H1450  H     0.78188   0.62033   0.94975   0.00000  Uiso   1.00
H1451  H     0.91301   0.59966   0.75374   0.00000  Uiso   1.00
H1452  H     0.72313   0.40187   0.90201   0.00000  Uiso   1.00
N1453  N     0.83332   0.49999   0.95240   0.00000  Uiso   1.00
N1454  N     0.83335   0.50001   0.71427   0.00000  Uiso   1.00
O1455  O     0.83333   0.43892   0.87154   0.00000  Uiso   1.00
O1456  O     0.96092   0.43096   0.76462   0.00000  Uiso   1.00
O1457  O     0.70927   0.40435   0.81032   0.00000  Uiso   1.00
O1458  O     0.70453   0.56897   0.90256   0.00000  Uiso   1.00
O1459  O     0.71220   0.58113   0.82275   0.00000  Uiso   1.00
O1460  O     0.95783   0.59597   0.85492   0.00000  Uiso   1.00
O1461  O     0.85750   0.39890   0.72352   0.00000  Uiso   1.00
O1462  O     0.80413   0.33613   0.70153   0.00000  Uiso   1.00
O1463  O     0.75723   0.39707   0.73295   0.00000  Uiso   1.00
O1464  O     0.90756   0.60285   0.92984   0.00000  Uiso   1.00
O1465  O     0.87536   0.66378   0.96370   0.00000  Uiso   1.00
O1466  O     0.83334   0.56108   0.79513   0.00000  Uiso   1.00
O1467  O     0.80960   0.60053   0.94713   0.00000  Uiso   1.00
O1468  O     0.95859   0.57317   0.68933   0.00000  Uiso   1.00
O1469  O     0.97204   0.51260   0.73413   0.00000  Uiso   1.00
O1470  O     0.92162   0.57220   0.76548   0.00000  Uiso   1.00
O1471  O     0.70916   0.42636   0.97767   0.00000  Uiso   1.00
O1472  O     0.69433   0.48672   0.93253   0.00000  Uiso   1.00
O1473  O     0.74592   0.42762   0.90126   0.00000  Uiso   1.00
O1474  O     0.83333   0.43893   0.79510   0.00000  Uiso   1.00
O1475  O     0.83334   0.56107   0.87157   0.00000  Uiso   1.00
O1476  O     0.75725   0.50000   0.86261   0.00000  Uiso   1.00
O1477  O     0.90942   0.50000   0.80405   0.00000  Uiso   1.00
O1478  O     0.75725   0.50000   0.78617   0.00000  Uiso   1.00
O1479  O     0.90942   0.50000   0.88050   0.00000  Uiso   1.00
O1480  O     0.95586   0.41855   0.84470   0.00000  Uiso   1.00
S1481  S     0.99094   0.43412   0.81002   0.00000  Uiso   1.00
S1482  S     0.67587   0.56583   0.85661   0.00000  Uiso   1.00
S1483  S     0.81209   0.37090   0.73561   0.00000  Uiso   1.00
S1484  S     0.86117   0.62904   0.93031   0.00000  Uiso   1.00
S1485  S     0.93302   0.54392   0.72066   0.00000  Uiso   1.00
S1486  S     0.73386   0.45578   0.94601   0.00000  Uiso   1.00
Zn1487 Zn    0.83333   0.49999   0.88437   0.00000  Uiso   1.00
Zn1488 Zn    0.83333   0.50001   0.78229   0.00000  Uiso   1.00
C1489  C     0.16602   0.75338   0.83257   0.00000  Uiso   1.00
C1490  C     0.17669   0.69033   0.87241   0.00000  Uiso   1.00
C1491  C     0.16883   0.95760   0.83546   0.00000  Uiso   1.00
C1492  C     0.16659   0.70912   0.83114   0.00000  Uiso   1.00
C1493  C     0.20900   0.85086   0.69280   0.00000  Uiso   1.00
C1494  C     0.12431   0.81586   0.97385   0.00000  Uiso   1.00
C1495  C     0.20907   0.84884   0.97874   0.00000  Uiso   1.00
C1496  C     0.12413   0.81809   0.68789   0.00000  Uiso   1.00
C1497  C     0.16792   0.91328   0.83411   0.00000  Uiso   1.00
C1498  C     0.06781   0.82897   0.82295   0.00000  Uiso   1.00
C1499  C     0.26555   0.83763   0.84371   0.00000  Uiso   1.00
C1500  C     0.01349   0.81993   0.82229   0.00000  Uiso   1.00
C1501  C     0.31987   0.84670   0.84431   0.00000  Uiso   1.00
C1502  C     0.15828   0.68517   0.79086   0.00000  Uiso   1.00
C1503  C     0.17860   0.98158   0.87557   0.00000  Uiso   1.00
C1504  C     0.15883   0.97638   0.79422   0.00000  Uiso   1.00
F1505  F     0.25289   0.86109   0.95906   0.00000  Uiso   1.00
F1506  F     0.08003   0.80641   0.70747   0.00000  Uiso   1.00
H1507  H     0.15084   0.95783   0.76388   0.00000  Uiso   1.00
H1508  H     0.18388   0.70883   0.90286   0.00000  Uiso   1.00
H1509  H     0.02719   0.70889   0.80955   0.00000  Uiso   1.00
H1510  H     0.30697   0.95796   0.85791   0.00000  Uiso   1.00
H1511  H     0.06118   0.70912   0.72730   0.00000  Uiso   1.00
H1512  H     0.11521   0.95367   0.94975   0.00000  Uiso   1.00
H1513  H     0.24635   0.93299   0.75374   0.00000  Uiso   1.00
H1514  H     0.05647   0.73521   0.90201   0.00000  Uiso   1.00
N1515  N     0.16665   0.83332   0.95240   0.00000  Uiso   1.00
N1516  N     0.16668   0.83334   0.71427   0.00000  Uiso   1.00
O1517  O     0.16666   0.77225   0.87154   0.00000  Uiso   1.00
O1518  O     0.29425   0.76429   0.76462   0.00000  Uiso   1.00
O1519  O     0.04260   0.73769   0.81032   0.00000  Uiso   1.00
O1520  O     0.03787   0.90230   0.90256   0.00000  Uiso   1.00
O1521  O     0.04554   0.91446   0.82275   0.00000  Uiso   1.00
O1522  O     0.29116   0.92931   0.85492   0.00000  Uiso   1.00
O1523  O     0.19084   0.73224   0.72352   0.00000  Uiso   1.00
O1524  O     0.13747   0.66946   0.70153   0.00000  Uiso   1.00
O1525  O     0.09056   0.73040   0.73295   0.00000  Uiso   1.00
O1526  O     0.24090   0.93618   0.92984   0.00000  Uiso   1.00
O1527  O     0.20869   0.99712   0.96370   0.00000  Uiso   1.00
O1528  O     0.16667   0.89442   0.79513   0.00000  Uiso   1.00
O1529  O     0.14293   0.93386   0.94713   0.00000  Uiso   1.00
O1530  O     0.29192   0.90650   0.68933   0.00000  Uiso   1.00
O1531  O     0.30537   0.84594   0.73413   0.00000  Uiso   1.00
O1532  O     0.25496   0.90553   0.76548   0.00000  Uiso   1.00
O1533  O     0.04250   0.75969   0.97767   0.00000  Uiso   1.00
O1534  O     0.02766   0.82005   0.93253   0.00000  Uiso   1.00
O1535  O     0.07926   0.76095   0.90126   0.00000  Uiso   1.00
O1536  O     0.16666   0.77226   0.79510   0.00000  Uiso   1.00
O1537  O     0.16667   0.89441   0.87157   0.00000  Uiso   1.00
O1538  O     0.09058   0.83333   0.86261   0.00000  Uiso   1.00
O1539  O     0.24275   0.83334   0.80405   0.00000  Uiso   1.00
O1540  O     0.09058   0.83334   0.78617   0.00000  Uiso   1.00
O1541  O     0.24275   0.83333   0.88050   0.00000  Uiso   1.00
O1542  O     0.28919   0.75188   0.84470   0.00000  Uiso   1.00
S1543  S     0.32427   0.76746   0.81002   0.00000  Uiso   1.00
S1544  S     0.00920   0.89917   0.85661   0.00000  Uiso   1.00
S1545  S     0.14542   0.70423   0.73561   0.00000  Uiso   1.00
S1546  S     0.19450   0.96237   0.93031   0.00000  Uiso   1.00
S1547  S     0.26635   0.87726   0.72066   0.00000  Uiso   1.00
S1548  S     0.06720   0.78911   0.94601   0.00000  Uiso   1.00
Zn1549 Zn    0.16667   0.83333   0.88437   0.00000  Uiso   1.00
Zn1550 Zn    0.16667   0.83334   0.78229   0.00000  Uiso   1.00
C1551  C     0.49935   0.75338   0.83257   0.00000  Uiso   1.00
C1552  C     0.51002   0.69033   0.87241   0.00000  Uiso   1.00
C1553  C     0.50216   0.95760   0.83546   0.00000  Uiso   1.00
C1554  C     0.49992   0.70912   0.83114   0.00000  Uiso   1.00
C1555  C     0.54234   0.85086   0.69280   0.00000  Uiso   1.00
C1556  C     0.45765   0.81586   0.97385   0.00000  Uiso   1.00
C1557  C     0.54241   0.84884   0.97874   0.00000  Uiso   1.00
C1558  C     0.45746   0.81809   0.68789   0.00000  Uiso   1.00
C1559  C     0.50126   0.91328   0.83411   0.00000  Uiso   1.00
C1560  C     0.40114   0.82897   0.82295   0.00000  Uiso   1.00
C1561  C     0.59888   0.83763   0.84371   0.00000  Uiso   1.00
C1562  C     0.34683   0.81993   0.82229   0.00000  Uiso   1.00
C1563  C     0.65320   0.84670   0.84431   0.00000  Uiso   1.00
C1564  C     0.49162   0.68517   0.79086   0.00000  Uiso   1.00
C1565  C     0.51194   0.98158   0.87557   0.00000  Uiso   1.00
C1566  C     0.49216   0.97638   0.79422   0.00000  Uiso   1.00
F1567  F     0.58622   0.86109   0.95906   0.00000  Uiso   1.00
F1568  F     0.41337   0.80641   0.70747   0.00000  Uiso   1.00
H1569  H     0.48418   0.95783   0.76388   0.00000  Uiso   1.00
H1570  H     0.51721   0.70883   0.90286   0.00000  Uiso   1.00
H1571  H     0.36052   0.70889   0.80955   0.00000  Uiso   1.00
H1572  H     0.64031   0.95796   0.85791   0.00000  Uiso   1.00
H1573  H     0.39451   0.70912   0.72730   0.00000  Uiso   1.00
H1574  H     0.44854   0.95367   0.94975   0.00000  Uiso   1.00
H1575  H     0.57968   0.93299   0.75374   0.00000  Uiso   1.00
H1576  H     0.38980   0.73521   0.90201   0.00000  Uiso   1.00
N1577  N     0.49999   0.83332   0.95240   0.00000  Uiso   1.00
N1578  N     0.50001   0.83334   0.71427   0.00000  Uiso   1.00
O1579  O     0.50000   0.77225   0.87154   0.00000  Uiso   1.00
O1580  O     0.62758   0.76429   0.76462   0.00000  Uiso   1.00
O1581  O     0.37593   0.73769   0.81032   0.00000  Uiso   1.00
O1582  O     0.37120   0.90230   0.90256   0.00000  Uiso   1.00
O1583  O     0.37887   0.91446   0.82275   0.00000  Uiso   1.00
O1584  O     0.62450   0.92931   0.85492   0.00000  Uiso   1.00
O1585  O     0.52417   0.73224   0.72352   0.00000  Uiso   1.00
O1586  O     0.47080   0.66946   0.70153   0.00000  Uiso   1.00
O1587  O     0.42389   0.73040   0.73295   0.00000  Uiso   1.00
O1588  O     0.57423   0.93618   0.92984   0.00000  Uiso   1.00
O1589  O     0.54203   0.99712   0.96370   0.00000  Uiso   1.00
O1590  O     0.50000   0.89442   0.79513   0.00000  Uiso   1.00
O1591  O     0.47626   0.93386   0.94713   0.00000  Uiso   1.00
O1592  O     0.62525   0.90650   0.68933   0.00000  Uiso   1.00
O1593  O     0.63871   0.84594   0.73413   0.00000  Uiso   1.00
O1594  O     0.58829   0.90553   0.76548   0.00000  Uiso   1.00
O1595  O     0.37583   0.75969   0.97767   0.00000  Uiso   1.00
O1596  O     0.36099   0.82005   0.93253   0.00000  Uiso   1.00
O1597  O     0.41259   0.76095   0.90126   0.00000  Uiso   1.00
O1598  O     0.50000   0.77226   0.79510   0.00000  Uiso   1.00
O1599  O     0.50000   0.89441   0.87157   0.00000  Uiso   1.00
O1600  O     0.42392   0.83333   0.86261   0.00000  Uiso   1.00
O1601  O     0.57608   0.83334   0.80405   0.00000  Uiso   1.00
O1602  O     0.42392   0.83334   0.78617   0.00000  Uiso   1.00
O1603  O     0.57608   0.83333   0.88050   0.00000  Uiso   1.00
O1604  O     0.62252   0.75188   0.84470   0.00000  Uiso   1.00
S1605  S     0.65760   0.76746   0.81002   0.00000  Uiso   1.00
S1606  S     0.34253   0.89917   0.85661   0.00000  Uiso   1.00
S1607  S     0.47876   0.70423   0.73561   0.00000  Uiso   1.00
S1608  S     0.52783   0.96237   0.93031   0.00000  Uiso   1.00
S1609  S     0.59968   0.87726   0.72066   0.00000  Uiso   1.00
S1610  S     0.40053   0.78911   0.94601   0.00000  Uiso   1.00
Zn1611 Zn    0.50000   0.83333   0.88437   0.00000  Uiso   1.00
Zn1612 Zn    0.50000   0.83334   0.78229   0.00000  Uiso   1.00
C1613  C     0.83268   0.75338   0.83257   0.00000  Uiso   1.00
C1614  C     0.84336   0.69033   0.87241   0.00000  Uiso   1.00
C1615  C     0.83549   0.95760   0.83546   0.00000  Uiso   1.00
C1616  C     0.83325   0.70912   0.83114   0.00000  Uiso   1.00
C1617  C     0.87567   0.85086   0.69280   0.00000  Uiso   1.00
C1618  C     0.79098   0.81586   0.97385   0.00000  Uiso   1.00
C1619  C     0.87574   0.84884   0.97874   0.00000  Uiso   1.00
C1620  C     0.79080   0.81809   0.68789   0.00000  Uiso   1.00
C1621  C     0.83459   0.91328   0.83411   0.00000  Uiso   1.00
C1622  C     0.73447   0.82897   0.82295   0.00000  Uiso   1.00
C1623  C     0.93221   0.83763   0.84371   0.00000  Uiso   1.00
C1624  C     0.68016   0.81993   0.82229   0.00000  Uiso   1.00
C1625  C     0.98653   0.84670   0.84431   0.00000  Uiso   1.00
C1626  C     0.82495   0.68517   0.79086   0.00000  Uiso   1.00
C1627  C     0.84527   0.98158   0.87557   0.00000  Uiso   1.00
C1628  C     0.82550   0.97638   0.79422   0.00000  Uiso   1.00
F1629  F     0.91956   0.86109   0.95906   0.00000  Uiso   1.00
F1630  F     0.74670   0.80641   0.70747   0.00000  Uiso   1.00
H1631  H     0.81751   0.95783   0.76388   0.00000  Uiso   1.00
H1632  H     0.85054   0.70883   0.90286   0.00000  Uiso   1.00
H1633  H     0.69386   0.70889   0.80955   0.00000  Uiso   1.00
H1634  H     0.97364   0.95796   0.85791   0.00000  Uiso   1.00
H1635  H     0.72785   0.70912   0.72730   0.00000  Uiso   1.00
H1636  H     0.78188   0.95367   0.94975   0.00000  Uiso   1.00
H1637  H     0.91301   0.93299   0.75374   0.00000  Uiso   1.00
H1638  H     0.72313   0.73521   0.90201   0.00000  Uiso   1.00
N1639  N     0.83332   0.83332   0.95240   0.00000  Uiso   1.00
N1640  N     0.83335   0.83334   0.71427   0.00000  Uiso   1.00
O1641  O     0.83333   0.77225   0.87154   0.00000  Uiso   1.00
O1642  O     0.96092   0.76429   0.76462   0.00000  Uiso   1.00
O1643  O     0.70927   0.73769   0.81032   0.00000  Uiso   1.00
O1644  O     0.70453   0.90230   0.90256   0.00000  Uiso   1.00
O1645  O     0.71220   0.91446   0.82275   0.00000  Uiso   1.00
O1646  O     0.95783   0.92931   0.85492   0.00000  Uiso   1.00
O1647  O     0.85750   0.73224   0.72352   0.00000  Uiso   1.00
O1648  O     0.80413   0.66946   0.70153   0.00000  Uiso   1.00
O1649  O     0.75723   0.73040   0.73295   0.00000  Uiso   1.00
O1650  O     0.90756   0.93618   0.92984   0.00000  Uiso   1.00
O1651  O     0.87536   0.99712   0.96370   0.00000  Uiso   1.00
O1652  O     0.83334   0.89442   0.79513   0.00000  Uiso   1.00
O1653  O     0.80960   0.93386   0.94713   0.00000  Uiso   1.00
O1654  O     0.95859   0.90650   0.68933   0.00000  Uiso   1.00
O1655  O     0.97204   0.84594   0.73413   0.00000  Uiso   1.00
O1656  O     0.92162   0.90553   0.76548   0.00000  Uiso   1.00
O1657  O     0.70916   0.75969   0.97767   0.00000  Uiso   1.00
O1658  O     0.69433   0.82005   0.93253   0.00000  Uiso   1.00
O1659  O     0.74592   0.76095   0.90126   0.00000  Uiso   1.00
O1660  O     0.83333   0.77226   0.79510   0.00000  Uiso   1.00
O1661  O     0.83334   0.89441   0.87157   0.00000  Uiso   1.00
O1662  O     0.75725   0.83333   0.86261   0.00000  Uiso   1.00
O1663  O     0.90942   0.83334   0.80405   0.00000  Uiso   1.00
O1664  O     0.75725   0.83334   0.78617   0.00000  Uiso   1.00
O1665  O     0.90942   0.83333   0.88050   0.00000  Uiso   1.00
O1666  O     0.95586   0.75188   0.84470   0.00000  Uiso   1.00
S1667  S     0.99094   0.76746   0.81002   0.00000  Uiso   1.00
S1668  S     0.67587   0.89917   0.85661   0.00000  Uiso   1.00
S1669  S     0.81209   0.70423   0.73561   0.00000  Uiso   1.00
S1670  S     0.86117   0.96237   0.93031   0.00000  Uiso   1.00
S1671  S     0.93302   0.87726   0.72066   0.00000  Uiso   1.00
S1672  S     0.73386   0.78911   0.94601   0.00000  Uiso   1.00
Zn1673 Zn    0.83333   0.83333   0.88437   0.00000  Uiso   1.00
Zn1674 Zn    0.83333   0.83334   0.78229   0.00000  Uiso   1.00
loop_
_geom_bond_atom_site_label_1
_geom_bond_atom_site_label_2
_geom_bond_distance
_geom_bond_site_symmetry_2
_ccdc_geom_bond_type
C1     C4      1.436   .     S
C1     O29     1.310   .     A
C1     O48     1.287   .     A
C2     C4      1.396   .     A
C2     H20     1.081   .     S
C2     C387    1.372   1_545 S
C3     C9      1.435   .     S
C3     C15     1.419   .     A
C3     C16     1.395   .     A
C4     C14     1.420   .     A
C5     N28     1.401   .     A
C5     S59     1.787   .     S
C5     C1123   1.421   1_554 S
C6     N27     1.400   .     A
C6     S60     1.788   .     S
C6     C566    1.421   .     S
C7     N27     1.351   .     A
C7     F17     1.351   .     S
C7     C563    1.421   .     S
C8     N28     1.352   .     A
C8     F18     1.351   .     S
C8     C1122   1.421   1_554 S
C9     O40     1.309   .     A
C9     O49     1.288   .     A
C10    O52     1.296   .     A
C10    C12     1.399   .     S
C10    O50     1.279   .     A
C11    C13     1.399   .     S
C11    O53     1.296   .     A
C11    O51     1.279   .     A
C12    C137    1.340   1_455 S
C12    S179    1.787   1_455 S
C13    C74     1.340   .     S
C13    S118    1.787   .     S
C14    S57     1.785   .     S
C14    C388    1.371   1_545 S
C15    S58     1.784   .     S
C15    C188    1.372   .     S
C16    H19     1.081   .     S
C16    C200    1.371   .     S
H21    O31     0.991   .     S
H22    O34     0.991   .     S
H23    O37     0.991   .     S
H24    O41     0.990   .     S
H25    O44     0.991   .     S
H26    O47     0.990   .     S
N27    Zn61    2.039   .     S
N28    Zn62    2.039   .     S
O29    Zn61    2.012   .     S
O30    S55     1.502   .     D
O31    S179    1.679   1_455 S
O32    S56     1.502   .     D
O33    S56     1.503   .     D
O34    S118    1.678   .     S
O35    S57     1.503   .     D
O36    S57     1.504   .     D
O37    S57     1.676   .     S
O38    S58     1.498   .     D
O39    S58     1.504   .     D
O40    Zn62    2.012   .     S
O41    S58     1.681   .     S
O42    S59     1.505   .     D
O43    S59     1.499   .     D
O44    S59     1.672   .     S
O45    S60     1.505   .     D
O46    S60     1.499   .     D
O47    S60     1.673   .     S
O48    Zn62    2.022   .     S
O49    Zn61    2.022   .     S
O50    Zn61    1.994   .     S
O51    Zn62    1.994   .     S
O52    Zn62    1.956   .     S
O53    Zn61    1.956   .     S
O54    S55     1.503   .     D
S55    O93     1.679   .     S
S55    C74     1.787   .     S
S56    O158    1.678   1_455 S
S56    C137    1.787   1_455 S
C63    C66     1.436   .     S
C63    O91     1.310   .     A
C63    O110    1.287   .     A
C64    C66     1.396   .     A
C64    H82     1.081   .     S
C64    C449    1.372   1_545 S
C65    C71     1.435   .     S
C65    C77     1.419   .     A
C65    C78     1.395   .     A
C66    C76     1.420   .     A
C67    N90     1.401   .     A
C67    S121    1.787   .     S
C67    C1185   1.421   1_554 S
C68    N89     1.400   .     A
C68    S122    1.788   .     S
C68    C628    1.421   .     S
C69    N89     1.351   .     A
C69    F79     1.351   .     S
C69    C625    1.421   .     S
C70    N90     1.352   .     A
C70    F80     1.351   .     S
C70    C1184   1.421   1_554 S
C71    O102    1.309   .     A
C71    O111    1.288   .     A
C72    O114    1.296   .     A
C72    C74     1.399   .     S
C72    O112    1.279   .     A
C73    C75     1.399   .     S
C73    O115    1.296   .     A
C73    O113    1.279   .     A
C75    C136    1.340   .     S
C75    S180    1.787   .     S
C76    S119    1.785   .     S
C76    C450    1.371   1_545 S
C77    S120    1.784   .     S
C77    C250    1.372   .     S
C78    H81     1.081   .     S
C78    C262    1.371   .     S
H83    O93     0.991   .     S
H84    O96     0.991   .     S
H85    O99     0.991   .     S
H86    O103    0.990   .     S
H87    O106    0.991   .     S
H88    O109    0.990   .     S
N89    Zn123   2.039   .     S
N90    Zn124   2.039   .     S
O91    Zn123   2.012   .     S
O92    S117    1.502   .     D
O94    S118    1.502   .     D
O95    S118    1.503   .     D
O96    S180    1.678   .     S
O97    S119    1.503   .     D
O98    S119    1.504   .     D
O99    S119    1.676   .     S
O100   S120    1.498   .     D
O101   S120    1.504   .     D
O102   Zn124   2.012   .     S
O103   S120    1.681   .     S
O104   S121    1.505   .     D
O105   S121    1.499   .     D
O106   S121    1.672   .     S
O107   S122    1.505   .     D
O108   S122    1.499   .     D
O109   S122    1.673   .     S
O110   Zn124   2.022   .     S
O111   Zn123   2.022   .     S
O112   Zn123   1.994   .     S
O113   Zn124   1.994   .     S
O114   Zn124   1.956   .     S
O115   Zn123   1.956   .     S
O116   S117    1.503   .     D
S117   O155    1.679   .     S
S117   C136    1.787   .     S
C125   C128    1.436   .     S
C125   O153    1.310   .     A
C125   O172    1.287   .     A
C126   C128    1.396   .     A
C126   H144    1.081   .     S
C126   C511    1.372   1_545 S
C127   C133    1.435   .     S
C127   C139    1.419   .     A
C127   C140    1.395   .     A
C128   C138    1.420   .     A
C129   N152    1.401   .     A
C129   S183    1.787   .     S
C129   C1247   1.421   1_554 S
C130   N151    1.400   .     A
C130   S184    1.788   .     S
C130   C690    1.421   .     S
C131   N151    1.351   .     A
C131   F141    1.351   .     S
C131   C687    1.421   .     S
C132   N152    1.352   .     A
C132   F142    1.351   .     S
C132   C1246   1.421   1_554 S
C133   O164    1.309   .     A
C133   O173    1.288   .     A
C134   O176    1.296   .     A
C134   C136    1.399   .     S
C134   O174    1.279   .     A
C135   C137    1.399   .     S
C135   O177    1.296   .     A
C135   O175    1.279   .     A
C137   C12     1.340   1_655 S
C137   S56     1.787   1_655 S
C138   S181    1.785   .     S
C138   C512    1.371   1_545 S
C139   S182    1.784   .     S
C139   C312    1.372   .     S
C140   H143    1.081   .     S
C140   C324    1.371   .     S
H145   O155    0.991   .     S
H146   O158    0.991   .     S
H147   O161    0.991   .     S
H148   O165    0.990   .     S
H149   O168    0.991   .     S
H150   O171    0.990   .     S
N151   Zn185   2.039   .     S
N152   Zn186   2.039   .     S
O153   Zn185   2.012   .     S
O154   S179    1.502   .     D
O156   S180    1.502   .     D
O157   S180    1.503   .     D
O158   S56     1.678   1_655 S
O159   S181    1.503   .     D
O160   S181    1.504   .     D
O161   S181    1.676   .     S
O162   S182    1.498   .     D
O163   S182    1.504   .     D
O164   Zn186   2.012   .     S
O165   S182    1.681   .     S
O166   S183    1.505   .     D
O167   S183    1.499   .     D
O168   S183    1.672   .     S
O169   S184    1.505   .     D
O170   S184    1.499   .     D
O171   S184    1.673   .     S
O172   Zn186   2.022   .     S
O173   Zn185   2.022   .     S
O174   Zn185   1.994   .     S
O175   Zn186   1.994   .     S
O176   Zn186   1.956   .     S
O177   Zn185   1.956   .     S
O178   S179    1.503   .     D
S179   O31     1.679   1_655 S
S179   C12     1.787   1_655 S
C187   C190    1.436   .     S
C187   O215    1.310   .     A
C187   O234    1.287   .     A
C188   C190    1.396   .     A
C188   H206    1.081   .     S
C189   C195    1.435   .     S
C189   C201    1.419   .     A
C189   C202    1.395   .     A
C190   C200    1.420   .     A
C191   N214    1.401   .     A
C191   S245    1.787   .     S
C191   C1309   1.421   1_554 S
C192   N213    1.400   .     A
C192   S246    1.788   .     S
C192   C752    1.421   .     S
C193   N213    1.351   .     A
C193   F203    1.351   .     S
C193   C749    1.421   .     S
C194   N214    1.352   .     A
C194   F204    1.351   .     S
C194   C1308   1.421   1_554 S
C195   O226    1.309   .     A
C195   O235    1.288   .     A
C196   O238    1.296   .     A
C196   C198    1.399   .     S
C196   O236    1.279   .     A
C197   C199    1.399   .     S
C197   O239    1.296   .     A
C197   O237    1.279   .     A
C198   C323    1.340   1_455 S
C198   S365    1.787   1_455 S
C199   C260    1.340   .     S
C199   S304    1.787   .     S
C200   S243    1.785   .     S
C201   S244    1.784   .     S
C201   C374    1.372   .     S
C202   H205    1.081   .     S
C202   C386    1.371   .     S
H207   O217    0.991   .     S
H208   O220    0.991   .     S
H209   O223    0.991   .     S
H210   O227    0.990   .     S
H211   O230    0.991   .     S
H212   O233    0.990   .     S
N213   Zn247   2.039   .     S
N214   Zn248   2.039   .     S
O215   Zn247   2.012   .     S
O216   S241    1.502   .     D
O217   S365    1.679   1_455 S
O218   S242    1.502   .     D
O219   S242    1.503   .     D
O220   S304    1.678   .     S
O221   S243    1.503   .     D
O222   S243    1.504   .     D
O223   S243    1.676   .     S
O224   S244    1.498   .     D
O225   S244    1.504   .     D
O226   Zn248   2.012   .     S
O227   S244    1.681   .     S
O228   S245    1.505   .     D
O229   S245    1.499   .     D
O230   S245    1.672   .     S
O231   S246    1.505   .     D
O232   S246    1.499   .     D
O233   S246    1.673   .     S
O234   Zn248   2.022   .     S
O235   Zn247   2.022   .     S
O236   Zn247   1.994   .     S
O237   Zn248   1.994   .     S
O238   Zn248   1.956   .     S
O239   Zn247   1.956   .     S
O240   S241    1.503   .     D
S241   O279    1.679   .     S
S241   C260    1.787   .     S
S242   O344    1.678   1_455 S
S242   C323    1.787   1_455 S
C249   C252    1.436   .     S
C249   O277    1.310   .     A
C249   O296    1.287   .     A
C250   C252    1.396   .     A
C250   H268    1.081   .     S
C251   C257    1.435   .     S
C251   C263    1.419   .     A
C251   C264    1.395   .     A
C252   C262    1.420   .     A
C253   N276    1.401   .     A
C253   S307    1.787   .     S
C253   C1371   1.421   1_554 S
C254   N275    1.400   .     A
C254   S308    1.788   .     S
C254   C814    1.421   .     S
C255   N275    1.351   .     A
C255   F265    1.351   .     S
C255   C811    1.421   .     S
C256   N276    1.352   .     A
C256   F266    1.351   .     S
C256   C1370   1.421   1_554 S
C257   O288    1.309   .     A
C257   O297    1.288   .     A
C258   O300    1.296   .     A
C258   C260    1.399   .     S
C258   O298    1.279   .     A
C259   C261    1.399   .     S
C259   O301    1.296   .     A
C259   O299    1.279   .     A
C261   C322    1.340   .     S
C261   S366    1.787   .     S
C262   S305    1.785   .     S
C263   S306    1.784   .     S
C263   C436    1.372   .     S
C264   H267    1.081   .     S
C264   C448    1.371   .     S
H269   O279    0.991   .     S
H270   O282    0.991   .     S
H271   O285    0.991   .     S
H272   O289    0.990   .     S
H273   O292    0.991   .     S
H274   O295    0.990   .     S
N275   Zn309   2.039   .     S
N276   Zn310   2.039   .     S
O277   Zn309   2.012   .     S
O278   S303    1.502   .     D
O280   S304    1.502   .     D
O281   S304    1.503   .     D
O282   S366    1.678   .     S
O283   S305    1.503   .     D
O284   S305    1.504   .     D
O285   S305    1.676   .     S
O286   S306    1.498   .     D
O287   S306    1.504   .     D
O288   Zn310   2.012   .     S
O289   S306    1.681   .     S
O290   S307    1.505   .     D
O291   S307    1.499   .     D
O292   S307    1.672   .     S
O293   S308    1.505   .     D
O294   S308    1.499   .     D
O295   S308    1.673   .     S
O296   Zn310   2.022   .     S
O297   Zn309   2.022   .     S
O298   Zn309   1.994   .     S
O299   Zn310   1.994   .     S
O300   Zn310   1.956   .     S
O301   Zn309   1.956   .     S
O302   S303    1.503   .     D
S303   O341    1.679   .     S
S303   C322    1.787   .     S
C311   C314    1.436   .     S
C311   O339    1.310   .     A
C311   O358    1.287   .     A
C312   C314    1.396   .     A
C312   H330    1.081   .     S
C313   C319    1.435   .     S
C313   C325    1.419   .     A
C313   C326    1.395   .     A
C314   C324    1.420   .     A
C315   N338    1.401   .     A
C315   S369    1.787   .     S
C315   C1433   1.421   1_554 S
C316   N337    1.400   .     A
C316   S370    1.788   .     S
C316   C876    1.421   .     S
C317   N337    1.351   .     A
C317   F327    1.351   .     S
C317   C873    1.421   .     S
C318   N338    1.352   .     A
C318   F328    1.351   .     S
C318   C1432   1.421   1_554 S
C319   O350    1.309   .     A
C319   O359    1.288   .     A
C320   O362    1.296   .     A
C320   C322    1.399   .     S
C320   O360    1.279   .     A
C321   C323    1.399   .     S
C321   O363    1.296   .     A
C321   O361    1.279   .     A
C323   C198    1.340   1_655 S
C323   S242    1.787   1_655 S
C324   S367    1.785   .     S
C325   S368    1.784   .     S
C325   C498    1.372   .     S
C326   H329    1.081   .     S
C326   C510    1.371   .     S
H331   O341    0.991   .     S
H332   O344    0.991   .     S
H333   O347    0.991   .     S
H334   O351    0.990   .     S
H335   O354    0.991   .     S
H336   O357    0.990   .     S
N337   Zn371   2.039   .     S
N338   Zn372   2.039   .     S
O339   Zn371   2.012   .     S
O340   S365    1.502   .     D
O342   S366    1.502   .     D
O343   S366    1.503   .     D
O344   S242    1.678   1_655 S
O345   S367    1.503   .     D
O346   S367    1.504   .     D
O347   S367    1.676   .     S
O348   S368    1.498   .     D
O349   S368    1.504   .     D
O350   Zn372   2.012   .     S
O351   S368    1.681   .     S
O352   S369    1.505   .     D
O353   S369    1.499   .     D
O354   S369    1.672   .     S
O355   S370    1.505   .     D
O356   S370    1.499   .     D
O357   S370    1.673   .     S
O358   Zn372   2.022   .     S
O359   Zn371   2.022   .     S
O360   Zn371   1.994   .     S
O361   Zn372   1.994   .     S
O362   Zn372   1.956   .     S
O363   Zn371   1.956   .     S
O364   S365    1.503   .     D
S365   O217    1.679   1_655 S
S365   C198    1.787   1_655 S
C373   C376    1.436   .     S
C373   O401    1.310   .     A
C373   O420    1.287   .     A
C374   C376    1.396   .     A
C374   H392    1.081   .     S
C375   C381    1.435   .     S
C375   C387    1.419   .     A
C375   C388    1.395   .     A
C376   C386    1.420   .     A
C377   N400    1.401   .     A
C377   S431    1.787   .     S
C377   C1495   1.421   1_554 S
C378   N399    1.400   .     A
C378   S432    1.788   .     S
C378   C938    1.421   .     S
C379   N399    1.351   .     A
C379   F389    1.351   .     S
C379   C935    1.421   .     S
C380   N400    1.352   .     A
C380   F390    1.351   .     S
C380   C1494   1.421   1_554 S
C381   O412    1.309   .     A
C381   O421    1.288   .     A
C382   O424    1.296   .     A
C382   C384    1.399   .     S
C382   O422    1.279   .     A
C383   C385    1.399   .     S
C383   O425    1.296   .     A
C383   O423    1.279   .     A
C384   C509    1.340   1_455 S
C384   S551    1.787   1_455 S
C385   C446    1.340   .     S
C385   S490    1.787   .     S
C386   S429    1.785   .     S
C387   S430    1.784   .     S
C387   C2      1.372   1_565 S
C388   H391    1.081   .     S
C388   C14     1.371   1_565 S
H393   O403    0.991   .     S
H394   O406    0.991   .     S
H395   O409    0.991   .     S
H396   O413    0.990   .     S
H397   O416    0.991   .     S
H398   O419    0.990   .     S
N399   Zn433   2.039   .     S
N400   Zn434   2.039   .     S
O401   Zn433   2.012   .     S
O402   S427    1.502   .     D
O403   S551    1.679   1_455 S
O404   S428    1.502   .     D
O405   S428    1.503   .     D
O406   S490    1.678   .     S
O407   S429    1.503   .     D
O408   S429    1.504   .     D
O409   S429    1.676   .     S
O410   S430    1.498   .     D
O411   S430    1.504   .     D
O412   Zn434   2.012   .     S
O413   S430    1.681   .     S
O414   S431    1.505   .     D
O415   S431    1.499   .     D
O416   S431    1.672   .     S
O417   S432    1.505   .     D
O418   S432    1.499   .     D
O419   S432    1.673   .     S
O420   Zn434   2.022   .     S
O421   Zn433   2.022   .     S
O422   Zn433   1.994   .     S
O423   Zn434   1.994   .     S
O424   Zn434   1.956   .     S
O425   Zn433   1.956   .     S
O426   S427    1.503   .     D
S427   O465    1.679   .     S
S427   C446    1.787   .     S
S428   O530    1.678   1_455 S
S428   C509    1.787   1_455 S
C435   C438    1.436   .     S
C435   O463    1.310   .     A
C435   O482    1.287   .     A
C436   C438    1.396   .     A
C436   H454    1.081   .     S
C437   C443    1.435   .     S
C437   C449    1.419   .     A
C437   C450    1.395   .     A
C438   C448    1.420   .     A
C439   N462    1.401   .     A
C439   S493    1.787   .     S
C439   C1557   1.421   1_554 S
C440   N461    1.400   .     A
C440   S494    1.788   .     S
C440   C1000   1.421   .     S
C441   N461    1.351   .     A
C441   F451    1.351   .     S
C441   C997    1.421   .     S
C442   N462    1.352   .     A
C442   F452    1.351   .     S
C442   C1556   1.421   1_554 S
C443   O474    1.309   .     A
C443   O483    1.288   .     A
C444   O486    1.296   .     A
C444   C446    1.399   .     S
C444   O484    1.279   .     A
C445   C447    1.399   .     S
C445   O487    1.296   .     A
C445   O485    1.279   .     A
C447   C508    1.340   .     S
C447   S552    1.787   .     S
C448   S491    1.785   .     S
C449   S492    1.784   .     S
C449   C64     1.372   1_565 S
C450   H453    1.081   .     S
C450   C76     1.371   1_565 S
H455   O465    0.991   .     S
H456   O468    0.991   .     S
H457   O471    0.991   .     S
H458   O475    0.990   .     S
H459   O478    0.991   .     S
H460   O481    0.990   .     S
N461   Zn495   2.039   .     S
N462   Zn496   2.039   .     S
O463   Zn495   2.012   .     S
O464   S489    1.502   .     D
O466   S490    1.502   .     D
O467   S490    1.503   .     D
O468   S552    1.678   .     S
O469   S491    1.503   .     D
O470   S491    1.504   .     D
O471   S491    1.676   .     S
O472   S492    1.498   .     D
O473   S492    1.504   .     D
O474   Zn496   2.012   .     S
O475   S492    1.681   .     S
O476   S493    1.505   .     D
O477   S493    1.499   .     D
O478   S493    1.672   .     S
O479   S494    1.505   .     D
O480   S494    1.499   .     D
O481   S494    1.673   .     S
O482   Zn496   2.022   .     S
O483   Zn495   2.022   .     S
O484   Zn495   1.994   .     S
O485   Zn496   1.994   .     S
O486   Zn496   1.956   .     S
O487   Zn495   1.956   .     S
O488   S489    1.503   .     D
S489   O527    1.679   .     S
S489   C508    1.787   .     S
C497   C500    1.436   .     S
C497   O525    1.310   .     A
C497   O544    1.287   .     A
C498   C500    1.396   .     A
C498   H516    1.081   .     S
C499   C505    1.435   .     S
C499   C511    1.419   .     A
C499   C512    1.395   .     A
C500   C510    1.420   .     A
C501   N524    1.401   .     A
C501   S555    1.787   .     S
C501   C1619   1.421   1_554 S
C502   N523    1.400   .     A
C502   S556    1.788   .     S
C502   C1062   1.421   .     S
C503   N523    1.351   .     A
C503   F513    1.351   .     S
C503   C1059   1.421   .     S
C504   N524    1.352   .     A
C504   F514    1.351   .     S
C504   C1618   1.421   1_554 S
C505   O536    1.309   .     A
C505   O545    1.288   .     A
C506   O548    1.296   .     A
C506   C508    1.399   .     S
C506   O546    1.279   .     A
C507   C509    1.399   .     S
C507   O549    1.296   .     A
C507   O547    1.279   .     A
C509   C384    1.340   1_655 S
C509   S428    1.787   1_655 S
C510   S553    1.785   .     S
C511   S554    1.784   .     S
C511   C126    1.372   1_565 S
C512   H515    1.081   .     S
C512   C138    1.371   1_565 S
H517   O527    0.991   .     S
H518   O530    0.991   .     S
H519   O533    0.991   .     S
H520   O537    0.990   .     S
H521   O540    0.991   .     S
H522   O543    0.990   .     S
N523   Zn557   2.039   .     S
N524   Zn558   2.039   .     S
O525   Zn557   2.012   .     S
O526   S551    1.502   .     D
O528   S552    1.502   .     D
O529   S552    1.503   .     D
O530   S428    1.678   1_655 S
O531   S553    1.503   .     D
O532   S553    1.504   .     D
O533   S553    1.676   .     S
O534   S554    1.498   .     D
O535   S554    1.504   .     D
O536   Zn558   2.012   .     S
O537   S554    1.681   .     S
O538   S555    1.505   .     D
O539   S555    1.499   .     D
O540   S555    1.672   .     S
O541   S556    1.505   .     D
O542   S556    1.499   .     D
O543   S556    1.673   .     S
O544   Zn558   2.022   .     S
O545   Zn557   2.022   .     S
O546   Zn557   1.994   .     S
O547   Zn558   1.994   .     S
O548   Zn558   1.956   .     S
O549   Zn557   1.956   .     S
O550   S551    1.503   .     D
S551   O403    1.679   1_655 S
S551   C384    1.787   1_655 S
C559   C562    1.436   .     S
C559   O587    1.310   .     A
C559   O606    1.287   .     A
C560   C562    1.396   .     A
C560   H578    1.081   .     S
C560   C945    1.372   1_545 S
C561   C567    1.435   .     S
C561   C573    1.419   .     A
C561   C574    1.395   .     A
C562   C572    1.420   .     A
C563   N586    1.401   .     A
C563   S617    1.787   .     S
C564   N585    1.400   .     A
C564   S618    1.788   .     S
C564   C1124   1.421   .     S
C565   N585    1.351   .     A
C565   F575    1.351   .     S
C565   C1121   1.421   .     S
C566   N586    1.352   .     A
C566   F576    1.351   .     S
C567   O598    1.309   .     A
C567   O607    1.288   .     A
C568   O610    1.296   .     A
C568   C570    1.399   .     S
C568   O608    1.279   .     A
C569   C571    1.399   .     S
C569   O611    1.296   .     A
C569   O609    1.279   .     A
C570   C695    1.340   1_455 S
C570   S737    1.787   1_455 S
C571   C632    1.340   .     S
C571   S676    1.787   .     S
C572   S615    1.785   .     S
C572   C946    1.371   1_545 S
C573   S616    1.784   .     S
C573   C746    1.372   .     S
C574   H577    1.081   .     S
C574   C758    1.371   .     S
H579   O589    0.991   .     S
H580   O592    0.991   .     S
H581   O595    0.991   .     S
H582   O599    0.990   .     S
H583   O602    0.991   .     S
H584   O605    0.990   .     S
N585   Zn619   2.039   .     S
N586   Zn620   2.039   .     S
O587   Zn619   2.012   .     S
O588   S613    1.502   .     D
O589   S737    1.679   1_455 S
O590   S614    1.502   .     D
O591   S614    1.503   .     D
O592   S676    1.678   .     S
O593   S615    1.503   .     D
O594   S615    1.504   .     D
O595   S615    1.676   .     S
O596   S616    1.498   .     D
O597   S616    1.504   .     D
O598   Zn620   2.012   .     S
O599   S616    1.681   .     S
O600   S617    1.505   .     D
O601   S617    1.499   .     D
O602   S617    1.672   .     S
O603   S618    1.505   .     D
O604   S618    1.499   .     D
O605   S618    1.673   .     S
O606   Zn620   2.022   .     S
O607   Zn619   2.022   .     S
O608   Zn619   1.994   .     S
O609   Zn620   1.994   .     S
O610   Zn620   1.956   .     S
O611   Zn619   1.956   .     S
O612   S613    1.503   .     D
S613   O651    1.679   .     S
S613   C632    1.787   .     S
S614   O716    1.678   1_455 S
S614   C695    1.787   1_455 S
C621   C624    1.436   .     S
C621   O649    1.310   .     A
C621   O668    1.287   .     A
C622   C624    1.396   .     A
C622   H640    1.081   .     S
C622   C1007   1.372   1_545 S
C623   C629    1.435   .     S
C623   C635    1.419   .     A
C623   C636    1.395   .     A
C624   C634    1.420   .     A
C625   N648    1.401   .     A
C625   S679    1.787   .     S
C626   N647    1.400   .     A
C626   S680    1.788   .     S
C626   C1186   1.421   .     S
C627   N647    1.351   .     A
C627   F637    1.351   .     S
C627   C1183   1.421   .     S
C628   N648    1.352   .     A
C628   F638    1.351   .     S
C629   O660    1.309   .     A
C629   O669    1.288   .     A
C630   O672    1.296   .     A
C630   C632    1.399   .     S
C630   O670    1.279   .     A
C631   C633    1.399   .     S
C631   O673    1.296   .     A
C631   O671    1.279   .     A
C633   C694    1.340   .     S
C633   S738    1.787   .     S
C634   S677    1.785   .     S
C634   C1008   1.371   1_545 S
C635   S678    1.784   .     S
C635   C808    1.372   .     S
C636   H639    1.081   .     S
C636   C820    1.371   .     S
H641   O651    0.991   .     S
H642   O654    0.991   .     S
H643   O657    0.991   .     S
H644   O661    0.990   .     S
H645   O664    0.991   .     S
H646   O667    0.990   .     S
N647   Zn681   2.039   .     S
N648   Zn682   2.039   .     S
O649   Zn681   2.012   .     S
O650   S675    1.502   .     D
O652   S676    1.502   .     D
O653   S676    1.503   .     D
O654   S738    1.678   .     S
O655   S677    1.503   .     D
O656   S677    1.504   .     D
O657   S677    1.676   .     S
O658   S678    1.498   .     D
O659   S678    1.504   .     D
O660   Zn682   2.012   .     S
O661   S678    1.681   .     S
O662   S679    1.505   .     D
O663   S679    1.499   .     D
O664   S679    1.672   .     S
O665   S680    1.505   .     D
O666   S680    1.499   .     D
O667   S680    1.673   .     S
O668   Zn682   2.022   .     S
O669   Zn681   2.022   .     S
O670   Zn681   1.994   .     S
O671   Zn682   1.994   .     S
O672   Zn682   1.956   .     S
O673   Zn681   1.956   .     S
O674   S675    1.503   .     D
S675   O713    1.679   .     S
S675   C694    1.787   .     S
C683   C686    1.436   .     S
C683   O711    1.310   .     A
C683   O730    1.287   .     A
C684   C686    1.396   .     A
C684   H702    1.081   .     S
C684   C1069   1.372   1_545 S
C685   C691    1.435   .     S
C685   C697    1.419   .     A
C685   C698    1.395   .     A
C686   C696    1.420   .     A
C687   N710    1.401   .     A
C687   S741    1.787   .     S
C688   N709    1.400   .     A
C688   S742    1.788   .     S
C688   C1248   1.421   .     S
C689   N709    1.351   .     A
C689   F699    1.351   .     S
C689   C1245   1.421   .     S
C690   N710    1.352   .     A
C690   F700    1.351   .     S
C691   O722    1.309   .     A
C691   O731    1.288   .     A
C692   O734    1.296   .     A
C692   C694    1.399   .     S
C692   O732    1.279   .     A
C693   C695    1.399   .     S
C693   O735    1.296   .     A
C693   O733    1.279   .     A
C695   C570    1.340   1_655 S
C695   S614    1.787   1_655 S
C696   S739    1.785   .     S
C696   C1070   1.371   1_545 S
C697   S740    1.784   .     S
C697   C870    1.372   .     S
C698   H701    1.081   .     S
C698   C882    1.371   .     S
H703   O713    0.991   .     S
H704   O716    0.991   .     S
H705   O719    0.991   .     S
H706   O723    0.990   .     S
H707   O726    0.991   .     S
H708   O729    0.990   .     S
N709   Zn743   2.039   .     S
N710   Zn744   2.039   .     S
O711   Zn743   2.012   .     S
O712   S737    1.502   .     D
O714   S738    1.502   .     D
O715   S738    1.503   .     D
O716   S614    1.678   1_655 S
O717   S739    1.503   .     D
O718   S739    1.504   .     D
O719   S739    1.676   .     S
O720   S740    1.498   .     D
O721   S740    1.504   .     D
O722   Zn744   2.012   .     S
O723   S740    1.681   .     S
O724   S741    1.505   .     D
O725   S741    1.499   .     D
O726   S741    1.672   .     S
O727   S742    1.505   .     D
O728   S742    1.499   .     D
O729   S742    1.673   .     S
O730   Zn744   2.022   .     S
O731   Zn743   2.022   .     S
O732   Zn743   1.994   .     S
O733   Zn744   1.994   .     S
O734   Zn744   1.956   .     S
O735   Zn743   1.956   .     S
O736   S737    1.503   .     D
S737   O589    1.679   1_655 S
S737   C570    1.787   1_655 S
C745   C748    1.436   .     S
C745   O773    1.310   .     A
C745   O792    1.287   .     A
C746   C748    1.396   .     A
C746   H764    1.081   .     S
C747   C753    1.435   .     S
C747   C759    1.419   .     A
C747   C760    1.395   .     A
C748   C758    1.420   .     A
C749   N772    1.401   .     A
C749   S803    1.787   .     S
C750   N771    1.400   .     A
C750   S804    1.788   .     S
C750   C1310   1.421   .     S
C751   N771    1.351   .     A
C751   F761    1.351   .     S
C751   C1307   1.421   .     S
C752   N772    1.352   .     A
C752   F762    1.351   .     S
C753   O784    1.309   .     A
C753   O793    1.288   .     A
C754   O796    1.296   .     A
C754   C756    1.399   .     S
C754   O794    1.279   .     A
C755   C757    1.399   .     S
C755   O797    1.296   .     A
C755   O795    1.279   .     A
C756   C881    1.340   1_455 S
C756   S923    1.787   1_455 S
C757   C818    1.340   .     S
C757   S862    1.787   .     S
C758   S801    1.785   .     S
C759   S802    1.784   .     S
C759   C932    1.372   .     S
C760   H763    1.081   .     S
C760   C944    1.371   .     S
H765   O775    0.991   .     S
H766   O778    0.991   .     S
H767   O781    0.991   .     S
H768   O785    0.990   .     S
H769   O788    0.991   .     S
H770   O791    0.990   .     S
N771   Zn805   2.039   .     S
N772   Zn806   2.039   .     S
O773   Zn805   2.012   .     S
O774   S799    1.502   .     D
O775   S923    1.679   1_455 S
O776   S800    1.502   .     D
O777   S800    1.503   .     D
O778   S862    1.678   .     S
O779   S801    1.503   .     D
O780   S801    1.504   .     D
O781   S801    1.676   .     S
O782   S802    1.498   .     D
O783   S802    1.504   .     D
O784   Zn806   2.012   .     S
O785   S802    1.681   .     S
O786   S803    1.505   .     D
O787   S803    1.499   .     D
O788   S803    1.672   .     S
O789   S804    1.505   .     D
O790   S804    1.499   .     D
O791   S804    1.673   .     S
O792   Zn806   2.022   .     S
O793   Zn805   2.022   .     S
O794   Zn805   1.994   .     S
O795   Zn806   1.994   .     S
O796   Zn806   1.956   .     S
O797   Zn805   1.956   .     S
O798   S799    1.503   .     D
S799   O837    1.679   .     S
S799   C818    1.787   .     S
S800   O902    1.678   1_455 S
S800   C881    1.787   1_455 S
C807   C810    1.436   .     S
C807   O835    1.310   .     A
C807   O854    1.287   .     A
C808   C810    1.396   .     A
C808   H826    1.081   .     S
C809   C815    1.435   .     S
C809   C821    1.419   .     A
C809   C822    1.395   .     A
C810   C820    1.420   .     A
C811   N834    1.401   .     A
C811   S865    1.787   .     S
C812   N833    1.400   .     A
C812   S866    1.788   .     S
C812   C1372   1.421   .     S
C813   N833    1.351   .     A
C813   F823    1.351   .     S
C813   C1369   1.421   .     S
C814   N834    1.352   .     A
C814   F824    1.351   .     S
C815   O846    1.309   .     A
C815   O855    1.288   .     A
C816   O858    1.296   .     A
C816   C818    1.399   .     S
C816   O856    1.279   .     A
C817   C819    1.399   .     S
C817   O859    1.296   .     A
C817   O857    1.279   .     A
C819   C880    1.340   .     S
C819   S924    1.787   .     S
C820   S863    1.785   .     S
C821   S864    1.784   .     S
C821   C994    1.372   .     S
C822   H825    1.081   .     S
C822   C1006   1.371   .     S
H827   O837    0.991   .     S
H828   O840    0.991   .     S
H829   O843    0.991   .     S
H830   O847    0.990   .     S
H831   O850    0.991   .     S
H832   O853    0.990   .     S
N833   Zn867   2.039   .     S
N834   Zn868   2.039   .     S
O835   Zn867   2.012   .     S
O836   S861    1.502   .     D
O838   S862    1.502   .     D
O839   S862    1.503   .     D
O840   S924    1.678   .     S
O841   S863    1.503   .     D
O842   S863    1.504   .     D
O843   S863    1.676   .     S
O844   S864    1.498   .     D
O845   S864    1.504   .     D
O846   Zn868   2.012   .     S
O847   S864    1.681   .     S
O848   S865    1.505   .     D
O849   S865    1.499   .     D
O850   S865    1.672   .     S
O851   S866    1.505   .     D
O852   S866    1.499   .     D
O853   S866    1.673   .     S
O854   Zn868   2.022   .     S
O855   Zn867   2.022   .     S
O856   Zn867   1.994   .     S
O857   Zn868   1.994   .     S
O858   Zn868   1.956   .     S
O859   Zn867   1.956   .     S
O860   S861    1.503   .     D
S861   O899    1.679   .     S
S861   C880    1.787   .     S
C869   C872    1.436   .     S
C869   O897    1.310   .     A
C869   O916    1.287   .     A
C870   C872    1.396   .     A
C870   H888    1.081   .     S
C871   C877    1.435   .     S
C871   C883    1.419   .     A
C871   C884    1.395   .     A
C872   C882    1.420   .     A
C873   N896    1.401   .     A
C873   S927    1.787   .     S
C874   N895    1.400   .     A
C874   S928    1.788   .     S
C874   C1434   1.421   .     S
C875   N895    1.351   .     A
C875   F885    1.351   .     S
C875   C1431   1.421   .     S
C876   N896    1.352   .     A
C876   F886    1.351   .     S
C877   O908    1.309   .     A
C877   O917    1.288   .     A
C878   O920    1.296   .     A
C878   C880    1.399   .     S
C878   O918    1.279   .     A
C879   C881    1.399   .     S
C879   O921    1.296   .     A
C879   O919    1.279   .     A
C881   C756    1.340   1_655 S
C881   S800    1.787   1_655 S
C882   S925    1.785   .     S
C883   S926    1.784   .     S
C883   C1056   1.372   .     S
C884   H887    1.081   .     S
C884   C1068   1.371   .     S
H889   O899    0.991   .     S
H890   O902    0.991   .     S
H891   O905    0.991   .     S
H892   O909    0.990   .     S
H893   O912    0.991   .     S
H894   O915    0.990   .     S
N895   Zn929   2.039   .     S
N896   Zn930   2.039   .     S
O897   Zn929   2.012   .     S
O898   S923    1.502   .     D
O900   S924    1.502   .     D
O901   S924    1.503   .     D
O902   S800    1.678   1_655 S
O903   S925    1.503   .     D
O904   S925    1.504   .     D
O905   S925    1.676   .     S
O906   S926    1.498   .     D
O907   S926    1.504   .     D
O908   Zn930   2.012   .     S
O909   S926    1.681   .     S
O910   S927    1.505   .     D
O911   S927    1.499   .     D
O912   S927    1.672   .     S
O913   S928    1.505   .     D
O914   S928    1.499   .     D
O915   S928    1.673   .     S
O916   Zn930   2.022   .     S
O917   Zn929   2.022   .     S
O918   Zn929   1.994   .     S
O919   Zn930   1.994   .     S
O920   Zn930   1.956   .     S
O921   Zn929   1.956   .     S
O922   S923    1.503   .     D
S923   O775    1.679   1_655 S
S923   C756    1.787   1_655 S
C931   C934    1.436   .     S
C931   O959    1.310   .     A
C931   O978    1.287   .     A
C932   C934    1.396   .     A
C932   H950    1.081   .     S
C933   C939    1.435   .     S
C933   C945    1.419   .     A
C933   C946    1.395   .     A
C934   C944    1.420   .     A
C935   N958    1.401   .     A
C935   S989    1.787   .     S
C936   N957    1.400   .     A
C936   S990    1.788   .     S
C936   C1496   1.421   .     S
C937   N957    1.351   .     A
C937   F947    1.351   .     S
C937   C1493   1.421   .     S
C938   N958    1.352   .     A
C938   F948    1.351   .     S
C939   O970    1.309   .     A
C939   O979    1.288   .     A
C940   O982    1.296   .     A
C940   C942    1.399   .     S
C940   O980    1.279   .     A
C941   C943    1.399   .     S
C941   O983    1.296   .     A
C941   O981    1.279   .     A
C942   C1067   1.340   1_455 S
C942   S1109   1.787   1_455 S
C943   C1004   1.340   .     S
C943   S1048   1.787   .     S
C944   S987    1.785   .     S
C945   S988    1.784   .     S
C945   C560    1.372   1_565 S
C946   H949    1.081   .     S
C946   C572    1.371   1_565 S
H951   O961    0.991   .     S
H952   O964    0.991   .     S
H953   O967    0.991   .     S
H954   O971    0.990   .     S
H955   O974    0.991   .     S
H956   O977    0.990   .     S
N957   Zn991   2.039   .     S
N958   Zn992   2.039   .     S
O959   Zn991   2.012   .     S
O960   S985    1.502   .     D
O961   S1109   1.679   1_455 S
O962   S986    1.502   .     D
O963   S986    1.503   .     D
O964   S1048   1.678   .     S
O965   S987    1.503   .     D
O966   S987    1.504   .     D
O967   S987    1.676   .     S
O968   S988    1.498   .     D
O969   S988    1.504   .     D
O970   Zn992   2.012   .     S
O971   S988    1.681   .     S
O972   S989    1.505   .     D
O973   S989    1.499   .     D
O974   S989    1.672   .     S
O975   S990    1.505   .     D
O976   S990    1.499   .     D
O977   S990    1.673   .     S
O978   Zn992   2.022   .     S
O979   Zn991   2.022   .     S
O980   Zn991   1.994   .     S
O981   Zn992   1.994   .     S
O982   Zn992   1.956   .     S
O983   Zn991   1.956   .     S
O984   S985    1.503   .     D
S985   O1023   1.679   .     S
S985   C1004   1.787   .     S
S986   O1088   1.678   1_455 S
S986   C1067   1.787   1_455 S
C993   C996    1.436   .     S
C993   O1021   1.310   .     A
C993   O1040   1.287   .     A
C994   C996    1.396   .     A
C994   H1012   1.081   .     S
C995   C1001   1.435   .     S
C995   C1007   1.419   .     A
C995   C1008   1.395   .     A
C996   C1006   1.420   .     A
C997   N1020   1.401   .     A
C997   S1051   1.787   .     S
C998   N1019   1.400   .     A
C998   S1052   1.788   .     S
C998   C1558   1.421   .     S
C999   N1019   1.351   .     A
C999   F1009   1.351   .     S
C999   C1555   1.421   .     S
C1000  N1020   1.352   .     A
C1000  F1010   1.351   .     S
C1001  O1032   1.309   .     A
C1001  O1041   1.288   .     A
C1002  O1044   1.296   .     A
C1002  C1004   1.399   .     S
C1002  O1042   1.279   .     A
C1003  C1005   1.399   .     S
C1003  O1045   1.296   .     A
C1003  O1043   1.279   .     A
C1005  C1066   1.340   .     S
C1005  S1110   1.787   .     S
C1006  S1049   1.785   .     S
C1007  S1050   1.784   .     S
C1007  C622    1.372   1_565 S
C1008  H1011   1.081   .     S
C1008  C634    1.371   1_565 S
H1013  O1023   0.991   .     S
H1014  O1026   0.991   .     S
H1015  O1029   0.991   .     S
H1016  O1033   0.990   .     S
H1017  O1036   0.991   .     S
H1018  O1039   0.990   .     S
N1019  Zn1053  2.039   .     S
N1020  Zn1054  2.039   .     S
O1021  Zn1053  2.012   .     S
O1022  S1047   1.502   .     D
O1024  S1048   1.502   .     D
O1025  S1048   1.503   .     D
O1026  S1110   1.678   .     S
O1027  S1049   1.503   .     D
O1028  S1049   1.504   .     D
O1029  S1049   1.676   .     S
O1030  S1050   1.498   .     D
O1031  S1050   1.504   .     D
O1032  Zn1054  2.012   .     S
O1033  S1050   1.681   .     S
O1034  S1051   1.505   .     D
O1035  S1051   1.499   .     D
O1036  S1051   1.672   .     S
O1037  S1052   1.505   .     D
O1038  S1052   1.499   .     D
O1039  S1052   1.673   .     S
O1040  Zn1054  2.022   .     S
O1041  Zn1053  2.022   .     S
O1042  Zn1053  1.994   .     S
O1043  Zn1054  1.994   .     S
O1044  Zn1054  1.956   .     S
O1045  Zn1053  1.956   .     S
O1046  S1047   1.503   .     D
S1047  O1085   1.679   .     S
S1047  C1066   1.787   .     S
C1055  C1058   1.436   .     S
C1055  O1083   1.310   .     A
C1055  O1102   1.287   .     A
C1056  C1058   1.396   .     A
C1056  H1074   1.081   .     S
C1057  C1063   1.435   .     S
C1057  C1069   1.419   .     A
C1057  C1070   1.395   .     A
C1058  C1068   1.420   .     A
C1059  N1082   1.401   .     A
C1059  S1113   1.787   .     S
C1060  N1081   1.400   .     A
C1060  S1114   1.788   .     S
C1060  C1620   1.421   .     S
C1061  N1081   1.351   .     A
C1061  F1071   1.351   .     S
C1061  C1617   1.421   .     S
C1062  N1082   1.352   .     A
C1062  F1072   1.351   .     S
C1063  O1094   1.309   .     A
C1063  O1103   1.288   .     A
C1064  O1106   1.296   .     A
C1064  C1066   1.399   .     S
C1064  O1104   1.279   .     A
C1065  C1067   1.399   .     S
C1065  O1107   1.296   .     A
C1065  O1105   1.279   .     A
C1067  C942    1.340   1_655 S
C1067  S986    1.787   1_655 S
C1068  S1111   1.785   .     S
C1069  S1112   1.784   .     S
C1069  C684    1.372   1_565 S
C1070  H1073   1.081   .     S
C1070  C696    1.371   1_565 S
H1075  O1085   0.991   .     S
H1076  O1088   0.991   .     S
H1077  O1091   0.991   .     S
H1078  O1095   0.990   .     S
H1079  O1098   0.991   .     S
H1080  O1101   0.990   .     S
N1081  Zn1115  2.039   .     S
N1082  Zn1116  2.039   .     S
O1083  Zn1115  2.012   .     S
O1084  S1109   1.502   .     D
O1086  S1110   1.502   .     D
O1087  S1110   1.503   .     D
O1088  S986    1.678   1_655 S
O1089  S1111   1.503   .     D
O1090  S1111   1.504   .     D
O1091  S1111   1.676   .     S
O1092  S1112   1.498   .     D
O1093  S1112   1.504   .     D
O1094  Zn1116  2.012   .     S
O1095  S1112   1.681   .     S
O1096  S1113   1.505   .     D
O1097  S1113   1.499   .     D
O1098  S1113   1.672   .     S
O1099  S1114   1.505   .     D
O1100  S1114   1.499   .     D
O1101  S1114   1.673   .     S
O1102  Zn1116  2.022   .     S
O1103  Zn1115  2.022   .     S
O1104  Zn1115  1.994   .     S
O1105  Zn1116  1.994   .     S
O1106  Zn1116  1.956   .     S
O1107  Zn1115  1.956   .     S
O1108  S1109   1.503   .     D
S1109  O961    1.679   1_655 S
S1109  C942    1.787   1_655 S
C1117  C1120   1.436   .     S
C1117  O1145   1.310   .     A
C1117  O1164   1.287   .     A
C1118  C1120   1.396   .     A
C1118  H1136   1.081   .     S
C1118  C1503   1.372   1_545 S
C1119  C1125   1.435   .     S
C1119  C1131   1.419   .     A
C1119  C1132   1.395   .     A
C1120  C1130   1.420   .     A
C1121  N1144   1.401   .     A
C1121  S1175   1.787   .     S
C1122  N1143   1.400   .     A
C1122  S1176   1.788   .     S
C1122  C8      1.421   1_556 S
C1123  N1143   1.351   .     A
C1123  F1133   1.351   .     S
C1123  C5      1.421   1_556 S
C1124  N1144   1.352   .     A
C1124  F1134   1.351   .     S
C1125  O1156   1.309   .     A
C1125  O1165   1.288   .     A
C1126  O1168   1.296   .     A
C1126  C1128   1.399   .     S
C1126  O1166   1.279   .     A
C1127  C1129   1.399   .     S
C1127  O1169   1.296   .     A
C1127  O1167   1.279   .     A
C1128  C1253   1.340   1_455 S
C1128  S1295   1.787   1_455 S
C1129  C1190   1.340   .     S
C1129  S1234   1.787   .     S
C1130  S1173   1.785   .     S
C1130  C1504   1.371   1_545 S
C1131  S1174   1.784   .     S
C1131  C1304   1.372   .     S
C1132  H1135   1.081   .     S
C1132  C1316   1.371   .     S
H1137  O1147   0.991   .     S
H1138  O1150   0.991   .     S
H1139  O1153   0.991   .     S
H1140  O1157   0.990   .     S
H1141  O1160   0.991   .     S
H1142  O1163   0.990   .     S
N1143  Zn1177  2.039   .     S
N1144  Zn1178  2.039   .     S
O1145  Zn1177  2.012   .     S
O1146  S1171   1.502   .     D
O1147  S1295   1.679   1_455 S
O1148  S1172   1.502   .     D
O1149  S1172   1.503   .     D
O1150  S1234   1.678   .     S
O1151  S1173   1.503   .     D
O1152  S1173   1.504   .     D
O1153  S1173   1.676   .     S
O1154  S1174   1.498   .     D
O1155  S1174   1.504   .     D
O1156  Zn1178  2.012   .     S
O1157  S1174   1.681   .     S
O1158  S1175   1.505   .     D
O1159  S1175   1.499   .     D
O1160  S1175   1.672   .     S
O1161  S1176   1.505   .     D
O1162  S1176   1.499   .     D
O1163  S1176   1.673   .     S
O1164  Zn1178  2.022   .     S
O1165  Zn1177  2.022   .     S
O1166  Zn1177  1.994   .     S
O1167  Zn1178  1.994   .     S
O1168  Zn1178  1.956   .     S
O1169  Zn1177  1.956   .     S
O1170  S1171   1.503   .     D
S1171  O1209   1.679   .     S
S1171  C1190   1.787   .     S
S1172  O1274   1.678   1_455 S
S1172  C1253   1.787   1_455 S
C1179  C1182   1.436   .     S
C1179  O1207   1.310   .     A
C1179  O1226   1.287   .     A
C1180  C1182   1.396   .     A
C1180  H1198   1.081   .     S
C1180  C1565   1.372   1_545 S
C1181  C1187   1.435   .     S
C1181  C1193   1.419   .     A
C1181  C1194   1.395   .     A
C1182  C1192   1.420   .     A
C1183  N1206   1.401   .     A
C1183  S1237   1.787   .     S
C1184  N1205   1.400   .     A
C1184  S1238   1.788   .     S
C1184  C70     1.421   1_556 S
C1185  N1205   1.351   .     A
C1185  F1195   1.351   .     S
C1185  C67     1.421   1_556 S
C1186  N1206   1.352   .     A
C1186  F1196   1.351   .     S
C1187  O1218   1.309   .     A
C1187  O1227   1.288   .     A
C1188  O1230   1.296   .     A
C1188  C1190   1.399   .     S
C1188  O1228   1.279   .     A
C1189  C1191   1.399   .     S
C1189  O1231   1.296   .     A
C1189  O1229   1.279   .     A
C1191  C1252   1.340   .     S
C1191  S1296   1.787   .     S
C1192  S1235   1.785   .     S
C1192  C1566   1.371   1_545 S
C1193  S1236   1.784   .     S
C1193  C1366   1.372   .     S
C1194  H1197   1.081   .     S
C1194  C1378   1.371   .     S
H1199  O1209   0.991   .     S
H1200  O1212   0.991   .     S
H1201  O1215   0.991   .     S
H1202  O1219   0.990   .     S
H1203  O1222   0.991   .     S
H1204  O1225   0.990   .     S
N1205  Zn1239  2.039   .     S
N1206  Zn1240  2.039   .     S
O1207  Zn1239  2.012   .     S
O1208  S1233   1.502   .     D
O1210  S1234   1.502   .     D
O1211  S1234   1.503   .     D
O1212  S1296   1.678   .     S
O1213  S1235   1.503   .     D
O1214  S1235   1.504   .     D
O1215  S1235   1.676   .     S
O1216  S1236   1.498   .     D
O1217  S1236   1.504   .     D
O1218  Zn1240  2.012   .     S
O1219  S1236   1.681   .     S
O1220  S1237   1.505   .     D
O1221  S1237   1.499   .     D
O1222  S1237   1.672   .     S
O1223  S1238   1.505   .     D
O1224  S1238   1.499   .     D
O1225  S1238   1.673   .     S
O1226  Zn1240  2.022   .     S
O1227  Zn1239  2.022   .     S
O1228  Zn1239  1.994   .     S
O1229  Zn1240  1.994   .     S
O1230  Zn1240  1.956   .     S
O1231  Zn1239  1.956   .     S
O1232  S1233   1.503   .     D
S1233  O1271   1.679   .     S
S1233  C1252   1.787   .     S
C1241  C1244   1.436   .     S
C1241  O1269   1.310   .     A
C1241  O1288   1.287   .     A
C1242  C1244   1.396   .     A
C1242  H1260   1.081   .     S
C1242  C1627   1.372   1_545 S
C1243  C1249   1.435   .     S
C1243  C1255   1.419   .     A
C1243  C1256   1.395   .     A
C1244  C1254   1.420   .     A
C1245  N1268   1.401   .     A
C1245  S1299   1.787   .     S
C1246  N1267   1.400   .     A
C1246  S1300   1.788   .     S
C1246  C132    1.421   1_556 S
C1247  N1267   1.351   .     A
C1247  F1257   1.351   .     S
C1247  C129    1.421   1_556 S
C1248  N1268   1.352   .     A
C1248  F1258   1.351   .     S
C1249  O1280   1.309   .     A
C1249  O1289   1.288   .     A
C1250  O1292   1.296   .     A
C1250  C1252   1.399   .     S
C1250  O1290   1.279   .     A
C1251  C1253   1.399   .     S
C1251  O1293   1.296   .     A
C1251  O1291   1.279   .     A
C1253  C1128   1.340   1_655 S
C1253  S1172   1.787   1_655 S
C1254  S1297   1.785   .     S
C1254  C1628   1.371   1_545 S
C1255  S1298   1.784   .     S
C1255  C1428   1.372   .     S
C1256  H1259   1.081   .     S
C1256  C1440   1.371   .     S
H1261  O1271   0.991   .     S
H1262  O1274   0.991   .     S
H1263  O1277   0.991   .     S
H1264  O1281   0.990   .     S
H1265  O1284   0.991   .     S
H1266  O1287   0.990   .     S
N1267  Zn1301  2.039   .     S
N1268  Zn1302  2.039   .     S
O1269  Zn1301  2.012   .     S
O1270  S1295   1.502   .     D
O1272  S1296   1.502   .     D
O1273  S1296   1.503   .     D
O1274  S1172   1.678   1_655 S
O1275  S1297   1.503   .     D
O1276  S1297   1.504   .     D
O1277  S1297   1.676   .     S
O1278  S1298   1.498   .     D
O1279  S1298   1.504   .     D
O1280  Zn1302  2.012   .     S
O1281  S1298   1.681   .     S
O1282  S1299   1.505   .     D
O1283  S1299   1.499   .     D
O1284  S1299   1.672   .     S
O1285  S1300   1.505   .     D
O1286  S1300   1.499   .     D
O1287  S1300   1.673   .     S
O1288  Zn1302  2.022   .     S
O1289  Zn1301  2.022   .     S
O1290  Zn1301  1.994   .     S
O1291  Zn1302  1.994   .     S
O1292  Zn1302  1.956   .     S
O1293  Zn1301  1.956   .     S
O1294  S1295   1.503   .     D
S1295  O1147   1.679   1_655 S
S1295  C1128   1.787   1_655 S
C1303  C1306   1.436   .     S
C1303  O1331   1.310   .     A
C1303  O1350   1.287   .     A
C1304  C1306   1.396   .     A
C1304  H1322   1.081   .     S
C1305  C1311   1.435   .     S
C1305  C1317   1.419   .     A
C1305  C1318   1.395   .     A
C1306  C1316   1.420   .     A
C1307  N1330   1.401   .     A
C1307  S1361   1.787   .     S
C1308  N1329   1.400   .     A
C1308  S1362   1.788   .     S
C1308  C194    1.421   1_556 S
C1309  N1329   1.351   .     A
C1309  F1319   1.351   .     S
C1309  C191    1.421   1_556 S
C1310  N1330   1.352   .     A
C1310  F1320   1.351   .     S
C1311  O1342   1.309   .     A
C1311  O1351   1.288   .     A
C1312  O1354   1.296   .     A
C1312  C1314   1.399   .     S
C1312  O1352   1.279   .     A
C1313  C1315   1.399   .     S
C1313  O1355   1.296   .     A
C1313  O1353   1.279   .     A
C1314  C1439   1.340   1_455 S
C1314  S1481   1.787   1_455 S
C1315  C1376   1.340   .     S
C1315  S1420   1.787   .     S
C1316  S1359   1.785   .     S
C1317  S1360   1.784   .     S
C1317  C1490   1.372   .     S
C1318  H1321   1.081   .     S
C1318  C1502   1.371   .     S
H1323  O1333   0.991   .     S
H1324  O1336   0.991   .     S
H1325  O1339   0.991   .     S
H1326  O1343   0.990   .     S
H1327  O1346   0.991   .     S
H1328  O1349   0.990   .     S
N1329  Zn1363  2.039   .     S
N1330  Zn1364  2.039   .     S
O1331  Zn1363  2.012   .     S
O1332  S1357   1.502   .     D
O1333  S1481   1.679   1_455 S
O1334  S1358   1.502   .     D
O1335  S1358   1.503   .     D
O1336  S1420   1.678   .     S
O1337  S1359   1.503   .     D
O1338  S1359   1.504   .     D
O1339  S1359   1.676   .     S
O1340  S1360   1.498   .     D
O1341  S1360   1.504   .     D
O1342  Zn1364  2.012   .     S
O1343  S1360   1.681   .     S
O1344  S1361   1.505   .     D
O1345  S1361   1.499   .     D
O1346  S1361   1.672   .     S
O1347  S1362   1.505   .     D
O1348  S1362   1.499   .     D
O1349  S1362   1.673   .     S
O1350  Zn1364  2.022   .     S
O1351  Zn1363  2.022   .     S
O1352  Zn1363  1.994   .     S
O1353  Zn1364  1.994   .     S
O1354  Zn1364  1.956   .     S
O1355  Zn1363  1.956   .     S
O1356  S1357   1.503   .     D
S1357  O1395   1.679   .     S
S1357  C1376   1.787   .     S
S1358  O1460   1.678   1_455 S
S1358  C1439   1.787   1_455 S
C1365  C1368   1.436   .     S
C1365  O1393   1.310   .     A
C1365  O1412   1.287   .     A
C1366  C1368   1.396   .     A
C1366  H1384   1.081   .     S
C1367  C1373   1.435   .     S
C1367  C1379   1.419   .     A
C1367  C1380   1.395   .     A
C1368  C1378   1.420   .     A
C1369  N1392   1.401   .     A
C1369  S1423   1.787   .     S
C1370  N1391   1.400   .     A
C1370  S1424   1.788   .     S
C1370  C256    1.421   1_556 S
C1371  N1391   1.351   .     A
C1371  F1381   1.351   .     S
C1371  C253    1.421   1_556 S
C1372  N1392   1.352   .     A
C1372  F1382   1.351   .     S
C1373  O1404   1.309   .     A
C1373  O1413   1.288   .     A
C1374  O1416   1.296   .     A
C1374  C1376   1.399   .     S
C1374  O1414   1.279   .     A
C1375  C1377   1.399   .     S
C1375  O1417   1.296   .     A
C1375  O1415   1.279   .     A
C1377  C1438   1.340   .     S
C1377  S1482   1.787   .     S
C1378  S1421   1.785   .     S
C1379  S1422   1.784   .     S
C1379  C1552   1.372   .     S
C1380  H1383   1.081   .     S
C1380  C1564   1.371   .     S
H1385  O1395   0.991   .     S
H1386  O1398   0.991   .     S
H1387  O1401   0.991   .     S
H1388  O1405   0.990   .     S
H1389  O1408   0.991   .     S
H1390  O1411   0.990   .     S
N1391  Zn1425  2.039   .     S
N1392  Zn1426  2.039   .     S
O1393  Zn1425  2.012   .     S
O1394  S1419   1.502   .     D
O1396  S1420   1.502   .     D
O1397  S1420   1.503   .     D
O1398  S1482   1.678   .     S
O1399  S1421   1.503   .     D
O1400  S1421   1.504   .     D
O1401  S1421   1.676   .     S
O1402  S1422   1.498   .     D
O1403  S1422   1.504   .     D
O1404  Zn1426  2.012   .     S
O1405  S1422   1.681   .     S
O1406  S1423   1.505   .     D
O1407  S1423   1.499   .     D
O1408  S1423   1.672   .     S
O1409  S1424   1.505   .     D
O1410  S1424   1.499   .     D
O1411  S1424   1.673   .     S
O1412  Zn1426  2.022   .     S
O1413  Zn1425  2.022   .     S
O1414  Zn1425  1.994   .     S
O1415  Zn1426  1.994   .     S
O1416  Zn1426  1.956   .     S
O1417  Zn1425  1.956   .     S
O1418  S1419   1.503   .     D
S1419  O1457   1.679   .     S
S1419  C1438   1.787   .     S
C1427  C1430   1.436   .     S
C1427  O1455   1.310   .     A
C1427  O1474   1.287   .     A
C1428  C1430   1.396   .     A
C1428  H1446   1.081   .     S
C1429  C1435   1.435   .     S
C1429  C1441   1.419   .     A
C1429  C1442   1.395   .     A
C1430  C1440   1.420   .     A
C1431  N1454   1.401   .     A
C1431  S1485   1.787   .     S
C1432  N1453   1.400   .     A
C1432  S1486   1.788   .     S
C1432  C318    1.421   1_556 S
C1433  N1453   1.351   .     A
C1433  F1443   1.351   .     S
C1433  C315    1.421   1_556 S
C1434  N1454   1.352   .     A
C1434  F1444   1.351   .     S
C1435  O1466   1.309   .     A
C1435  O1475   1.288   .     A
C1436  O1478   1.296   .     A
C1436  C1438   1.399   .     S
C1436  O1476   1.279   .     A
C1437  C1439   1.399   .     S
C1437  O1479   1.296   .     A
C1437  O1477   1.279   .     A
C1439  C1314   1.340   1_655 S
C1439  S1358   1.787   1_655 S
C1440  S1483   1.785   .     S
C1441  S1484   1.784   .     S
C1441  C1614   1.372   .     S
C1442  H1445   1.081   .     S
C1442  C1626   1.371   .     S
H1447  O1457   0.991   .     S
H1448  O1460   0.991   .     S
H1449  O1463   0.991   .     S
H1450  O1467   0.990   .     S
H1451  O1470   0.991   .     S
H1452  O1473   0.990   .     S
N1453  Zn1487  2.039   .     S
N1454  Zn1488  2.039   .     S
O1455  Zn1487  2.012   .     S
O1456  S1481   1.502   .     D
O1458  S1482   1.502   .     D
O1459  S1482   1.503   .     D
O1460  S1358   1.678   1_655 S
O1461  S1483   1.503   .     D
O1462  S1483   1.504   .     D
O1463  S1483   1.676   .     S
O1464  S1484   1.498   .     D
O1465  S1484   1.504   .     D
O1466  Zn1488  2.012   .     S
O1467  S1484   1.681   .     S
O1468  S1485   1.505   .     D
O1469  S1485   1.499   .     D
O1470  S1485   1.672   .     S
O1471  S1486   1.505   .     D
O1472  S1486   1.499   .     D
O1473  S1486   1.673   .     S
O1474  Zn1488  2.022   .     S
O1475  Zn1487  2.022   .     S
O1476  Zn1487  1.994   .     S
O1477  Zn1488  1.994   .     S
O1478  Zn1488  1.956   .     S
O1479  Zn1487  1.956   .     S
O1480  S1481   1.503   .     D
S1481  O1333   1.679   1_655 S
S1481  C1314   1.787   1_655 S
C1489  C1492   1.436   .     S
C1489  O1517   1.310   .     A
C1489  O1536   1.287   .     A
C1490  C1492   1.396   .     A
C1490  H1508   1.081   .     S
C1491  C1497   1.435   .     S
C1491  C1503   1.419   .     A
C1491  C1504   1.395   .     A
C1492  C1502   1.420   .     A
C1493  N1516   1.401   .     A
C1493  S1547   1.787   .     S
C1494  N1515   1.400   .     A
C1494  S1548   1.788   .     S
C1494  C380    1.421   1_556 S
C1495  N1515   1.351   .     A
C1495  F1505   1.351   .     S
C1495  C377    1.421   1_556 S
C1496  N1516   1.352   .     A
C1496  F1506   1.351   .     S
C1497  O1528   1.309   .     A
C1497  O1537   1.288   .     A
C1498  O1540   1.296   .     A
C1498  C1500   1.399   .     S
C1498  O1538   1.279   .     A
C1499  C1501   1.399   .     S
C1499  O1541   1.296   .     A
C1499  O1539   1.279   .     A
C1500  C1625   1.340   1_455 S
C1500  S1667   1.787   1_455 S
C1501  C1562   1.340   .     S
C1501  S1606   1.787   .     S
C1502  S1545   1.785   .     S
C1503  S1546   1.784   .     S
C1503  C1118   1.372   1_565 S
C1504  H1507   1.081   .     S
C1504  C1130   1.371   1_565 S
H1509  O1519   0.991   .     S
H1510  O1522   0.991   .     S
H1511  O1525   0.991   .     S
H1512  O1529   0.990   .     S
H1513  O1532   0.991   .     S
H1514  O1535   0.990   .     S
N1515  Zn1549  2.039   .     S
N1516  Zn1550  2.039   .     S
O1517  Zn1549  2.012   .     S
O1518  S1543   1.502   .     D
O1519  S1667   1.679   1_455 S
O1520  S1544   1.502   .     D
O1521  S1544   1.503   .     D
O1522  S1606   1.678   .     S
O1523  S1545   1.503   .     D
O1524  S1545   1.504   .     D
O1525  S1545   1.676   .     S
O1526  S1546   1.498   .     D
O1527  S1546   1.504   .     D
O1528  Zn1550  2.012   .     S
O1529  S1546   1.681   .     S
O1530  S1547   1.505   .     D
O1531  S1547   1.499   .     D
O1532  S1547   1.672   .     S
O1533  S1548   1.505   .     D
O1534  S1548   1.499   .     D
O1535  S1548   1.673   .     S
O1536  Zn1550  2.022   .     S
O1537  Zn1549  2.022   .     S
O1538  Zn1549  1.994   .     S
O1539  Zn1550  1.994   .     S
O1540  Zn1550  1.956   .     S
O1541  Zn1549  1.956   .     S
O1542  S1543   1.503   .     D
S1543  O1581   1.679   .     S
S1543  C1562   1.787   .     S
S1544  O1646   1.678   1_455 S
S1544  C1625   1.787   1_455 S
C1551  C1554   1.436   .     S
C1551  O1579   1.310   .     A
C1551  O1598   1.287   .     A
C1552  C1554   1.396   .     A
C1552  H1570   1.081   .     S
C1553  C1559   1.435   .     S
C1553  C1565   1.419   .     A
C1553  C1566   1.395   .     A
C1554  C1564   1.420   .     A
C1555  N1578   1.401   .     A
C1555  S1609   1.787   .     S
C1556  N1577   1.400   .     A
C1556  S1610   1.788   .     S
C1556  C442    1.421   1_556 S
C1557  N1577   1.351   .     A
C1557  F1567   1.351   .     S
C1557  C439    1.421   1_556 S
C1558  N1578   1.352   .     A
C1558  F1568   1.351   .     S
C1559  O1590   1.309   .     A
C1559  O1599   1.288   .     A
C1560  O1602   1.296   .     A
C1560  C1562   1.399   .     S
C1560  O1600   1.279   .     A
C1561  C1563   1.399   .     S
C1561  O1603   1.296   .     A
C1561  O1601   1.279   .     A
C1563  C1624   1.340   .     S
C1563  S1668   1.787   .     S
C1564  S1607   1.785   .     S
C1565  S1608   1.784   .     S
C1565  C1180   1.372   1_565 S
C1566  H1569   1.081   .     S
C1566  C1192   1.371   1_565 S
H1571  O1581   0.991   .     S
H1572  O1584   0.991   .     S
H1573  O1587   0.991   .     S
H1574  O1591   0.990   .     S
H1575  O1594   0.991   .     S
H1576  O1597   0.990   .     S
N1577  Zn1611  2.039   .     S
N1578  Zn1612  2.039   .     S
O1579  Zn1611  2.012   .     S
O1580  S1605   1.502   .     D
O1582  S1606   1.502   .     D
O1583  S1606   1.503   .     D
O1584  S1668   1.678   .     S
O1585  S1607   1.503   .     D
O1586  S1607   1.504   .     D
O1587  S1607   1.676   .     S
O1588  S1608   1.498   .     D
O1589  S1608   1.504   .     D
O1590  Zn1612  2.012   .     S
O1591  S1608   1.681   .     S
O1592  S1609   1.505   .     D
O1593  S1609   1.499   .     D
O1594  S1609   1.672   .     S
O1595  S1610   1.505   .     D
O1596  S1610   1.499   .     D
O1597  S1610   1.673   .     S
O1598  Zn1612  2.022   .     S
O1599  Zn1611  2.022   .     S
O1600  Zn1611  1.994   .     S
O1601  Zn1612  1.994   .     S
O1602  Zn1612  1.956   .     S
O1603  Zn1611  1.956   .     S
O1604  S1605   1.503   .     D
S1605  O1643   1.679   .     S
S1605  C1624   1.787   .     S
C1613  C1616   1.436   .     S
C1613  O1641   1.310   .     A
C1613  O1660   1.287   .     A
C1614  C1616   1.396   .     A
C1614  H1632   1.081   .     S
C1615  C1621   1.435   .     S
C1615  C1627   1.419   .     A
C1615  C1628   1.395   .     A
C1616  C1626   1.420   .     A
C1617  N1640   1.401   .     A
C1617  S1671   1.787   .     S
C1618  N1639   1.400   .     A
C1618  S1672   1.788   .     S
C1618  C504    1.421   1_556 S
C1619  N1639   1.351   .     A
C1619  F1629   1.351   .     S
C1619  C501    1.421   1_556 S
C1620  N1640   1.352   .     A
C1620  F1630   1.351   .     S
C1621  O1652   1.309   .     A
C1621  O1661   1.288   .     A
C1622  O1664   1.296   .     A
C1622  C1624   1.399   .     S
C1622  O1662   1.279   .     A
C1623  C1625   1.399   .     S
C1623  O1665   1.296   .     A
C1623  O1663   1.279   .     A
C1625  C1500   1.340   1_655 S
C1625  S1544   1.787   1_655 S
C1626  S1669   1.785   .     S
C1627  S1670   1.784   .     S
C1627  C1242   1.372   1_565 S
C1628  H1631   1.081   .     S
C1628  C1254   1.371   1_565 S
H1633  O1643   0.991   .     S
H1634  O1646   0.991   .     S
H1635  O1649   0.991   .     S
H1636  O1653   0.990   .     S
H1637  O1656   0.991   .     S
H1638  O1659   0.990   .     S
N1639  Zn1673  2.039   .     S
N1640  Zn1674  2.039   .     S
O1641  Zn1673  2.012   .     S
O1642  S1667   1.502   .     D
O1644  S1668   1.502   .     D
O1645  S1668   1.503   .     D
O1646  S1544   1.678   1_655 S
O1647  S1669   1.503   .     D
O1648  S1669   1.504   .     D
O1649  S1669   1.676   .     S
O1650  S1670   1.498   .     D
O1651  S1670   1.504   .     D
O1652  Zn1674  2.012   .     S
O1653  S1670   1.681   .     S
O1654  S1671   1.505   .     D
O1655  S1671   1.499   .     D
O1656  S1671   1.672   .     S
O1657  S1672   1.505   .     D
O1658  S1672   1.499   .     D
O1659  S1672   1.673   .     S
O1660  Zn1674  2.022   .     S
O1661  Zn1673  2.022   .     S
O1662  Zn1673  1.994   .     S
O1663  Zn1674  1.994   .     S
O1664  Zn1674  1.956   .     S
O1665  Zn1673  1.956   .     S
O1666  S1667   1.503   .     D
S1667  O1519   1.679   1_655 S
S1667  C1500   1.787   1_655 S
