data_str_m3_o10_o16_pcu_sym.133
_audit_creation_date              2020-01-03
_audit_creation_method            'Materials Studio'
_symmetry_space_group_name_H-M    'P1'
_symmetry_Int_Tables_number       1
_symmetry_cell_setting            triclinic
loop_
_symmetry_equiv_pos_as_xyz
  x,y,z
_cell_length_a                    23.3091
_cell_length_b                    26.1108
_cell_length_c                    25.3127
_cell_angle_alpha                 91.6611
_cell_angle_beta                  102.5830
_cell_angle_gamma                 93.9122
loop_
_atom_site_label
_atom_site_type_symbol
_atom_site_fract_x
_atom_site_fract_y
_atom_site_fract_z
_atom_site_U_iso_or_equiv
_atom_site_adp_type
_atom_site_occupancy
C1     C     0.01605   0.26488   0.25108   0.00000  Uiso   1.00
C2     C     0.05907   0.17115   0.41243   0.00000  Uiso   1.00
C3     C     0.02808   0.31922   0.25810   0.00000  Uiso   1.00
C4     C     0.03672   0.16823   0.35419   0.00000  Uiso   1.00
C5     C     0.31337   0.01436   0.25280   0.00000  Uiso   1.00
C6     C     0.31962   0.06865   0.25324   0.00000  Uiso   1.00
C7     C     0.29584   0.15947   0.14616   0.00000  Uiso   1.00
C8     C     0.28877   0.12034   0.00119   0.00000  Uiso   1.00
C9     C     0.27307   0.14544   0.08921   0.00000  Uiso   1.00
C10    C     0.03204   0.20303   0.44377   0.00000  Uiso   1.00
C11    C     0.05886   0.21598   0.49737   0.00000  Uiso   1.00
C12    C     0.13872   0.16244   0.49014   0.00000  Uiso   1.00
C13    C     0.11218   0.19659   0.02031   0.00000  Uiso   1.00
C14    C     0.23330   0.07929   0.38915   0.00000  Uiso   1.00
C15    C     0.24343   0.02477   0.40780   0.00000  Uiso   1.00
C16    C     0.16752   0.11826   0.09944   0.00000  Uiso   1.00
C17    C     0.18408   0.06693   0.12387   0.00000  Uiso   1.00
C18    C     0.09301   0.00894   0.27184   0.00000  Uiso   1.00
C19    C     0.14233   0.30720   0.29066   0.00000  Uiso   1.00
C20    C     0.11269   0.14984   0.43574   0.00000  Uiso   1.00
C21    C     0.19296   0.14298   0.01248   0.00000  Uiso   1.00
C22    C     0.22848   0.12417   0.47886   0.00000  Uiso   1.00
C23    C     0.20145   0.10812   0.42536   0.00000  Uiso   1.00
C24    C     0.14209   0.11724   0.40625   0.00000  Uiso   1.00
C25    C     0.21197   0.13968   0.06792   0.00000  Uiso   1.00
C26    C     0.31156   0.13501   0.05539   0.00000  Uiso   1.00
F27    F     0.25659   0.32684   0.24108   0.00000  Uiso   1.00
F28    F     0.17640   0.20401   0.30819   0.00000  Uiso   1.00
H29    H     0.02528   0.13567   0.07130   0.00000  Uiso   1.00
H30    H     0.26681   0.00464   0.38050   0.00000  Uiso   1.00
H31    H     0.20757   0.07725   0.34663   0.00000  Uiso   1.00
H32    H     0.27603   0.10028   0.38844   0.00000  Uiso   1.00
H33    H     0.18721   0.03852   0.09128   0.00000  Uiso   1.00
H34    H     0.22678   0.07105   0.15360   0.00000  Uiso   1.00
H35    H     0.14959   0.05178   0.14467   0.00000  Uiso   1.00
H36    H     0.16086   0.14722   0.12964   0.00000  Uiso   1.00
H37    H     0.12336   0.10965   0.07235   0.00000  Uiso   1.00
H38    H     0.13321   0.28427   0.32458   0.00000  Uiso   1.00
H39    H     0.14942   0.28301   0.25626   0.00000  Uiso   1.00
H40    H     0.15745   0.12574   0.21037   0.00000  Uiso   1.00
H41    H     0.18424   0.33081   0.30495   0.00000  Uiso   1.00
H42    H     0.10320   0.02787   0.23581   0.00000  Uiso   1.00
H43    H     0.09781   0.03736   0.30597   0.00000  Uiso   1.00
H44    H     0.31887   0.10820   0.47719   0.00000  Uiso   1.00
H45    H     0.32490   0.22009   0.42602   0.00000  Uiso   1.00
H46    H     0.13322   0.20949   0.06140   0.00000  Uiso   1.00
H47    H     0.03885   0.24191   0.02092   0.00000  Uiso   1.00
H48    H     0.12003   0.09942   0.36787   0.00000  Uiso   1.00
H49    H     0.27082   0.02511   0.44955   0.00000  Uiso   1.00
H50    H     0.20057   0.00301   0.40690   0.00000  Uiso   1.00
N51    N     0.14493   0.15223   0.23542   0.00000  Uiso   1.00
N52    N     0.18840   0.18110   0.26457   0.00000  Uiso   1.00
O53    O     0.29769   0.24629   0.25357   0.00000  Uiso   1.00
O54    O     0.05742   0.23704   0.24423   0.00000  Uiso   1.00
O55    O     0.31490   0.17358   0.33380   0.00000  Uiso   1.00
O56    O     0.07463   0.16433   0.32446   0.00000  Uiso   1.00
O57    O     0.27592   0.09629   0.25577   0.00000  Uiso   1.00
O58    O     0.03565   0.08704   0.24643   0.00000  Uiso   1.00
O59    O     0.25870   0.16901   0.17554   0.00000  Uiso   1.00
O60    O     0.01843   0.15976   0.16620   0.00000  Uiso   1.00
Zn61   Zn    0.27119   0.17284   0.25623   0.00000  Uiso   1.00
Zn62   Zn    0.06214   0.16049   0.24376   0.00000  Uiso   1.00
C63    C     0.34938   0.26488   0.25108   0.00000  Uiso   1.00
C64    C     0.39240   0.17115   0.41243   0.00000  Uiso   1.00
C65    C     0.36141   0.31922   0.25810   0.00000  Uiso   1.00
C66    C     0.37006   0.16823   0.35419   0.00000  Uiso   1.00
C67    C     0.64670   0.01436   0.25280   0.00000  Uiso   1.00
C68    C     0.65295   0.06865   0.25324   0.00000  Uiso   1.00
C69    C     0.62918   0.15947   0.14616   0.00000  Uiso   1.00
C70    C     0.62210   0.12034   0.00119   0.00000  Uiso   1.00
C71    C     0.60640   0.14544   0.08921   0.00000  Uiso   1.00
C72    C     0.36537   0.20303   0.44377   0.00000  Uiso   1.00
C73    C     0.39220   0.21598   0.49737   0.00000  Uiso   1.00
C74    C     0.47206   0.16244   0.49014   0.00000  Uiso   1.00
C75    C     0.44551   0.19659   0.02031   0.00000  Uiso   1.00
C76    C     0.56663   0.07929   0.38915   0.00000  Uiso   1.00
C77    C     0.57677   0.02477   0.40780   0.00000  Uiso   1.00
C78    C     0.50085   0.11826   0.09944   0.00000  Uiso   1.00
C79    C     0.51741   0.06693   0.12387   0.00000  Uiso   1.00
C80    C     0.42634   0.00894   0.27184   0.00000  Uiso   1.00
C81    C     0.47567   0.30720   0.29066   0.00000  Uiso   1.00
C82    C     0.44602   0.14984   0.43574   0.00000  Uiso   1.00
C83    C     0.52629   0.14298   0.01248   0.00000  Uiso   1.00
C84    C     0.56181   0.12417   0.47886   0.00000  Uiso   1.00
C85    C     0.53479   0.10812   0.42536   0.00000  Uiso   1.00
C86    C     0.47542   0.11724   0.40625   0.00000  Uiso   1.00
C87    C     0.54531   0.13968   0.06792   0.00000  Uiso   1.00
C88    C     0.64490   0.13501   0.05539   0.00000  Uiso   1.00
F89    F     0.58992   0.32684   0.24108   0.00000  Uiso   1.00
F90    F     0.50973   0.20401   0.30819   0.00000  Uiso   1.00
H91    H     0.35861   0.13567   0.07130   0.00000  Uiso   1.00
H92    H     0.60015   0.00464   0.38050   0.00000  Uiso   1.00
H93    H     0.54090   0.07725   0.34663   0.00000  Uiso   1.00
H94    H     0.60936   0.10028   0.38844   0.00000  Uiso   1.00
H95    H     0.52055   0.03852   0.09128   0.00000  Uiso   1.00
H96    H     0.56011   0.07105   0.15360   0.00000  Uiso   1.00
H97    H     0.48293   0.05178   0.14467   0.00000  Uiso   1.00
H98    H     0.49419   0.14722   0.12964   0.00000  Uiso   1.00
H99    H     0.45669   0.10965   0.07235   0.00000  Uiso   1.00
H100   H     0.46654   0.28427   0.32458   0.00000  Uiso   1.00
H101   H     0.48275   0.28301   0.25626   0.00000  Uiso   1.00
H102   H     0.49078   0.12574   0.21037   0.00000  Uiso   1.00
H103   H     0.51757   0.33081   0.30495   0.00000  Uiso   1.00
H104   H     0.43653   0.02787   0.23581   0.00000  Uiso   1.00
H105   H     0.43114   0.03736   0.30597   0.00000  Uiso   1.00
H106   H     0.65220   0.10820   0.47719   0.00000  Uiso   1.00
H107   H     0.65824   0.22009   0.42602   0.00000  Uiso   1.00
H108   H     0.46655   0.20949   0.06140   0.00000  Uiso   1.00
H109   H     0.37219   0.24191   0.02092   0.00000  Uiso   1.00
H110   H     0.45336   0.09942   0.36787   0.00000  Uiso   1.00
H111   H     0.60416   0.02511   0.44955   0.00000  Uiso   1.00
H112   H     0.53391   0.00301   0.40690   0.00000  Uiso   1.00
N113   N     0.47827   0.15223   0.23542   0.00000  Uiso   1.00
N114   N     0.52173   0.18110   0.26457   0.00000  Uiso   1.00
O115   O     0.63102   0.24629   0.25357   0.00000  Uiso   1.00
O116   O     0.39075   0.23704   0.24423   0.00000  Uiso   1.00
O117   O     0.64823   0.17358   0.33380   0.00000  Uiso   1.00
O118   O     0.40796   0.16433   0.32446   0.00000  Uiso   1.00
O119   O     0.60925   0.09629   0.25577   0.00000  Uiso   1.00
O120   O     0.36898   0.08704   0.24643   0.00000  Uiso   1.00
O121   O     0.59204   0.16901   0.17554   0.00000  Uiso   1.00
O122   O     0.35177   0.15976   0.16620   0.00000  Uiso   1.00
Zn123  Zn    0.60453   0.17284   0.25623   0.00000  Uiso   1.00
Zn124  Zn    0.39547   0.16049   0.24376   0.00000  Uiso   1.00
C125   C     0.68272   0.26488   0.25108   0.00000  Uiso   1.00
C126   C     0.72573   0.17115   0.41243   0.00000  Uiso   1.00
C127   C     0.69474   0.31922   0.25810   0.00000  Uiso   1.00
C128   C     0.70339   0.16823   0.35419   0.00000  Uiso   1.00
C129   C     0.98003   0.01436   0.25280   0.00000  Uiso   1.00
C130   C     0.98629   0.06865   0.25324   0.00000  Uiso   1.00
C131   C     0.96251   0.15947   0.14616   0.00000  Uiso   1.00
C132   C     0.95543   0.12034   0.00119   0.00000  Uiso   1.00
C133   C     0.93973   0.14544   0.08921   0.00000  Uiso   1.00
C134   C     0.69871   0.20303   0.44377   0.00000  Uiso   1.00
C135   C     0.72553   0.21598   0.49737   0.00000  Uiso   1.00
C136   C     0.80539   0.16244   0.49014   0.00000  Uiso   1.00
C137   C     0.77884   0.19659   0.02031   0.00000  Uiso   1.00
C138   C     0.89996   0.07929   0.38915   0.00000  Uiso   1.00
C139   C     0.91010   0.02477   0.40780   0.00000  Uiso   1.00
C140   C     0.83419   0.11826   0.09944   0.00000  Uiso   1.00
C141   C     0.85075   0.06693   0.12387   0.00000  Uiso   1.00
C142   C     0.75967   0.00894   0.27184   0.00000  Uiso   1.00
C143   C     0.80900   0.30720   0.29066   0.00000  Uiso   1.00
C144   C     0.77936   0.14984   0.43574   0.00000  Uiso   1.00
C145   C     0.85962   0.14298   0.01248   0.00000  Uiso   1.00
C146   C     0.89514   0.12417   0.47886   0.00000  Uiso   1.00
C147   C     0.86812   0.10812   0.42536   0.00000  Uiso   1.00
C148   C     0.80875   0.11724   0.40625   0.00000  Uiso   1.00
C149   C     0.87864   0.13968   0.06792   0.00000  Uiso   1.00
C150   C     0.97823   0.13501   0.05539   0.00000  Uiso   1.00
F151   F     0.92326   0.32684   0.24108   0.00000  Uiso   1.00
F152   F     0.84307   0.20401   0.30819   0.00000  Uiso   1.00
H153   H     0.69194   0.13567   0.07130   0.00000  Uiso   1.00
H154   H     0.93348   0.00464   0.38050   0.00000  Uiso   1.00
H155   H     0.87424   0.07725   0.34663   0.00000  Uiso   1.00
H156   H     0.94269   0.10028   0.38844   0.00000  Uiso   1.00
H157   H     0.85388   0.03852   0.09128   0.00000  Uiso   1.00
H158   H     0.89344   0.07105   0.15360   0.00000  Uiso   1.00
H159   H     0.81626   0.05178   0.14467   0.00000  Uiso   1.00
H160   H     0.82752   0.14722   0.12964   0.00000  Uiso   1.00
H161   H     0.79003   0.10965   0.07235   0.00000  Uiso   1.00
H162   H     0.79987   0.28427   0.32458   0.00000  Uiso   1.00
H163   H     0.81608   0.28301   0.25626   0.00000  Uiso   1.00
H164   H     0.82411   0.12574   0.21037   0.00000  Uiso   1.00
H165   H     0.85091   0.33081   0.30495   0.00000  Uiso   1.00
H166   H     0.76987   0.02787   0.23581   0.00000  Uiso   1.00
H167   H     0.76448   0.03736   0.30597   0.00000  Uiso   1.00
H168   H     0.98553   0.10820   0.47719   0.00000  Uiso   1.00
H169   H     0.99157   0.22009   0.42602   0.00000  Uiso   1.00
H170   H     0.79988   0.20949   0.06140   0.00000  Uiso   1.00
H171   H     0.70552   0.24191   0.02092   0.00000  Uiso   1.00
H172   H     0.78670   0.09942   0.36787   0.00000  Uiso   1.00
H173   H     0.93749   0.02511   0.44955   0.00000  Uiso   1.00
H174   H     0.86724   0.00301   0.40690   0.00000  Uiso   1.00
N175   N     0.81160   0.15223   0.23542   0.00000  Uiso   1.00
N176   N     0.85507   0.18110   0.26457   0.00000  Uiso   1.00
O177   O     0.96435   0.24629   0.25357   0.00000  Uiso   1.00
O178   O     0.72408   0.23704   0.24423   0.00000  Uiso   1.00
O179   O     0.98157   0.17358   0.33380   0.00000  Uiso   1.00
O180   O     0.74130   0.16433   0.32446   0.00000  Uiso   1.00
O181   O     0.94258   0.09629   0.25577   0.00000  Uiso   1.00
O182   O     0.70231   0.08704   0.24643   0.00000  Uiso   1.00
O183   O     0.92537   0.16901   0.17554   0.00000  Uiso   1.00
O184   O     0.68510   0.15976   0.16620   0.00000  Uiso   1.00
Zn185  Zn    0.93786   0.17284   0.25623   0.00000  Uiso   1.00
Zn186  Zn    0.72881   0.16049   0.24376   0.00000  Uiso   1.00
C187   C     0.01605   0.59822   0.25108   0.00000  Uiso   1.00
C188   C     0.05907   0.50448   0.41243   0.00000  Uiso   1.00
C189   C     0.02808   0.65255   0.25810   0.00000  Uiso   1.00
C190   C     0.03672   0.50156   0.35419   0.00000  Uiso   1.00
C191   C     0.31337   0.34769   0.25280   0.00000  Uiso   1.00
C192   C     0.31962   0.40199   0.25324   0.00000  Uiso   1.00
C193   C     0.29584   0.49280   0.14616   0.00000  Uiso   1.00
C194   C     0.28877   0.45367   0.00119   0.00000  Uiso   1.00
C195   C     0.27307   0.47877   0.08921   0.00000  Uiso   1.00
C196   C     0.03204   0.53636   0.44377   0.00000  Uiso   1.00
C197   C     0.05886   0.54931   0.49737   0.00000  Uiso   1.00
C198   C     0.13872   0.49578   0.49014   0.00000  Uiso   1.00
C199   C     0.11218   0.52993   0.02031   0.00000  Uiso   1.00
C200   C     0.23330   0.41262   0.38915   0.00000  Uiso   1.00
C201   C     0.24343   0.35811   0.40780   0.00000  Uiso   1.00
C202   C     0.16752   0.45160   0.09944   0.00000  Uiso   1.00
C203   C     0.18408   0.40026   0.12387   0.00000  Uiso   1.00
C204   C     0.09301   0.34227   0.27184   0.00000  Uiso   1.00
C205   C     0.14233   0.64053   0.29066   0.00000  Uiso   1.00
C206   C     0.11269   0.48317   0.43574   0.00000  Uiso   1.00
C207   C     0.19296   0.47632   0.01248   0.00000  Uiso   1.00
C208   C     0.22848   0.45750   0.47886   0.00000  Uiso   1.00
C209   C     0.20145   0.44145   0.42536   0.00000  Uiso   1.00
C210   C     0.14209   0.45057   0.40625   0.00000  Uiso   1.00
C211   C     0.21197   0.47302   0.06792   0.00000  Uiso   1.00
C212   C     0.31156   0.46834   0.05539   0.00000  Uiso   1.00
F213   F     0.25659   0.66017   0.24108   0.00000  Uiso   1.00
F214   F     0.17640   0.53734   0.30819   0.00000  Uiso   1.00
H215   H     0.02528   0.46900   0.07130   0.00000  Uiso   1.00
H216   H     0.26681   0.33797   0.38050   0.00000  Uiso   1.00
H217   H     0.20757   0.41058   0.34663   0.00000  Uiso   1.00
H218   H     0.27603   0.43362   0.38844   0.00000  Uiso   1.00
H219   H     0.18721   0.37185   0.09128   0.00000  Uiso   1.00
H220   H     0.22678   0.40438   0.15360   0.00000  Uiso   1.00
H221   H     0.14959   0.38512   0.14467   0.00000  Uiso   1.00
H222   H     0.16086   0.48056   0.12964   0.00000  Uiso   1.00
H223   H     0.12336   0.44298   0.07235   0.00000  Uiso   1.00
H224   H     0.13321   0.61760   0.32458   0.00000  Uiso   1.00
H225   H     0.14942   0.61634   0.25626   0.00000  Uiso   1.00
H226   H     0.15745   0.45907   0.21037   0.00000  Uiso   1.00
H227   H     0.18424   0.66415   0.30495   0.00000  Uiso   1.00
H228   H     0.10320   0.36121   0.23581   0.00000  Uiso   1.00
H229   H     0.09781   0.37070   0.30597   0.00000  Uiso   1.00
H230   H     0.31887   0.44153   0.47719   0.00000  Uiso   1.00
H231   H     0.32490   0.55343   0.42602   0.00000  Uiso   1.00
H232   H     0.13322   0.54283   0.06140   0.00000  Uiso   1.00
H233   H     0.03885   0.57524   0.02092   0.00000  Uiso   1.00
H234   H     0.12003   0.43276   0.36787   0.00000  Uiso   1.00
H235   H     0.27082   0.35845   0.44955   0.00000  Uiso   1.00
H236   H     0.20057   0.33634   0.40690   0.00000  Uiso   1.00
N237   N     0.14493   0.48556   0.23542   0.00000  Uiso   1.00
N238   N     0.18840   0.51444   0.26457   0.00000  Uiso   1.00
O239   O     0.29769   0.57963   0.25357   0.00000  Uiso   1.00
O240   O     0.05742   0.57038   0.24423   0.00000  Uiso   1.00
O241   O     0.31490   0.50691   0.33380   0.00000  Uiso   1.00
O242   O     0.07463   0.49766   0.32446   0.00000  Uiso   1.00
O243   O     0.27592   0.42962   0.25577   0.00000  Uiso   1.00
O244   O     0.03565   0.42037   0.24643   0.00000  Uiso   1.00
O245   O     0.25870   0.50234   0.17554   0.00000  Uiso   1.00
O246   O     0.01843   0.49309   0.16620   0.00000  Uiso   1.00
Zn247  Zn    0.27119   0.50618   0.25623   0.00000  Uiso   1.00
Zn248  Zn    0.06214   0.49382   0.24376   0.00000  Uiso   1.00
C249   C     0.34938   0.59822   0.25108   0.00000  Uiso   1.00
C250   C     0.39240   0.50448   0.41243   0.00000  Uiso   1.00
C251   C     0.36141   0.65255   0.25810   0.00000  Uiso   1.00
C252   C     0.37006   0.50156   0.35419   0.00000  Uiso   1.00
C253   C     0.64670   0.34769   0.25280   0.00000  Uiso   1.00
C254   C     0.65295   0.40199   0.25324   0.00000  Uiso   1.00
C255   C     0.62918   0.49280   0.14616   0.00000  Uiso   1.00
C256   C     0.62210   0.45367   0.00119   0.00000  Uiso   1.00
C257   C     0.60640   0.47877   0.08921   0.00000  Uiso   1.00
C258   C     0.36537   0.53636   0.44377   0.00000  Uiso   1.00
C259   C     0.39220   0.54931   0.49737   0.00000  Uiso   1.00
C260   C     0.47206   0.49578   0.49014   0.00000  Uiso   1.00
C261   C     0.44551   0.52993   0.02031   0.00000  Uiso   1.00
C262   C     0.56663   0.41262   0.38915   0.00000  Uiso   1.00
C263   C     0.57677   0.35811   0.40780   0.00000  Uiso   1.00
C264   C     0.50085   0.45160   0.09944   0.00000  Uiso   1.00
C265   C     0.51741   0.40026   0.12387   0.00000  Uiso   1.00
C266   C     0.42634   0.34227   0.27184   0.00000  Uiso   1.00
C267   C     0.47567   0.64053   0.29066   0.00000  Uiso   1.00
C268   C     0.44602   0.48317   0.43574   0.00000  Uiso   1.00
C269   C     0.52629   0.47632   0.01248   0.00000  Uiso   1.00
C270   C     0.56181   0.45750   0.47886   0.00000  Uiso   1.00
C271   C     0.53479   0.44145   0.42536   0.00000  Uiso   1.00
C272   C     0.47542   0.45057   0.40625   0.00000  Uiso   1.00
C273   C     0.54531   0.47302   0.06792   0.00000  Uiso   1.00
C274   C     0.64490   0.46834   0.05539   0.00000  Uiso   1.00
F275   F     0.58992   0.66017   0.24108   0.00000  Uiso   1.00
F276   F     0.50973   0.53734   0.30819   0.00000  Uiso   1.00
H277   H     0.35861   0.46900   0.07130   0.00000  Uiso   1.00
H278   H     0.60015   0.33797   0.38050   0.00000  Uiso   1.00
H279   H     0.54090   0.41058   0.34663   0.00000  Uiso   1.00
H280   H     0.60936   0.43362   0.38844   0.00000  Uiso   1.00
H281   H     0.52055   0.37185   0.09128   0.00000  Uiso   1.00
H282   H     0.56011   0.40438   0.15360   0.00000  Uiso   1.00
H283   H     0.48293   0.38512   0.14467   0.00000  Uiso   1.00
H284   H     0.49419   0.48056   0.12964   0.00000  Uiso   1.00
H285   H     0.45669   0.44298   0.07235   0.00000  Uiso   1.00
H286   H     0.46654   0.61760   0.32458   0.00000  Uiso   1.00
H287   H     0.48275   0.61634   0.25626   0.00000  Uiso   1.00
H288   H     0.49078   0.45907   0.21037   0.00000  Uiso   1.00
H289   H     0.51757   0.66415   0.30495   0.00000  Uiso   1.00
H290   H     0.43653   0.36121   0.23581   0.00000  Uiso   1.00
H291   H     0.43114   0.37070   0.30597   0.00000  Uiso   1.00
H292   H     0.65220   0.44153   0.47719   0.00000  Uiso   1.00
H293   H     0.65824   0.55343   0.42602   0.00000  Uiso   1.00
H294   H     0.46655   0.54283   0.06140   0.00000  Uiso   1.00
H295   H     0.37219   0.57524   0.02092   0.00000  Uiso   1.00
H296   H     0.45336   0.43276   0.36787   0.00000  Uiso   1.00
H297   H     0.60416   0.35845   0.44955   0.00000  Uiso   1.00
H298   H     0.53391   0.33634   0.40690   0.00000  Uiso   1.00
N299   N     0.47827   0.48556   0.23542   0.00000  Uiso   1.00
N300   N     0.52173   0.51444   0.26457   0.00000  Uiso   1.00
O301   O     0.63102   0.57963   0.25357   0.00000  Uiso   1.00
O302   O     0.39075   0.57038   0.24423   0.00000  Uiso   1.00
O303   O     0.64823   0.50691   0.33380   0.00000  Uiso   1.00
O304   O     0.40796   0.49766   0.32446   0.00000  Uiso   1.00
O305   O     0.60925   0.42962   0.25577   0.00000  Uiso   1.00
O306   O     0.36898   0.42037   0.24643   0.00000  Uiso   1.00
O307   O     0.59204   0.50234   0.17554   0.00000  Uiso   1.00
O308   O     0.35177   0.49309   0.16620   0.00000  Uiso   1.00
Zn309  Zn    0.60453   0.50618   0.25623   0.00000  Uiso   1.00
Zn310  Zn    0.39547   0.49382   0.24376   0.00000  Uiso   1.00
C311   C     0.68272   0.59822   0.25108   0.00000  Uiso   1.00
C312   C     0.72573   0.50448   0.41243   0.00000  Uiso   1.00
C313   C     0.69474   0.65255   0.25810   0.00000  Uiso   1.00
C314   C     0.70339   0.50156   0.35419   0.00000  Uiso   1.00
C315   C     0.98003   0.34769   0.25280   0.00000  Uiso   1.00
C316   C     0.98629   0.40199   0.25324   0.00000  Uiso   1.00
C317   C     0.96251   0.49280   0.14616   0.00000  Uiso   1.00
C318   C     0.95543   0.45367   0.00119   0.00000  Uiso   1.00
C319   C     0.93973   0.47877   0.08921   0.00000  Uiso   1.00
C320   C     0.69871   0.53636   0.44377   0.00000  Uiso   1.00
C321   C     0.72553   0.54931   0.49737   0.00000  Uiso   1.00
C322   C     0.80539   0.49578   0.49014   0.00000  Uiso   1.00
C323   C     0.77884   0.52993   0.02031   0.00000  Uiso   1.00
C324   C     0.89996   0.41262   0.38915   0.00000  Uiso   1.00
C325   C     0.91010   0.35811   0.40780   0.00000  Uiso   1.00
C326   C     0.83419   0.45160   0.09944   0.00000  Uiso   1.00
C327   C     0.85075   0.40026   0.12387   0.00000  Uiso   1.00
C328   C     0.75967   0.34227   0.27184   0.00000  Uiso   1.00
C329   C     0.80900   0.64053   0.29066   0.00000  Uiso   1.00
C330   C     0.77936   0.48317   0.43574   0.00000  Uiso   1.00
C331   C     0.85962   0.47632   0.01248   0.00000  Uiso   1.00
C332   C     0.89514   0.45750   0.47886   0.00000  Uiso   1.00
C333   C     0.86812   0.44145   0.42536   0.00000  Uiso   1.00
C334   C     0.80875   0.45057   0.40625   0.00000  Uiso   1.00
C335   C     0.87864   0.47302   0.06792   0.00000  Uiso   1.00
C336   C     0.97823   0.46834   0.05539   0.00000  Uiso   1.00
F337   F     0.92326   0.66017   0.24108   0.00000  Uiso   1.00
F338   F     0.84307   0.53734   0.30819   0.00000  Uiso   1.00
H339   H     0.69194   0.46900   0.07130   0.00000  Uiso   1.00
H340   H     0.93348   0.33797   0.38050   0.00000  Uiso   1.00
H341   H     0.87424   0.41058   0.34663   0.00000  Uiso   1.00
H342   H     0.94269   0.43362   0.38844   0.00000  Uiso   1.00
H343   H     0.85388   0.37185   0.09128   0.00000  Uiso   1.00
H344   H     0.89344   0.40438   0.15360   0.00000  Uiso   1.00
H345   H     0.81626   0.38512   0.14467   0.00000  Uiso   1.00
H346   H     0.82752   0.48056   0.12964   0.00000  Uiso   1.00
H347   H     0.79003   0.44298   0.07235   0.00000  Uiso   1.00
H348   H     0.79987   0.61760   0.32458   0.00000  Uiso   1.00
H349   H     0.81608   0.61634   0.25626   0.00000  Uiso   1.00
H350   H     0.82411   0.45907   0.21037   0.00000  Uiso   1.00
H351   H     0.85091   0.66415   0.30495   0.00000  Uiso   1.00
H352   H     0.76987   0.36121   0.23581   0.00000  Uiso   1.00
H353   H     0.76448   0.37070   0.30597   0.00000  Uiso   1.00
H354   H     0.98553   0.44153   0.47719   0.00000  Uiso   1.00
H355   H     0.99157   0.55343   0.42602   0.00000  Uiso   1.00
H356   H     0.79988   0.54283   0.06140   0.00000  Uiso   1.00
H357   H     0.70552   0.57524   0.02092   0.00000  Uiso   1.00
H358   H     0.78670   0.43276   0.36787   0.00000  Uiso   1.00
H359   H     0.93749   0.35845   0.44955   0.00000  Uiso   1.00
H360   H     0.86724   0.33634   0.40690   0.00000  Uiso   1.00
N361   N     0.81160   0.48556   0.23542   0.00000  Uiso   1.00
N362   N     0.85507   0.51444   0.26457   0.00000  Uiso   1.00
O363   O     0.96435   0.57963   0.25357   0.00000  Uiso   1.00
O364   O     0.72408   0.57038   0.24423   0.00000  Uiso   1.00
O365   O     0.98157   0.50691   0.33380   0.00000  Uiso   1.00
O366   O     0.74130   0.49766   0.32446   0.00000  Uiso   1.00
O367   O     0.94258   0.42962   0.25577   0.00000  Uiso   1.00
O368   O     0.70231   0.42037   0.24643   0.00000  Uiso   1.00
O369   O     0.92537   0.50234   0.17554   0.00000  Uiso   1.00
O370   O     0.68510   0.49309   0.16620   0.00000  Uiso   1.00
Zn371  Zn    0.93786   0.50618   0.25623   0.00000  Uiso   1.00
Zn372  Zn    0.72881   0.49382   0.24376   0.00000  Uiso   1.00
C373   C     0.01605   0.93155   0.25108   0.00000  Uiso   1.00
C374   C     0.05907   0.83781   0.41243   0.00000  Uiso   1.00
C375   C     0.02808   0.98588   0.25810   0.00000  Uiso   1.00
C376   C     0.03672   0.83489   0.35419   0.00000  Uiso   1.00
C377   C     0.31337   0.68102   0.25280   0.00000  Uiso   1.00
C378   C     0.31962   0.73532   0.25324   0.00000  Uiso   1.00
C379   C     0.29584   0.82613   0.14616   0.00000  Uiso   1.00
C380   C     0.28877   0.78700   0.00119   0.00000  Uiso   1.00
C381   C     0.27307   0.81211   0.08921   0.00000  Uiso   1.00
C382   C     0.03204   0.86970   0.44377   0.00000  Uiso   1.00
C383   C     0.05886   0.88265   0.49737   0.00000  Uiso   1.00
C384   C     0.13872   0.82911   0.49014   0.00000  Uiso   1.00
C385   C     0.11218   0.86326   0.02031   0.00000  Uiso   1.00
C386   C     0.23330   0.74596   0.38915   0.00000  Uiso   1.00
C387   C     0.24343   0.69144   0.40780   0.00000  Uiso   1.00
C388   C     0.16752   0.78493   0.09944   0.00000  Uiso   1.00
C389   C     0.18408   0.73359   0.12387   0.00000  Uiso   1.00
C390   C     0.09301   0.67561   0.27184   0.00000  Uiso   1.00
C391   C     0.14233   0.97387   0.29066   0.00000  Uiso   1.00
C392   C     0.11269   0.81651   0.43574   0.00000  Uiso   1.00
C393   C     0.19296   0.80965   0.01248   0.00000  Uiso   1.00
C394   C     0.22848   0.79084   0.47886   0.00000  Uiso   1.00
C395   C     0.20145   0.77479   0.42536   0.00000  Uiso   1.00
C396   C     0.14209   0.78390   0.40625   0.00000  Uiso   1.00
C397   C     0.21197   0.80635   0.06792   0.00000  Uiso   1.00
C398   C     0.31156   0.80167   0.05539   0.00000  Uiso   1.00
F399   F     0.25659   0.99351   0.24108   0.00000  Uiso   1.00
F400   F     0.17640   0.87068   0.30819   0.00000  Uiso   1.00
H401   H     0.02528   0.80233   0.07130   0.00000  Uiso   1.00
H402   H     0.26681   0.67131   0.38050   0.00000  Uiso   1.00
H403   H     0.20757   0.74392   0.34663   0.00000  Uiso   1.00
H404   H     0.27603   0.76695   0.38844   0.00000  Uiso   1.00
H405   H     0.18721   0.70518   0.09128   0.00000  Uiso   1.00
H406   H     0.22678   0.73771   0.15360   0.00000  Uiso   1.00
H407   H     0.14959   0.71845   0.14467   0.00000  Uiso   1.00
H408   H     0.16086   0.81389   0.12964   0.00000  Uiso   1.00
H409   H     0.12336   0.77631   0.07235   0.00000  Uiso   1.00
H410   H     0.13321   0.95094   0.32458   0.00000  Uiso   1.00
H411   H     0.14942   0.94968   0.25626   0.00000  Uiso   1.00
H412   H     0.15745   0.79241   0.21037   0.00000  Uiso   1.00
H413   H     0.18424   0.99748   0.30495   0.00000  Uiso   1.00
H414   H     0.10320   0.69454   0.23581   0.00000  Uiso   1.00
H415   H     0.09781   0.70403   0.30597   0.00000  Uiso   1.00
H416   H     0.31887   0.77486   0.47719   0.00000  Uiso   1.00
H417   H     0.32490   0.88676   0.42602   0.00000  Uiso   1.00
H418   H     0.13322   0.87616   0.06140   0.00000  Uiso   1.00
H419   H     0.03885   0.90857   0.02092   0.00000  Uiso   1.00
H420   H     0.12003   0.76609   0.36787   0.00000  Uiso   1.00
H421   H     0.27082   0.69178   0.44955   0.00000  Uiso   1.00
H422   H     0.20057   0.66968   0.40690   0.00000  Uiso   1.00
N423   N     0.14493   0.81890   0.23542   0.00000  Uiso   1.00
N424   N     0.18840   0.84777   0.26457   0.00000  Uiso   1.00
O425   O     0.29769   0.91296   0.25357   0.00000  Uiso   1.00
O426   O     0.05742   0.90371   0.24423   0.00000  Uiso   1.00
O427   O     0.31490   0.84024   0.33380   0.00000  Uiso   1.00
O428   O     0.07463   0.83099   0.32446   0.00000  Uiso   1.00
O429   O     0.27592   0.76296   0.25577   0.00000  Uiso   1.00
O430   O     0.03565   0.75371   0.24643   0.00000  Uiso   1.00
O431   O     0.25870   0.83567   0.17554   0.00000  Uiso   1.00
O432   O     0.01843   0.82642   0.16620   0.00000  Uiso   1.00
Zn433  Zn    0.27119   0.83951   0.25623   0.00000  Uiso   1.00
Zn434  Zn    0.06214   0.82716   0.24376   0.00000  Uiso   1.00
C435   C     0.34938   0.93155   0.25108   0.00000  Uiso   1.00
C436   C     0.39240   0.83781   0.41243   0.00000  Uiso   1.00
C437   C     0.36141   0.98588   0.25810   0.00000  Uiso   1.00
C438   C     0.37006   0.83489   0.35419   0.00000  Uiso   1.00
C439   C     0.64670   0.68102   0.25280   0.00000  Uiso   1.00
C440   C     0.65295   0.73532   0.25324   0.00000  Uiso   1.00
C441   C     0.62918   0.82613   0.14616   0.00000  Uiso   1.00
C442   C     0.62210   0.78700   0.00119   0.00000  Uiso   1.00
C443   C     0.60640   0.81211   0.08921   0.00000  Uiso   1.00
C444   C     0.36537   0.86970   0.44377   0.00000  Uiso   1.00
C445   C     0.39220   0.88265   0.49737   0.00000  Uiso   1.00
C446   C     0.47206   0.82911   0.49014   0.00000  Uiso   1.00
C447   C     0.44551   0.86326   0.02031   0.00000  Uiso   1.00
C448   C     0.56663   0.74596   0.38915   0.00000  Uiso   1.00
C449   C     0.57677   0.69144   0.40780   0.00000  Uiso   1.00
C450   C     0.50085   0.78493   0.09944   0.00000  Uiso   1.00
C451   C     0.51741   0.73359   0.12387   0.00000  Uiso   1.00
C452   C     0.42634   0.67561   0.27184   0.00000  Uiso   1.00
C453   C     0.47567   0.97387   0.29066   0.00000  Uiso   1.00
C454   C     0.44602   0.81651   0.43574   0.00000  Uiso   1.00
C455   C     0.52629   0.80965   0.01248   0.00000  Uiso   1.00
C456   C     0.56181   0.79084   0.47886   0.00000  Uiso   1.00
C457   C     0.53479   0.77479   0.42536   0.00000  Uiso   1.00
C458   C     0.47542   0.78390   0.40625   0.00000  Uiso   1.00
C459   C     0.54531   0.80635   0.06792   0.00000  Uiso   1.00
C460   C     0.64490   0.80167   0.05539   0.00000  Uiso   1.00
F461   F     0.58992   0.99351   0.24108   0.00000  Uiso   1.00
F462   F     0.50973   0.87068   0.30819   0.00000  Uiso   1.00
H463   H     0.35861   0.80233   0.07130   0.00000  Uiso   1.00
H464   H     0.60015   0.67131   0.38050   0.00000  Uiso   1.00
H465   H     0.54090   0.74392   0.34663   0.00000  Uiso   1.00
H466   H     0.60936   0.76695   0.38844   0.00000  Uiso   1.00
H467   H     0.52055   0.70518   0.09128   0.00000  Uiso   1.00
H468   H     0.56011   0.73771   0.15360   0.00000  Uiso   1.00
H469   H     0.48293   0.71845   0.14467   0.00000  Uiso   1.00
H470   H     0.49419   0.81389   0.12964   0.00000  Uiso   1.00
H471   H     0.45669   0.77631   0.07235   0.00000  Uiso   1.00
H472   H     0.46654   0.95094   0.32458   0.00000  Uiso   1.00
H473   H     0.48275   0.94968   0.25626   0.00000  Uiso   1.00
H474   H     0.49078   0.79241   0.21037   0.00000  Uiso   1.00
H475   H     0.51757   0.99748   0.30495   0.00000  Uiso   1.00
H476   H     0.43653   0.69454   0.23581   0.00000  Uiso   1.00
H477   H     0.43114   0.70403   0.30597   0.00000  Uiso   1.00
H478   H     0.65220   0.77486   0.47719   0.00000  Uiso   1.00
H479   H     0.65824   0.88676   0.42602   0.00000  Uiso   1.00
H480   H     0.46655   0.87616   0.06140   0.00000  Uiso   1.00
H481   H     0.37219   0.90857   0.02092   0.00000  Uiso   1.00
H482   H     0.45336   0.76609   0.36787   0.00000  Uiso   1.00
H483   H     0.60416   0.69178   0.44955   0.00000  Uiso   1.00
H484   H     0.53391   0.66968   0.40690   0.00000  Uiso   1.00
N485   N     0.47827   0.81890   0.23542   0.00000  Uiso   1.00
N486   N     0.52173   0.84777   0.26457   0.00000  Uiso   1.00
O487   O     0.63102   0.91296   0.25357   0.00000  Uiso   1.00
O488   O     0.39075   0.90371   0.24423   0.00000  Uiso   1.00
O489   O     0.64823   0.84024   0.33380   0.00000  Uiso   1.00
O490   O     0.40796   0.83099   0.32446   0.00000  Uiso   1.00
O491   O     0.60925   0.76296   0.25577   0.00000  Uiso   1.00
O492   O     0.36898   0.75371   0.24643   0.00000  Uiso   1.00
O493   O     0.59204   0.83567   0.17554   0.00000  Uiso   1.00
O494   O     0.35177   0.82642   0.16620   0.00000  Uiso   1.00
Zn495  Zn    0.60453   0.83951   0.25623   0.00000  Uiso   1.00
Zn496  Zn    0.39547   0.82716   0.24376   0.00000  Uiso   1.00
C497   C     0.68272   0.93155   0.25108   0.00000  Uiso   1.00
C498   C     0.72573   0.83781   0.41243   0.00000  Uiso   1.00
C499   C     0.69474   0.98588   0.25810   0.00000  Uiso   1.00
C500   C     0.70339   0.83489   0.35419   0.00000  Uiso   1.00
C501   C     0.98003   0.68102   0.25280   0.00000  Uiso   1.00
C502   C     0.98629   0.73532   0.25324   0.00000  Uiso   1.00
C503   C     0.96251   0.82613   0.14616   0.00000  Uiso   1.00
C504   C     0.95543   0.78700   0.00119   0.00000  Uiso   1.00
C505   C     0.93973   0.81211   0.08921   0.00000  Uiso   1.00
C506   C     0.69871   0.86970   0.44377   0.00000  Uiso   1.00
C507   C     0.72553   0.88265   0.49737   0.00000  Uiso   1.00
C508   C     0.80539   0.82911   0.49014   0.00000  Uiso   1.00
C509   C     0.77884   0.86326   0.02031   0.00000  Uiso   1.00
C510   C     0.89996   0.74596   0.38915   0.00000  Uiso   1.00
C511   C     0.91010   0.69144   0.40780   0.00000  Uiso   1.00
C512   C     0.83419   0.78493   0.09944   0.00000  Uiso   1.00
C513   C     0.85075   0.73359   0.12387   0.00000  Uiso   1.00
C514   C     0.75967   0.67561   0.27184   0.00000  Uiso   1.00
C515   C     0.80900   0.97387   0.29066   0.00000  Uiso   1.00
C516   C     0.77936   0.81651   0.43574   0.00000  Uiso   1.00
C517   C     0.85962   0.80965   0.01248   0.00000  Uiso   1.00
C518   C     0.89514   0.79084   0.47886   0.00000  Uiso   1.00
C519   C     0.86812   0.77479   0.42536   0.00000  Uiso   1.00
C520   C     0.80875   0.78390   0.40625   0.00000  Uiso   1.00
C521   C     0.87864   0.80635   0.06792   0.00000  Uiso   1.00
C522   C     0.97823   0.80167   0.05539   0.00000  Uiso   1.00
F523   F     0.92326   0.99351   0.24108   0.00000  Uiso   1.00
F524   F     0.84307   0.87068   0.30819   0.00000  Uiso   1.00
H525   H     0.69194   0.80233   0.07130   0.00000  Uiso   1.00
H526   H     0.93348   0.67131   0.38050   0.00000  Uiso   1.00
H527   H     0.87424   0.74392   0.34663   0.00000  Uiso   1.00
H528   H     0.94269   0.76695   0.38844   0.00000  Uiso   1.00
H529   H     0.85388   0.70518   0.09128   0.00000  Uiso   1.00
H530   H     0.89344   0.73771   0.15360   0.00000  Uiso   1.00
H531   H     0.81626   0.71845   0.14467   0.00000  Uiso   1.00
H532   H     0.82752   0.81389   0.12964   0.00000  Uiso   1.00
H533   H     0.79003   0.77631   0.07235   0.00000  Uiso   1.00
H534   H     0.79987   0.95094   0.32458   0.00000  Uiso   1.00
H535   H     0.81608   0.94968   0.25626   0.00000  Uiso   1.00
H536   H     0.82411   0.79241   0.21037   0.00000  Uiso   1.00
H537   H     0.85091   0.99748   0.30495   0.00000  Uiso   1.00
H538   H     0.76987   0.69454   0.23581   0.00000  Uiso   1.00
H539   H     0.76448   0.70403   0.30597   0.00000  Uiso   1.00
H540   H     0.98553   0.77486   0.47719   0.00000  Uiso   1.00
H541   H     0.99157   0.88676   0.42602   0.00000  Uiso   1.00
H542   H     0.79988   0.87616   0.06140   0.00000  Uiso   1.00
H543   H     0.70552   0.90857   0.02092   0.00000  Uiso   1.00
H544   H     0.78670   0.76609   0.36787   0.00000  Uiso   1.00
H545   H     0.93749   0.69178   0.44955   0.00000  Uiso   1.00
H546   H     0.86724   0.66968   0.40690   0.00000  Uiso   1.00
N547   N     0.81160   0.81890   0.23542   0.00000  Uiso   1.00
N548   N     0.85507   0.84777   0.26457   0.00000  Uiso   1.00
O549   O     0.96435   0.91296   0.25357   0.00000  Uiso   1.00
O550   O     0.72408   0.90371   0.24423   0.00000  Uiso   1.00
O551   O     0.98157   0.84024   0.33380   0.00000  Uiso   1.00
O552   O     0.74130   0.83099   0.32446   0.00000  Uiso   1.00
O553   O     0.94258   0.76296   0.25577   0.00000  Uiso   1.00
O554   O     0.70231   0.75371   0.24643   0.00000  Uiso   1.00
O555   O     0.92537   0.83567   0.17554   0.00000  Uiso   1.00
O556   O     0.68510   0.82642   0.16620   0.00000  Uiso   1.00
Zn557  Zn    0.93786   0.83951   0.25623   0.00000  Uiso   1.00
Zn558  Zn    0.72881   0.82716   0.24376   0.00000  Uiso   1.00
C559   C     0.01605   0.26488   0.75108   0.00000  Uiso   1.00
C560   C     0.05907   0.17115   0.91243   0.00000  Uiso   1.00
C561   C     0.02808   0.31922   0.75810   0.00000  Uiso   1.00
C562   C     0.03672   0.16823   0.85419   0.00000  Uiso   1.00
C563   C     0.31337   0.01436   0.75280   0.00000  Uiso   1.00
C564   C     0.31962   0.06865   0.75324   0.00000  Uiso   1.00
C565   C     0.29584   0.15947   0.64616   0.00000  Uiso   1.00
C566   C     0.28877   0.12034   0.50119   0.00000  Uiso   1.00
C567   C     0.27307   0.14544   0.58921   0.00000  Uiso   1.00
C568   C     0.03204   0.20303   0.94377   0.00000  Uiso   1.00
C569   C     0.05886   0.21598   0.99737   0.00000  Uiso   1.00
C570   C     0.13872   0.16244   0.99014   0.00000  Uiso   1.00
C571   C     0.11218   0.19659   0.52031   0.00000  Uiso   1.00
C572   C     0.23330   0.07929   0.88915   0.00000  Uiso   1.00
C573   C     0.24343   0.02477   0.90780   0.00000  Uiso   1.00
C574   C     0.16752   0.11826   0.59944   0.00000  Uiso   1.00
C575   C     0.18408   0.06693   0.62387   0.00000  Uiso   1.00
C576   C     0.09301   0.00894   0.77184   0.00000  Uiso   1.00
C577   C     0.14233   0.30720   0.79066   0.00000  Uiso   1.00
C578   C     0.11269   0.14984   0.93574   0.00000  Uiso   1.00
C579   C     0.19296   0.14298   0.51248   0.00000  Uiso   1.00
C580   C     0.22848   0.12417   0.97886   0.00000  Uiso   1.00
C581   C     0.20145   0.10812   0.92536   0.00000  Uiso   1.00
C582   C     0.14209   0.11724   0.90625   0.00000  Uiso   1.00
C583   C     0.21197   0.13968   0.56792   0.00000  Uiso   1.00
C584   C     0.31156   0.13501   0.55539   0.00000  Uiso   1.00
F585   F     0.25659   0.32684   0.74108   0.00000  Uiso   1.00
F586   F     0.17640   0.20401   0.80819   0.00000  Uiso   1.00
H587   H     0.02528   0.13567   0.57130   0.00000  Uiso   1.00
H588   H     0.26681   0.00464   0.88050   0.00000  Uiso   1.00
H589   H     0.20757   0.07725   0.84663   0.00000  Uiso   1.00
H590   H     0.27603   0.10028   0.88844   0.00000  Uiso   1.00
H591   H     0.18721   0.03852   0.59128   0.00000  Uiso   1.00
H592   H     0.22678   0.07105   0.65360   0.00000  Uiso   1.00
H593   H     0.14959   0.05178   0.64467   0.00000  Uiso   1.00
H594   H     0.16086   0.14722   0.62964   0.00000  Uiso   1.00
H595   H     0.12336   0.10965   0.57235   0.00000  Uiso   1.00
H596   H     0.13321   0.28427   0.82458   0.00000  Uiso   1.00
H597   H     0.14942   0.28301   0.75626   0.00000  Uiso   1.00
H598   H     0.15745   0.12574   0.71037   0.00000  Uiso   1.00
H599   H     0.18424   0.33081   0.80495   0.00000  Uiso   1.00
H600   H     0.10320   0.02787   0.73581   0.00000  Uiso   1.00
H601   H     0.09781   0.03736   0.80597   0.00000  Uiso   1.00
H602   H     0.31887   0.10820   0.97719   0.00000  Uiso   1.00
H603   H     0.32490   0.22009   0.92602   0.00000  Uiso   1.00
H604   H     0.13322   0.20949   0.56140   0.00000  Uiso   1.00
H605   H     0.03885   0.24191   0.52092   0.00000  Uiso   1.00
H606   H     0.12003   0.09942   0.86787   0.00000  Uiso   1.00
H607   H     0.27082   0.02511   0.94955   0.00000  Uiso   1.00
H608   H     0.20057   0.00301   0.90690   0.00000  Uiso   1.00
N609   N     0.14493   0.15223   0.73542   0.00000  Uiso   1.00
N610   N     0.18840   0.18110   0.76457   0.00000  Uiso   1.00
O611   O     0.29769   0.24629   0.75357   0.00000  Uiso   1.00
O612   O     0.05742   0.23704   0.74423   0.00000  Uiso   1.00
O613   O     0.31490   0.17358   0.83380   0.00000  Uiso   1.00
O614   O     0.07463   0.16433   0.82446   0.00000  Uiso   1.00
O615   O     0.27592   0.09629   0.75577   0.00000  Uiso   1.00
O616   O     0.03565   0.08704   0.74643   0.00000  Uiso   1.00
O617   O     0.25870   0.16901   0.67554   0.00000  Uiso   1.00
O618   O     0.01843   0.15976   0.66620   0.00000  Uiso   1.00
Zn619  Zn    0.27119   0.17284   0.75623   0.00000  Uiso   1.00
Zn620  Zn    0.06214   0.16049   0.74376   0.00000  Uiso   1.00
C621   C     0.34938   0.26488   0.75108   0.00000  Uiso   1.00
C622   C     0.39240   0.17115   0.91243   0.00000  Uiso   1.00
C623   C     0.36141   0.31922   0.75810   0.00000  Uiso   1.00
C624   C     0.37006   0.16823   0.85419   0.00000  Uiso   1.00
C625   C     0.64670   0.01436   0.75280   0.00000  Uiso   1.00
C626   C     0.65295   0.06865   0.75324   0.00000  Uiso   1.00
C627   C     0.62918   0.15947   0.64616   0.00000  Uiso   1.00
C628   C     0.62210   0.12034   0.50119   0.00000  Uiso   1.00
C629   C     0.60640   0.14544   0.58921   0.00000  Uiso   1.00
C630   C     0.36537   0.20303   0.94377   0.00000  Uiso   1.00
C631   C     0.39220   0.21598   0.99737   0.00000  Uiso   1.00
C632   C     0.47206   0.16244   0.99014   0.00000  Uiso   1.00
C633   C     0.44551   0.19659   0.52031   0.00000  Uiso   1.00
C634   C     0.56663   0.07929   0.88915   0.00000  Uiso   1.00
C635   C     0.57677   0.02477   0.90780   0.00000  Uiso   1.00
C636   C     0.50085   0.11826   0.59944   0.00000  Uiso   1.00
C637   C     0.51741   0.06693   0.62387   0.00000  Uiso   1.00
C638   C     0.42634   0.00894   0.77184   0.00000  Uiso   1.00
C639   C     0.47567   0.30720   0.79066   0.00000  Uiso   1.00
C640   C     0.44602   0.14984   0.93574   0.00000  Uiso   1.00
C641   C     0.52629   0.14298   0.51248   0.00000  Uiso   1.00
C642   C     0.56181   0.12417   0.97886   0.00000  Uiso   1.00
C643   C     0.53479   0.10812   0.92536   0.00000  Uiso   1.00
C644   C     0.47542   0.11724   0.90625   0.00000  Uiso   1.00
C645   C     0.54531   0.13968   0.56792   0.00000  Uiso   1.00
C646   C     0.64490   0.13501   0.55539   0.00000  Uiso   1.00
F647   F     0.58992   0.32684   0.74108   0.00000  Uiso   1.00
F648   F     0.50973   0.20401   0.80819   0.00000  Uiso   1.00
H649   H     0.35861   0.13567   0.57130   0.00000  Uiso   1.00
H650   H     0.60015   0.00464   0.88050   0.00000  Uiso   1.00
H651   H     0.54090   0.07725   0.84663   0.00000  Uiso   1.00
H652   H     0.60936   0.10028   0.88844   0.00000  Uiso   1.00
H653   H     0.52055   0.03852   0.59128   0.00000  Uiso   1.00
H654   H     0.56011   0.07105   0.65360   0.00000  Uiso   1.00
H655   H     0.48293   0.05178   0.64467   0.00000  Uiso   1.00
H656   H     0.49419   0.14722   0.62964   0.00000  Uiso   1.00
H657   H     0.45669   0.10965   0.57235   0.00000  Uiso   1.00
H658   H     0.46654   0.28427   0.82458   0.00000  Uiso   1.00
H659   H     0.48275   0.28301   0.75626   0.00000  Uiso   1.00
H660   H     0.49078   0.12574   0.71037   0.00000  Uiso   1.00
H661   H     0.51757   0.33081   0.80495   0.00000  Uiso   1.00
H662   H     0.43653   0.02787   0.73581   0.00000  Uiso   1.00
H663   H     0.43114   0.03736   0.80597   0.00000  Uiso   1.00
H664   H     0.65220   0.10820   0.97719   0.00000  Uiso   1.00
H665   H     0.65824   0.22009   0.92602   0.00000  Uiso   1.00
H666   H     0.46655   0.20949   0.56140   0.00000  Uiso   1.00
H667   H     0.37219   0.24191   0.52092   0.00000  Uiso   1.00
H668   H     0.45336   0.09942   0.86787   0.00000  Uiso   1.00
H669   H     0.60416   0.02511   0.94955   0.00000  Uiso   1.00
H670   H     0.53391   0.00301   0.90690   0.00000  Uiso   1.00
N671   N     0.47827   0.15223   0.73542   0.00000  Uiso   1.00
N672   N     0.52173   0.18110   0.76457   0.00000  Uiso   1.00
O673   O     0.63102   0.24629   0.75357   0.00000  Uiso   1.00
O674   O     0.39075   0.23704   0.74423   0.00000  Uiso   1.00
O675   O     0.64823   0.17358   0.83380   0.00000  Uiso   1.00
O676   O     0.40796   0.16433   0.82446   0.00000  Uiso   1.00
O677   O     0.60925   0.09629   0.75577   0.00000  Uiso   1.00
O678   O     0.36898   0.08704   0.74643   0.00000  Uiso   1.00
O679   O     0.59204   0.16901   0.67554   0.00000  Uiso   1.00
O680   O     0.35177   0.15976   0.66620   0.00000  Uiso   1.00
Zn681  Zn    0.60453   0.17284   0.75623   0.00000  Uiso   1.00
Zn682  Zn    0.39547   0.16049   0.74376   0.00000  Uiso   1.00
C683   C     0.68272   0.26488   0.75108   0.00000  Uiso   1.00
C684   C     0.72573   0.17115   0.91243   0.00000  Uiso   1.00
C685   C     0.69474   0.31922   0.75810   0.00000  Uiso   1.00
C686   C     0.70339   0.16823   0.85419   0.00000  Uiso   1.00
C687   C     0.98003   0.01436   0.75280   0.00000  Uiso   1.00
C688   C     0.98629   0.06865   0.75324   0.00000  Uiso   1.00
C689   C     0.96251   0.15947   0.64616   0.00000  Uiso   1.00
C690   C     0.95543   0.12034   0.50119   0.00000  Uiso   1.00
C691   C     0.93973   0.14544   0.58921   0.00000  Uiso   1.00
C692   C     0.69871   0.20303   0.94377   0.00000  Uiso   1.00
C693   C     0.72553   0.21598   0.99737   0.00000  Uiso   1.00
C694   C     0.80539   0.16244   0.99014   0.00000  Uiso   1.00
C695   C     0.77884   0.19659   0.52031   0.00000  Uiso   1.00
C696   C     0.89996   0.07929   0.88915   0.00000  Uiso   1.00
C697   C     0.91010   0.02477   0.90780   0.00000  Uiso   1.00
C698   C     0.83419   0.11826   0.59944   0.00000  Uiso   1.00
C699   C     0.85075   0.06693   0.62387   0.00000  Uiso   1.00
C700   C     0.75967   0.00894   0.77184   0.00000  Uiso   1.00
C701   C     0.80900   0.30720   0.79066   0.00000  Uiso   1.00
C702   C     0.77936   0.14984   0.93574   0.00000  Uiso   1.00
C703   C     0.85962   0.14298   0.51248   0.00000  Uiso   1.00
C704   C     0.89514   0.12417   0.97886   0.00000  Uiso   1.00
C705   C     0.86812   0.10812   0.92536   0.00000  Uiso   1.00
C706   C     0.80875   0.11724   0.90625   0.00000  Uiso   1.00
C707   C     0.87864   0.13968   0.56792   0.00000  Uiso   1.00
C708   C     0.97823   0.13501   0.55539   0.00000  Uiso   1.00
F709   F     0.92326   0.32684   0.74108   0.00000  Uiso   1.00
F710   F     0.84307   0.20401   0.80819   0.00000  Uiso   1.00
H711   H     0.69194   0.13567   0.57130   0.00000  Uiso   1.00
H712   H     0.93348   0.00464   0.88050   0.00000  Uiso   1.00
H713   H     0.87424   0.07725   0.84663   0.00000  Uiso   1.00
H714   H     0.94269   0.10028   0.88844   0.00000  Uiso   1.00
H715   H     0.85388   0.03852   0.59128   0.00000  Uiso   1.00
H716   H     0.89344   0.07105   0.65360   0.00000  Uiso   1.00
H717   H     0.81626   0.05178   0.64467   0.00000  Uiso   1.00
H718   H     0.82752   0.14722   0.62964   0.00000  Uiso   1.00
H719   H     0.79003   0.10965   0.57235   0.00000  Uiso   1.00
H720   H     0.79987   0.28427   0.82458   0.00000  Uiso   1.00
H721   H     0.81608   0.28301   0.75626   0.00000  Uiso   1.00
H722   H     0.82411   0.12574   0.71037   0.00000  Uiso   1.00
H723   H     0.85091   0.33081   0.80495   0.00000  Uiso   1.00
H724   H     0.76987   0.02787   0.73581   0.00000  Uiso   1.00
H725   H     0.76448   0.03736   0.80597   0.00000  Uiso   1.00
H726   H     0.98553   0.10820   0.97719   0.00000  Uiso   1.00
H727   H     0.99157   0.22009   0.92602   0.00000  Uiso   1.00
H728   H     0.79988   0.20949   0.56140   0.00000  Uiso   1.00
H729   H     0.70552   0.24191   0.52092   0.00000  Uiso   1.00
H730   H     0.78670   0.09942   0.86787   0.00000  Uiso   1.00
H731   H     0.93749   0.02511   0.94955   0.00000  Uiso   1.00
H732   H     0.86724   0.00301   0.90690   0.00000  Uiso   1.00
N733   N     0.81160   0.15223   0.73542   0.00000  Uiso   1.00
N734   N     0.85507   0.18110   0.76457   0.00000  Uiso   1.00
O735   O     0.96435   0.24629   0.75357   0.00000  Uiso   1.00
O736   O     0.72408   0.23704   0.74423   0.00000  Uiso   1.00
O737   O     0.98157   0.17358   0.83380   0.00000  Uiso   1.00
O738   O     0.74130   0.16433   0.82446   0.00000  Uiso   1.00
O739   O     0.94258   0.09629   0.75577   0.00000  Uiso   1.00
O740   O     0.70231   0.08704   0.74643   0.00000  Uiso   1.00
O741   O     0.92537   0.16901   0.67554   0.00000  Uiso   1.00
O742   O     0.68510   0.15976   0.66620   0.00000  Uiso   1.00
Zn743  Zn    0.93786   0.17284   0.75623   0.00000  Uiso   1.00
Zn744  Zn    0.72881   0.16049   0.74376   0.00000  Uiso   1.00
C745   C     0.01605   0.59822   0.75108   0.00000  Uiso   1.00
C746   C     0.05907   0.50448   0.91243   0.00000  Uiso   1.00
C747   C     0.02808   0.65255   0.75810   0.00000  Uiso   1.00
C748   C     0.03672   0.50156   0.85419   0.00000  Uiso   1.00
C749   C     0.31337   0.34769   0.75280   0.00000  Uiso   1.00
C750   C     0.31962   0.40199   0.75324   0.00000  Uiso   1.00
C751   C     0.29584   0.49280   0.64616   0.00000  Uiso   1.00
C752   C     0.28877   0.45367   0.50119   0.00000  Uiso   1.00
C753   C     0.27307   0.47877   0.58921   0.00000  Uiso   1.00
C754   C     0.03204   0.53636   0.94377   0.00000  Uiso   1.00
C755   C     0.05886   0.54931   0.99737   0.00000  Uiso   1.00
C756   C     0.13872   0.49578   0.99014   0.00000  Uiso   1.00
C757   C     0.11218   0.52993   0.52031   0.00000  Uiso   1.00
C758   C     0.23330   0.41262   0.88915   0.00000  Uiso   1.00
C759   C     0.24343   0.35811   0.90780   0.00000  Uiso   1.00
C760   C     0.16752   0.45160   0.59944   0.00000  Uiso   1.00
C761   C     0.18408   0.40026   0.62387   0.00000  Uiso   1.00
C762   C     0.09301   0.34227   0.77184   0.00000  Uiso   1.00
C763   C     0.14233   0.64053   0.79066   0.00000  Uiso   1.00
C764   C     0.11269   0.48317   0.93574   0.00000  Uiso   1.00
C765   C     0.19296   0.47632   0.51248   0.00000  Uiso   1.00
C766   C     0.22848   0.45750   0.97886   0.00000  Uiso   1.00
C767   C     0.20145   0.44145   0.92536   0.00000  Uiso   1.00
C768   C     0.14209   0.45057   0.90625   0.00000  Uiso   1.00
C769   C     0.21197   0.47302   0.56792   0.00000  Uiso   1.00
C770   C     0.31156   0.46834   0.55539   0.00000  Uiso   1.00
F771   F     0.25659   0.66017   0.74108   0.00000  Uiso   1.00
F772   F     0.17640   0.53734   0.80819   0.00000  Uiso   1.00
H773   H     0.02528   0.46900   0.57130   0.00000  Uiso   1.00
H774   H     0.26681   0.33797   0.88050   0.00000  Uiso   1.00
H775   H     0.20757   0.41058   0.84663   0.00000  Uiso   1.00
H776   H     0.27603   0.43362   0.88844   0.00000  Uiso   1.00
H777   H     0.18721   0.37185   0.59128   0.00000  Uiso   1.00
H778   H     0.22678   0.40438   0.65360   0.00000  Uiso   1.00
H779   H     0.14959   0.38512   0.64467   0.00000  Uiso   1.00
H780   H     0.16086   0.48056   0.62964   0.00000  Uiso   1.00
H781   H     0.12336   0.44298   0.57235   0.00000  Uiso   1.00
H782   H     0.13321   0.61760   0.82458   0.00000  Uiso   1.00
H783   H     0.14942   0.61634   0.75626   0.00000  Uiso   1.00
H784   H     0.15745   0.45907   0.71037   0.00000  Uiso   1.00
H785   H     0.18424   0.66415   0.80495   0.00000  Uiso   1.00
H786   H     0.10320   0.36121   0.73581   0.00000  Uiso   1.00
H787   H     0.09781   0.37070   0.80597   0.00000  Uiso   1.00
H788   H     0.31887   0.44153   0.97719   0.00000  Uiso   1.00
H789   H     0.32490   0.55343   0.92602   0.00000  Uiso   1.00
H790   H     0.13322   0.54283   0.56140   0.00000  Uiso   1.00
H791   H     0.03885   0.57524   0.52092   0.00000  Uiso   1.00
H792   H     0.12003   0.43276   0.86787   0.00000  Uiso   1.00
H793   H     0.27082   0.35845   0.94955   0.00000  Uiso   1.00
H794   H     0.20057   0.33634   0.90690   0.00000  Uiso   1.00
N795   N     0.14493   0.48556   0.73542   0.00000  Uiso   1.00
N796   N     0.18840   0.51444   0.76457   0.00000  Uiso   1.00
O797   O     0.29769   0.57963   0.75357   0.00000  Uiso   1.00
O798   O     0.05742   0.57038   0.74423   0.00000  Uiso   1.00
O799   O     0.31490   0.50691   0.83380   0.00000  Uiso   1.00
O800   O     0.07463   0.49766   0.82446   0.00000  Uiso   1.00
O801   O     0.27592   0.42962   0.75577   0.00000  Uiso   1.00
O802   O     0.03565   0.42037   0.74643   0.00000  Uiso   1.00
O803   O     0.25870   0.50234   0.67554   0.00000  Uiso   1.00
O804   O     0.01843   0.49309   0.66620   0.00000  Uiso   1.00
Zn805  Zn    0.27119   0.50618   0.75623   0.00000  Uiso   1.00
Zn806  Zn    0.06214   0.49382   0.74376   0.00000  Uiso   1.00
C807   C     0.34938   0.59822   0.75108   0.00000  Uiso   1.00
C808   C     0.39240   0.50448   0.91243   0.00000  Uiso   1.00
C809   C     0.36141   0.65255   0.75810   0.00000  Uiso   1.00
C810   C     0.37006   0.50156   0.85419   0.00000  Uiso   1.00
C811   C     0.64670   0.34769   0.75280   0.00000  Uiso   1.00
C812   C     0.65295   0.40199   0.75324   0.00000  Uiso   1.00
C813   C     0.62918   0.49280   0.64616   0.00000  Uiso   1.00
C814   C     0.62210   0.45367   0.50119   0.00000  Uiso   1.00
C815   C     0.60640   0.47877   0.58921   0.00000  Uiso   1.00
C816   C     0.36537   0.53636   0.94377   0.00000  Uiso   1.00
C817   C     0.39220   0.54931   0.99737   0.00000  Uiso   1.00
C818   C     0.47206   0.49578   0.99014   0.00000  Uiso   1.00
C819   C     0.44551   0.52993   0.52031   0.00000  Uiso   1.00
C820   C     0.56663   0.41262   0.88915   0.00000  Uiso   1.00
C821   C     0.57677   0.35811   0.90780   0.00000  Uiso   1.00
C822   C     0.50085   0.45160   0.59944   0.00000  Uiso   1.00
C823   C     0.51741   0.40026   0.62387   0.00000  Uiso   1.00
C824   C     0.42634   0.34227   0.77184   0.00000  Uiso   1.00
C825   C     0.47567   0.64053   0.79066   0.00000  Uiso   1.00
C826   C     0.44602   0.48317   0.93574   0.00000  Uiso   1.00
C827   C     0.52629   0.47632   0.51248   0.00000  Uiso   1.00
C828   C     0.56181   0.45750   0.97886   0.00000  Uiso   1.00
C829   C     0.53479   0.44145   0.92536   0.00000  Uiso   1.00
C830   C     0.47542   0.45057   0.90625   0.00000  Uiso   1.00
C831   C     0.54531   0.47302   0.56792   0.00000  Uiso   1.00
C832   C     0.64490   0.46834   0.55539   0.00000  Uiso   1.00
F833   F     0.58992   0.66017   0.74108   0.00000  Uiso   1.00
F834   F     0.50973   0.53734   0.80819   0.00000  Uiso   1.00
H835   H     0.35861   0.46900   0.57130   0.00000  Uiso   1.00
H836   H     0.60015   0.33797   0.88050   0.00000  Uiso   1.00
H837   H     0.54090   0.41058   0.84663   0.00000  Uiso   1.00
H838   H     0.60936   0.43362   0.88844   0.00000  Uiso   1.00
H839   H     0.52055   0.37185   0.59128   0.00000  Uiso   1.00
H840   H     0.56011   0.40438   0.65360   0.00000  Uiso   1.00
H841   H     0.48293   0.38512   0.64467   0.00000  Uiso   1.00
H842   H     0.49419   0.48056   0.62964   0.00000  Uiso   1.00
H843   H     0.45669   0.44298   0.57235   0.00000  Uiso   1.00
H844   H     0.46654   0.61760   0.82458   0.00000  Uiso   1.00
H845   H     0.48275   0.61634   0.75626   0.00000  Uiso   1.00
H846   H     0.49078   0.45907   0.71037   0.00000  Uiso   1.00
H847   H     0.51757   0.66415   0.80495   0.00000  Uiso   1.00
H848   H     0.43653   0.36121   0.73581   0.00000  Uiso   1.00
H849   H     0.43114   0.37070   0.80597   0.00000  Uiso   1.00
H850   H     0.65220   0.44153   0.97719   0.00000  Uiso   1.00
H851   H     0.65824   0.55343   0.92602   0.00000  Uiso   1.00
H852   H     0.46655   0.54283   0.56140   0.00000  Uiso   1.00
H853   H     0.37219   0.57524   0.52092   0.00000  Uiso   1.00
H854   H     0.45336   0.43276   0.86787   0.00000  Uiso   1.00
H855   H     0.60416   0.35845   0.94955   0.00000  Uiso   1.00
H856   H     0.53391   0.33634   0.90690   0.00000  Uiso   1.00
N857   N     0.47827   0.48556   0.73542   0.00000  Uiso   1.00
N858   N     0.52173   0.51444   0.76457   0.00000  Uiso   1.00
O859   O     0.63102   0.57963   0.75357   0.00000  Uiso   1.00
O860   O     0.39075   0.57038   0.74423   0.00000  Uiso   1.00
O861   O     0.64823   0.50691   0.83380   0.00000  Uiso   1.00
O862   O     0.40796   0.49766   0.82446   0.00000  Uiso   1.00
O863   O     0.60925   0.42962   0.75577   0.00000  Uiso   1.00
O864   O     0.36898   0.42037   0.74643   0.00000  Uiso   1.00
O865   O     0.59204   0.50234   0.67554   0.00000  Uiso   1.00
O866   O     0.35177   0.49309   0.66620   0.00000  Uiso   1.00
Zn867  Zn    0.60453   0.50618   0.75623   0.00000  Uiso   1.00
Zn868  Zn    0.39547   0.49382   0.74376   0.00000  Uiso   1.00
C869   C     0.68272   0.59822   0.75108   0.00000  Uiso   1.00
C870   C     0.72573   0.50448   0.91243   0.00000  Uiso   1.00
C871   C     0.69474   0.65255   0.75810   0.00000  Uiso   1.00
C872   C     0.70339   0.50156   0.85419   0.00000  Uiso   1.00
C873   C     0.98003   0.34769   0.75280   0.00000  Uiso   1.00
C874   C     0.98629   0.40199   0.75324   0.00000  Uiso   1.00
C875   C     0.96251   0.49280   0.64616   0.00000  Uiso   1.00
C876   C     0.95543   0.45367   0.50119   0.00000  Uiso   1.00
C877   C     0.93973   0.47877   0.58921   0.00000  Uiso   1.00
C878   C     0.69871   0.53636   0.94377   0.00000  Uiso   1.00
C879   C     0.72553   0.54931   0.99737   0.00000  Uiso   1.00
C880   C     0.80539   0.49578   0.99014   0.00000  Uiso   1.00
C881   C     0.77884   0.52993   0.52031   0.00000  Uiso   1.00
C882   C     0.89996   0.41262   0.88915   0.00000  Uiso   1.00
C883   C     0.91010   0.35811   0.90780   0.00000  Uiso   1.00
C884   C     0.83419   0.45160   0.59944   0.00000  Uiso   1.00
C885   C     0.85075   0.40026   0.62387   0.00000  Uiso   1.00
C886   C     0.75967   0.34227   0.77184   0.00000  Uiso   1.00
C887   C     0.80900   0.64053   0.79066   0.00000  Uiso   1.00
C888   C     0.77936   0.48317   0.93574   0.00000  Uiso   1.00
C889   C     0.85962   0.47632   0.51248   0.00000  Uiso   1.00
C890   C     0.89514   0.45750   0.97886   0.00000  Uiso   1.00
C891   C     0.86812   0.44145   0.92536   0.00000  Uiso   1.00
C892   C     0.80875   0.45057   0.90625   0.00000  Uiso   1.00
C893   C     0.87864   0.47302   0.56792   0.00000  Uiso   1.00
C894   C     0.97823   0.46834   0.55539   0.00000  Uiso   1.00
F895   F     0.92326   0.66017   0.74108   0.00000  Uiso   1.00
F896   F     0.84307   0.53734   0.80819   0.00000  Uiso   1.00
H897   H     0.69194   0.46900   0.57130   0.00000  Uiso   1.00
H898   H     0.93348   0.33797   0.88050   0.00000  Uiso   1.00
H899   H     0.87424   0.41058   0.84663   0.00000  Uiso   1.00
H900   H     0.94269   0.43362   0.88844   0.00000  Uiso   1.00
H901   H     0.85388   0.37185   0.59128   0.00000  Uiso   1.00
H902   H     0.89344   0.40438   0.65360   0.00000  Uiso   1.00
H903   H     0.81626   0.38512   0.64467   0.00000  Uiso   1.00
H904   H     0.82752   0.48056   0.62964   0.00000  Uiso   1.00
H905   H     0.79003   0.44298   0.57235   0.00000  Uiso   1.00
H906   H     0.79987   0.61760   0.82458   0.00000  Uiso   1.00
H907   H     0.81608   0.61634   0.75626   0.00000  Uiso   1.00
H908   H     0.82411   0.45907   0.71037   0.00000  Uiso   1.00
H909   H     0.85091   0.66415   0.80495   0.00000  Uiso   1.00
H910   H     0.76987   0.36121   0.73581   0.00000  Uiso   1.00
H911   H     0.76448   0.37070   0.80597   0.00000  Uiso   1.00
H912   H     0.98553   0.44153   0.97719   0.00000  Uiso   1.00
H913   H     0.99157   0.55343   0.92602   0.00000  Uiso   1.00
H914   H     0.79988   0.54283   0.56140   0.00000  Uiso   1.00
H915   H     0.70552   0.57524   0.52092   0.00000  Uiso   1.00
H916   H     0.78670   0.43276   0.86787   0.00000  Uiso   1.00
H917   H     0.93749   0.35845   0.94955   0.00000  Uiso   1.00
H918   H     0.86724   0.33634   0.90690   0.00000  Uiso   1.00
N919   N     0.81160   0.48556   0.73542   0.00000  Uiso   1.00
N920   N     0.85507   0.51444   0.76457   0.00000  Uiso   1.00
O921   O     0.96435   0.57963   0.75357   0.00000  Uiso   1.00
O922   O     0.72408   0.57038   0.74423   0.00000  Uiso   1.00
O923   O     0.98157   0.50691   0.83380   0.00000  Uiso   1.00
O924   O     0.74130   0.49766   0.82446   0.00000  Uiso   1.00
O925   O     0.94258   0.42962   0.75577   0.00000  Uiso   1.00
O926   O     0.70231   0.42037   0.74643   0.00000  Uiso   1.00
O927   O     0.92537   0.50234   0.67554   0.00000  Uiso   1.00
O928   O     0.68510   0.49309   0.66620   0.00000  Uiso   1.00
Zn929  Zn    0.93786   0.50618   0.75623   0.00000  Uiso   1.00
Zn930  Zn    0.72881   0.49382   0.74376   0.00000  Uiso   1.00
C931   C     0.01605   0.93155   0.75108   0.00000  Uiso   1.00
C932   C     0.05907   0.83781   0.91243   0.00000  Uiso   1.00
C933   C     0.02808   0.98588   0.75810   0.00000  Uiso   1.00
C934   C     0.03672   0.83489   0.85419   0.00000  Uiso   1.00
C935   C     0.31337   0.68102   0.75280   0.00000  Uiso   1.00
C936   C     0.31962   0.73532   0.75324   0.00000  Uiso   1.00
C937   C     0.29584   0.82613   0.64616   0.00000  Uiso   1.00
C938   C     0.28877   0.78700   0.50119   0.00000  Uiso   1.00
C939   C     0.27307   0.81211   0.58921   0.00000  Uiso   1.00
C940   C     0.03204   0.86970   0.94377   0.00000  Uiso   1.00
C941   C     0.05886   0.88265   0.99737   0.00000  Uiso   1.00
C942   C     0.13872   0.82911   0.99014   0.00000  Uiso   1.00
C943   C     0.11218   0.86326   0.52031   0.00000  Uiso   1.00
C944   C     0.23330   0.74596   0.88915   0.00000  Uiso   1.00
C945   C     0.24343   0.69144   0.90780   0.00000  Uiso   1.00
C946   C     0.16752   0.78493   0.59944   0.00000  Uiso   1.00
C947   C     0.18408   0.73359   0.62387   0.00000  Uiso   1.00
C948   C     0.09301   0.67561   0.77184   0.00000  Uiso   1.00
C949   C     0.14233   0.97387   0.79066   0.00000  Uiso   1.00
C950   C     0.11269   0.81651   0.93574   0.00000  Uiso   1.00
C951   C     0.19296   0.80965   0.51248   0.00000  Uiso   1.00
C952   C     0.22848   0.79084   0.97886   0.00000  Uiso   1.00
C953   C     0.20145   0.77479   0.92536   0.00000  Uiso   1.00
C954   C     0.14209   0.78390   0.90625   0.00000  Uiso   1.00
C955   C     0.21197   0.80635   0.56792   0.00000  Uiso   1.00
C956   C     0.31156   0.80167   0.55539   0.00000  Uiso   1.00
F957   F     0.25659   0.99351   0.74108   0.00000  Uiso   1.00
F958   F     0.17640   0.87068   0.80819   0.00000  Uiso   1.00
H959   H     0.02528   0.80233   0.57130   0.00000  Uiso   1.00
H960   H     0.26681   0.67131   0.88050   0.00000  Uiso   1.00
H961   H     0.20757   0.74392   0.84663   0.00000  Uiso   1.00
H962   H     0.27603   0.76695   0.88844   0.00000  Uiso   1.00
H963   H     0.18721   0.70518   0.59128   0.00000  Uiso   1.00
H964   H     0.22678   0.73771   0.65360   0.00000  Uiso   1.00
H965   H     0.14959   0.71845   0.64467   0.00000  Uiso   1.00
H966   H     0.16086   0.81389   0.62964   0.00000  Uiso   1.00
H967   H     0.12336   0.77631   0.57235   0.00000  Uiso   1.00
H968   H     0.13321   0.95094   0.82458   0.00000  Uiso   1.00
H969   H     0.14942   0.94968   0.75626   0.00000  Uiso   1.00
H970   H     0.15745   0.79241   0.71037   0.00000  Uiso   1.00
H971   H     0.18424   0.99748   0.80495   0.00000  Uiso   1.00
H972   H     0.10320   0.69454   0.73581   0.00000  Uiso   1.00
H973   H     0.09781   0.70403   0.80597   0.00000  Uiso   1.00
H974   H     0.31887   0.77486   0.97719   0.00000  Uiso   1.00
H975   H     0.32490   0.88676   0.92602   0.00000  Uiso   1.00
H976   H     0.13322   0.87616   0.56140   0.00000  Uiso   1.00
H977   H     0.03885   0.90857   0.52092   0.00000  Uiso   1.00
H978   H     0.12003   0.76609   0.86787   0.00000  Uiso   1.00
H979   H     0.27082   0.69178   0.94955   0.00000  Uiso   1.00
H980   H     0.20057   0.66968   0.90690   0.00000  Uiso   1.00
N981   N     0.14493   0.81890   0.73542   0.00000  Uiso   1.00
N982   N     0.18840   0.84777   0.76457   0.00000  Uiso   1.00
O983   O     0.29769   0.91296   0.75357   0.00000  Uiso   1.00
O984   O     0.05742   0.90371   0.74423   0.00000  Uiso   1.00
O985   O     0.31490   0.84024   0.83380   0.00000  Uiso   1.00
O986   O     0.07463   0.83099   0.82446   0.00000  Uiso   1.00
O987   O     0.27592   0.76296   0.75577   0.00000  Uiso   1.00
O988   O     0.03565   0.75371   0.74643   0.00000  Uiso   1.00
O989   O     0.25870   0.83567   0.67554   0.00000  Uiso   1.00
O990   O     0.01843   0.82642   0.66620   0.00000  Uiso   1.00
Zn991  Zn    0.27119   0.83951   0.75623   0.00000  Uiso   1.00
Zn992  Zn    0.06214   0.82716   0.74376   0.00000  Uiso   1.00
C993   C     0.34938   0.93155   0.75108   0.00000  Uiso   1.00
C994   C     0.39240   0.83781   0.91243   0.00000  Uiso   1.00
C995   C     0.36141   0.98588   0.75810   0.00000  Uiso   1.00
C996   C     0.37006   0.83489   0.85419   0.00000  Uiso   1.00
C997   C     0.64670   0.68102   0.75280   0.00000  Uiso   1.00
C998   C     0.65295   0.73532   0.75324   0.00000  Uiso   1.00
C999   C     0.62918   0.82613   0.64616   0.00000  Uiso   1.00
C1000  C     0.62210   0.78700   0.50119   0.00000  Uiso   1.00
C1001  C     0.60640   0.81211   0.58921   0.00000  Uiso   1.00
C1002  C     0.36537   0.86970   0.94377   0.00000  Uiso   1.00
C1003  C     0.39220   0.88265   0.99737   0.00000  Uiso   1.00
C1004  C     0.47206   0.82911   0.99014   0.00000  Uiso   1.00
C1005  C     0.44551   0.86326   0.52031   0.00000  Uiso   1.00
C1006  C     0.56663   0.74596   0.88915   0.00000  Uiso   1.00
C1007  C     0.57677   0.69144   0.90780   0.00000  Uiso   1.00
C1008  C     0.50085   0.78493   0.59944   0.00000  Uiso   1.00
C1009  C     0.51741   0.73359   0.62387   0.00000  Uiso   1.00
C1010  C     0.42634   0.67561   0.77184   0.00000  Uiso   1.00
C1011  C     0.47567   0.97387   0.79066   0.00000  Uiso   1.00
C1012  C     0.44602   0.81651   0.93574   0.00000  Uiso   1.00
C1013  C     0.52629   0.80965   0.51248   0.00000  Uiso   1.00
C1014  C     0.56181   0.79084   0.97886   0.00000  Uiso   1.00
C1015  C     0.53479   0.77479   0.92536   0.00000  Uiso   1.00
C1016  C     0.47542   0.78390   0.90625   0.00000  Uiso   1.00
C1017  C     0.54531   0.80635   0.56792   0.00000  Uiso   1.00
C1018  C     0.64490   0.80167   0.55539   0.00000  Uiso   1.00
F1019  F     0.58992   0.99351   0.74108   0.00000  Uiso   1.00
F1020  F     0.50973   0.87068   0.80819   0.00000  Uiso   1.00
H1021  H     0.35861   0.80233   0.57130   0.00000  Uiso   1.00
H1022  H     0.60015   0.67131   0.88050   0.00000  Uiso   1.00
H1023  H     0.54090   0.74392   0.84663   0.00000  Uiso   1.00
H1024  H     0.60936   0.76695   0.88844   0.00000  Uiso   1.00
H1025  H     0.52055   0.70518   0.59128   0.00000  Uiso   1.00
H1026  H     0.56011   0.73771   0.65360   0.00000  Uiso   1.00
H1027  H     0.48293   0.71845   0.64467   0.00000  Uiso   1.00
H1028  H     0.49419   0.81389   0.62964   0.00000  Uiso   1.00
H1029  H     0.45669   0.77631   0.57235   0.00000  Uiso   1.00
H1030  H     0.46654   0.95094   0.82458   0.00000  Uiso   1.00
H1031  H     0.48275   0.94968   0.75626   0.00000  Uiso   1.00
H1032  H     0.49078   0.79241   0.71037   0.00000  Uiso   1.00
H1033  H     0.51757   0.99748   0.80495   0.00000  Uiso   1.00
H1034  H     0.43653   0.69454   0.73581   0.00000  Uiso   1.00
H1035  H     0.43114   0.70403   0.80597   0.00000  Uiso   1.00
H1036  H     0.65220   0.77486   0.97719   0.00000  Uiso   1.00
H1037  H     0.65824   0.88676   0.92602   0.00000  Uiso   1.00
H1038  H     0.46655   0.87616   0.56140   0.00000  Uiso   1.00
H1039  H     0.37219   0.90857   0.52092   0.00000  Uiso   1.00
H1040  H     0.45336   0.76609   0.86787   0.00000  Uiso   1.00
H1041  H     0.60416   0.69178   0.94955   0.00000  Uiso   1.00
H1042  H     0.53391   0.66968   0.90690   0.00000  Uiso   1.00
N1043  N     0.47827   0.81890   0.73542   0.00000  Uiso   1.00
N1044  N     0.52173   0.84777   0.76457   0.00000  Uiso   1.00
O1045  O     0.63102   0.91296   0.75357   0.00000  Uiso   1.00
O1046  O     0.39075   0.90371   0.74423   0.00000  Uiso   1.00
O1047  O     0.64823   0.84024   0.83380   0.00000  Uiso   1.00
O1048  O     0.40796   0.83099   0.82446   0.00000  Uiso   1.00
O1049  O     0.60925   0.76296   0.75577   0.00000  Uiso   1.00
O1050  O     0.36898   0.75371   0.74643   0.00000  Uiso   1.00
O1051  O     0.59204   0.83567   0.67554   0.00000  Uiso   1.00
O1052  O     0.35177   0.82642   0.66620   0.00000  Uiso   1.00
Zn1053 Zn    0.60453   0.83951   0.75623   0.00000  Uiso   1.00
Zn1054 Zn    0.39547   0.82716   0.74376   0.00000  Uiso   1.00
C1055  C     0.68272   0.93155   0.75108   0.00000  Uiso   1.00
C1056  C     0.72573   0.83781   0.91243   0.00000  Uiso   1.00
C1057  C     0.69474   0.98588   0.75810   0.00000  Uiso   1.00
C1058  C     0.70339   0.83489   0.85419   0.00000  Uiso   1.00
C1059  C     0.98003   0.68102   0.75280   0.00000  Uiso   1.00
C1060  C     0.98629   0.73532   0.75324   0.00000  Uiso   1.00
C1061  C     0.96251   0.82613   0.64616   0.00000  Uiso   1.00
C1062  C     0.95543   0.78700   0.50119   0.00000  Uiso   1.00
C1063  C     0.93973   0.81211   0.58921   0.00000  Uiso   1.00
C1064  C     0.69871   0.86970   0.94377   0.00000  Uiso   1.00
C1065  C     0.72553   0.88265   0.99737   0.00000  Uiso   1.00
C1066  C     0.80539   0.82911   0.99014   0.00000  Uiso   1.00
C1067  C     0.77884   0.86326   0.52031   0.00000  Uiso   1.00
C1068  C     0.89996   0.74596   0.88915   0.00000  Uiso   1.00
C1069  C     0.91010   0.69144   0.90780   0.00000  Uiso   1.00
C1070  C     0.83419   0.78493   0.59944   0.00000  Uiso   1.00
C1071  C     0.85075   0.73359   0.62387   0.00000  Uiso   1.00
C1072  C     0.75967   0.67561   0.77184   0.00000  Uiso   1.00
C1073  C     0.80900   0.97387   0.79066   0.00000  Uiso   1.00
C1074  C     0.77936   0.81651   0.93574   0.00000  Uiso   1.00
C1075  C     0.85962   0.80965   0.51248   0.00000  Uiso   1.00
C1076  C     0.89514   0.79084   0.97886   0.00000  Uiso   1.00
C1077  C     0.86812   0.77479   0.92536   0.00000  Uiso   1.00
C1078  C     0.80875   0.78390   0.90625   0.00000  Uiso   1.00
C1079  C     0.87864   0.80635   0.56792   0.00000  Uiso   1.00
C1080  C     0.97823   0.80167   0.55539   0.00000  Uiso   1.00
F1081  F     0.92326   0.99351   0.74108   0.00000  Uiso   1.00
F1082  F     0.84307   0.87068   0.80819   0.00000  Uiso   1.00
H1083  H     0.69194   0.80233   0.57130   0.00000  Uiso   1.00
H1084  H     0.93348   0.67131   0.88050   0.00000  Uiso   1.00
H1085  H     0.87424   0.74392   0.84663   0.00000  Uiso   1.00
H1086  H     0.94269   0.76695   0.88844   0.00000  Uiso   1.00
H1087  H     0.85388   0.70518   0.59128   0.00000  Uiso   1.00
H1088  H     0.89344   0.73771   0.65360   0.00000  Uiso   1.00
H1089  H     0.81626   0.71845   0.64467   0.00000  Uiso   1.00
H1090  H     0.82752   0.81389   0.62964   0.00000  Uiso   1.00
H1091  H     0.79003   0.77631   0.57235   0.00000  Uiso   1.00
H1092  H     0.79987   0.95094   0.82458   0.00000  Uiso   1.00
H1093  H     0.81608   0.94968   0.75626   0.00000  Uiso   1.00
H1094  H     0.82411   0.79241   0.71037   0.00000  Uiso   1.00
H1095  H     0.85091   0.99748   0.80495   0.00000  Uiso   1.00
H1096  H     0.76987   0.69454   0.73581   0.00000  Uiso   1.00
H1097  H     0.76448   0.70403   0.80597   0.00000  Uiso   1.00
H1098  H     0.98553   0.77486   0.97719   0.00000  Uiso   1.00
H1099  H     0.99157   0.88676   0.92602   0.00000  Uiso   1.00
H1100  H     0.79988   0.87616   0.56140   0.00000  Uiso   1.00
H1101  H     0.70552   0.90857   0.52092   0.00000  Uiso   1.00
H1102  H     0.78670   0.76609   0.86787   0.00000  Uiso   1.00
H1103  H     0.93749   0.69178   0.94955   0.00000  Uiso   1.00
H1104  H     0.86724   0.66968   0.90690   0.00000  Uiso   1.00
N1105  N     0.81160   0.81890   0.73542   0.00000  Uiso   1.00
N1106  N     0.85507   0.84777   0.76457   0.00000  Uiso   1.00
O1107  O     0.96435   0.91296   0.75357   0.00000  Uiso   1.00
O1108  O     0.72408   0.90371   0.74423   0.00000  Uiso   1.00
O1109  O     0.98157   0.84024   0.83380   0.00000  Uiso   1.00
O1110  O     0.74130   0.83099   0.82446   0.00000  Uiso   1.00
O1111  O     0.94258   0.76296   0.75577   0.00000  Uiso   1.00
O1112  O     0.70231   0.75371   0.74643   0.00000  Uiso   1.00
O1113  O     0.92537   0.83567   0.67554   0.00000  Uiso   1.00
O1114  O     0.68510   0.82642   0.66620   0.00000  Uiso   1.00
Zn1115 Zn    0.93786   0.83951   0.75623   0.00000  Uiso   1.00
Zn1116 Zn    0.72881   0.82716   0.74376   0.00000  Uiso   1.00
loop_
_geom_bond_atom_site_label_1
_geom_bond_atom_site_label_2
_geom_bond_distance
_geom_bond_site_symmetry_2
_ccdc_geom_bond_type
C1     O54     1.284   .     A
C1     C3      1.426   .     S
C1     O177    1.283   1_455 S
C2     C4      1.450   .     S
C2     C20     1.419   .     A
C2     C10     1.404   .     A
C3     C315    1.371   1_455 S
C3     C204    1.552   .     S
C4     O56     1.286   .     A
C4     O179    1.296   1_455 S
C5     C6      1.415   .     S
C5     C437    1.371   1_545 S
C5     F399    1.363   1_545 S
C6     O57     1.299   .     A
C6     O120    1.265   .     S
C7     O59     1.290   .     A
C7     C9      1.450   .     S
C7     O122    1.291   .     S
C8     C26     1.391   .     A
C8     C580    1.407   1_554 S
C8     H602    1.080   1_554 S
C9     C25     1.405   .     A
C9     C26     1.402   .     A
C10    C11     1.386   .     A
C10    H169    1.084   1_455 S
C11    C571    1.388   .     S
C11    H605    1.083   .     S
C12    C20     1.398   .     A
C12    C571    1.415   .     S
C12    C579    1.403   .     S
C13    H46     1.082   .     S
C13    C569    1.388   1_554 S
C13    C570    1.415   1_554 S
C14    C23     1.513   .     S
C14    H31     1.110   .     S
C14    C15     1.530   .     S
C14    H32     1.108   .     S
C15    H30     1.110   .     S
C15    H49     1.109   .     S
C15    H50     1.111   .     S
C16    H37     1.110   .     S
C16    H36     1.102   .     S
C16    C25     1.527   .     S
C16    C17     1.531   .     S
C17    H33     1.111   .     S
C17    H34     1.106   .     S
C17    H35     1.110   .     S
C18    H42     1.112   .     S
C18    H43     1.104   .     S
C18    C375    1.552   1_545 S
C18    C391    1.522   1_545 S
C19    H38     1.110   .     S
C19    H41     1.103   .     S
C19    H39     1.109   .     S
C19    C204    1.522   .     S
C20    C24     1.420   .     A
C21    C25     1.384   .     A
C21    C570    1.403   1_554 S
C21    C580    1.410   1_554 S
C22    C23     1.402   .     A
C22    C566    1.407   .     S
C22    C579    1.410   .     S
C23    C24     1.402   .     A
C24    H48     1.072   .     S
C26    H91     1.082   .     S
F27    C191    1.363   .     S
F28    N52     1.332   .     S
H29    C150    1.082   1_455 S
H40    N51     1.024   .     S
H44    C566    1.080   .     S
H45    C72     1.084   .     S
H47    C569    1.083   1_554 S
N51    Zn62    2.012   .     S
N51    N52     1.295   .     D
N52    Zn61    2.012   .     S
O53    Zn61    1.982   .     S
O53    C63     1.283   .     S
O54    Zn62    2.009   .     S
O55    Zn61    2.004   .     S
O55    C66     1.296   .     S
O56    Zn62    1.998   .     S
O57    Zn61    2.009   .     S
O58    Zn62    1.982   .     S
O58    C130    1.265   1_455 S
O59    Zn61    1.998   .     S
O60    Zn62    2.004   .     S
O60    C131    1.291   1_455 S
C63    O116    1.284   .     A
C63    C65     1.426   .     S
C64    C66     1.450   .     S
C64    C82     1.419   .     A
C64    C72     1.404   .     A
C65    C191    1.371   .     S
C65    C266    1.552   .     S
C66    O118    1.286   .     A
C67    C68     1.415   .     S
C67    C499    1.371   1_545 S
C67    F461    1.363   1_545 S
C68    O119    1.299   .     A
C68    O182    1.265   .     S
C69    O121    1.290   .     A
C69    C71     1.450   .     S
C69    O184    1.291   .     S
C70    C88     1.391   .     A
C70    C642    1.407   1_554 S
C70    H664    1.080   1_554 S
C71    C87     1.405   .     A
C71    C88     1.402   .     A
C72    C73     1.386   .     A
C73    C633    1.388   .     S
C73    H667    1.083   .     S
C74    C82     1.398   .     A
C74    C633    1.415   .     S
C74    C641    1.403   .     S
C75    H108    1.082   .     S
C75    C631    1.388   1_554 S
C75    C632    1.415   1_554 S
C76    C85     1.513   .     S
C76    H93     1.110   .     S
C76    C77     1.530   .     S
C76    H94     1.108   .     S
C77    H92     1.110   .     S
C77    H111    1.109   .     S
C77    H112    1.111   .     S
C78    H99     1.110   .     S
C78    H98     1.102   .     S
C78    C87     1.527   .     S
C78    C79     1.531   .     S
C79    H95     1.111   .     S
C79    H96     1.106   .     S
C79    H97     1.110   .     S
C80    H104    1.112   .     S
C80    H105    1.104   .     S
C80    C437    1.552   1_545 S
C80    C453    1.522   1_545 S
C81    H100    1.110   .     S
C81    H103    1.103   .     S
C81    H101    1.109   .     S
C81    C266    1.522   .     S
C82    C86     1.420   .     A
C83    C87     1.384   .     A
C83    C632    1.403   1_554 S
C83    C642    1.410   1_554 S
C84    C85     1.402   .     A
C84    C628    1.407   .     S
C84    C641    1.410   .     S
C85    C86     1.402   .     A
C86    H110    1.072   .     S
C88    H153    1.082   .     S
F89    C253    1.363   .     S
F90    N114    1.332   .     S
H102   N113    1.024   .     S
H106   C628    1.080   .     S
H107   C134    1.084   .     S
H109   C631    1.083   1_554 S
N113   Zn124   2.012   .     S
N113   N114    1.295   .     D
N114   Zn123   2.012   .     S
O115   Zn123   1.982   .     S
O115   C125    1.283   .     S
O116   Zn124   2.009   .     S
O117   Zn123   2.004   .     S
O117   C128    1.296   .     S
O118   Zn124   1.998   .     S
O119   Zn123   2.009   .     S
O120   Zn124   1.982   .     S
O121   Zn123   1.998   .     S
O122   Zn124   2.004   .     S
C125   O178    1.284   .     A
C125   C127    1.426   .     S
C126   C128    1.450   .     S
C126   C144    1.419   .     A
C126   C134    1.404   .     A
C127   C253    1.371   .     S
C127   C328    1.552   .     S
C128   O180    1.286   .     A
C129   C130    1.415   .     S
C129   C375    1.371   1_645 S
C129   F523    1.363   1_545 S
C130   O181    1.299   .     A
C130   O58     1.265   1_655 S
C131   O183    1.290   .     A
C131   C133    1.450   .     S
C131   O60     1.291   1_655 S
C132   C150    1.391   .     A
C132   C704    1.407   1_554 S
C132   H726    1.080   1_554 S
C133   C149    1.405   .     A
C133   C150    1.402   .     A
C134   C135    1.386   .     A
C135   C695    1.388   .     S
C135   H729    1.083   .     S
C136   C144    1.398   .     A
C136   C695    1.415   .     S
C136   C703    1.403   .     S
C137   H170    1.082   .     S
C137   C693    1.388   1_554 S
C137   C694    1.415   1_554 S
C138   C147    1.513   .     S
C138   H155    1.110   .     S
C138   C139    1.530   .     S
C138   H156    1.108   .     S
C139   H154    1.110   .     S
C139   H173    1.109   .     S
C139   H174    1.111   .     S
C140   H161    1.110   .     S
C140   H160    1.102   .     S
C140   C149    1.527   .     S
C140   C141    1.531   .     S
C141   H157    1.111   .     S
C141   H158    1.106   .     S
C141   H159    1.110   .     S
C142   H166    1.112   .     S
C142   H167    1.104   .     S
C142   C499    1.552   1_545 S
C142   C515    1.522   1_545 S
C143   H162    1.110   .     S
C143   H165    1.103   .     S
C143   H163    1.109   .     S
C143   C328    1.522   .     S
C144   C148    1.420   .     A
C145   C149    1.384   .     A
C145   C694    1.403   1_554 S
C145   C704    1.410   1_554 S
C146   C147    1.402   .     A
C146   C690    1.407   .     S
C146   C703    1.410   .     S
C147   C148    1.402   .     A
C148   H172    1.072   .     S
C150   H29     1.082   1_655 S
F151   C315    1.363   .     S
F152   N176    1.332   .     S
H164   N175    1.024   .     S
H168   C690    1.080   .     S
H169   C10     1.084   1_655 S
H171   C693    1.083   1_554 S
N175   Zn186   2.012   .     S
N175   N176    1.295   .     D
N176   Zn185   2.012   .     S
O177   Zn185   1.982   .     S
O177   C1      1.283   1_655 S
O178   Zn186   2.009   .     S
O179   Zn185   2.004   .     S
O179   C4      1.296   1_655 S
O180   Zn186   1.998   .     S
O181   Zn185   2.009   .     S
O182   Zn186   1.982   .     S
O183   Zn185   1.998   .     S
O184   Zn186   2.004   .     S
C187   O240    1.284   .     A
C187   C189    1.426   .     S
C187   O363    1.283   1_455 S
C188   C190    1.450   .     S
C188   C206    1.419   .     A
C188   C196    1.404   .     A
C189   C501    1.371   1_455 S
C189   C390    1.552   .     S
C190   O242    1.286   .     A
C190   O365    1.296   1_455 S
C191   C192    1.415   .     S
C192   O243    1.299   .     A
C192   O306    1.265   .     S
C193   O245    1.290   .     A
C193   C195    1.450   .     S
C193   O308    1.291   .     S
C194   C212    1.391   .     A
C194   C766    1.407   1_554 S
C194   H788    1.080   1_554 S
C195   C211    1.405   .     A
C195   C212    1.402   .     A
C196   C197    1.386   .     A
C196   H355    1.084   1_455 S
C197   C757    1.388   .     S
C197   H791    1.083   .     S
C198   C206    1.398   .     A
C198   C757    1.415   .     S
C198   C765    1.403   .     S
C199   H232    1.082   .     S
C199   C755    1.388   1_554 S
C199   C756    1.415   1_554 S
C200   C209    1.513   .     S
C200   H217    1.110   .     S
C200   C201    1.530   .     S
C200   H218    1.108   .     S
C201   H216    1.110   .     S
C201   H235    1.109   .     S
C201   H236    1.111   .     S
C202   H223    1.110   .     S
C202   H222    1.102   .     S
C202   C211    1.527   .     S
C202   C203    1.531   .     S
C203   H219    1.111   .     S
C203   H220    1.106   .     S
C203   H221    1.110   .     S
C204   H228    1.112   .     S
C204   H229    1.104   .     S
C205   H224    1.110   .     S
C205   H227    1.103   .     S
C205   H225    1.109   .     S
C205   C390    1.522   .     S
C206   C210    1.420   .     A
C207   C211    1.384   .     A
C207   C756    1.403   1_554 S
C207   C766    1.410   1_554 S
C208   C209    1.402   .     A
C208   C752    1.407   .     S
C208   C765    1.410   .     S
C209   C210    1.402   .     A
C210   H234    1.072   .     S
C212   H277    1.082   .     S
F213   C377    1.363   .     S
F214   N238    1.332   .     S
H215   C336    1.082   1_455 S
H226   N237    1.024   .     S
H230   C752    1.080   .     S
H231   C258    1.084   .     S
H233   C755    1.083   1_554 S
N237   Zn248   2.012   .     S
N237   N238    1.295   .     D
N238   Zn247   2.012   .     S
O239   Zn247   1.982   .     S
O239   C249    1.283   .     S
O240   Zn248   2.009   .     S
O241   Zn247   2.004   .     S
O241   C252    1.296   .     S
O242   Zn248   1.998   .     S
O243   Zn247   2.009   .     S
O244   Zn248   1.982   .     S
O244   C316    1.265   1_455 S
O245   Zn247   1.998   .     S
O246   Zn248   2.004   .     S
O246   C317    1.291   1_455 S
C249   O302    1.284   .     A
C249   C251    1.426   .     S
C250   C252    1.450   .     S
C250   C268    1.419   .     A
C250   C258    1.404   .     A
C251   C377    1.371   .     S
C251   C452    1.552   .     S
C252   O304    1.286   .     A
C253   C254    1.415   .     S
C254   O305    1.299   .     A
C254   O368    1.265   .     S
C255   O307    1.290   .     A
C255   C257    1.450   .     S
C255   O370    1.291   .     S
C256   C274    1.391   .     A
C256   C828    1.407   1_554 S
C256   H850    1.080   1_554 S
C257   C273    1.405   .     A
C257   C274    1.402   .     A
C258   C259    1.386   .     A
C259   C819    1.388   .     S
C259   H853    1.083   .     S
C260   C268    1.398   .     A
C260   C819    1.415   .     S
C260   C827    1.403   .     S
C261   H294    1.082   .     S
C261   C817    1.388   1_554 S
C261   C818    1.415   1_554 S
C262   C271    1.513   .     S
C262   H279    1.110   .     S
C262   C263    1.530   .     S
C262   H280    1.108   .     S
C263   H278    1.110   .     S
C263   H297    1.109   .     S
C263   H298    1.111   .     S
C264   H285    1.110   .     S
C264   H284    1.102   .     S
C264   C273    1.527   .     S
C264   C265    1.531   .     S
C265   H281    1.111   .     S
C265   H282    1.106   .     S
C265   H283    1.110   .     S
C266   H290    1.112   .     S
C266   H291    1.104   .     S
C267   H286    1.110   .     S
C267   H289    1.103   .     S
C267   H287    1.109   .     S
C267   C452    1.522   .     S
C268   C272    1.420   .     A
C269   C273    1.384   .     A
C269   C818    1.403   1_554 S
C269   C828    1.410   1_554 S
C270   C271    1.402   .     A
C270   C814    1.407   .     S
C270   C827    1.410   .     S
C271   C272    1.402   .     A
C272   H296    1.072   .     S
C274   H339    1.082   .     S
F275   C439    1.363   .     S
F276   N300    1.332   .     S
H288   N299    1.024   .     S
H292   C814    1.080   .     S
H293   C320    1.084   .     S
H295   C817    1.083   1_554 S
N299   Zn310   2.012   .     S
N299   N300    1.295   .     D
N300   Zn309   2.012   .     S
O301   Zn309   1.982   .     S
O301   C311    1.283   .     S
O302   Zn310   2.009   .     S
O303   Zn309   2.004   .     S
O303   C314    1.296   .     S
O304   Zn310   1.998   .     S
O305   Zn309   2.009   .     S
O306   Zn310   1.982   .     S
O307   Zn309   1.998   .     S
O308   Zn310   2.004   .     S
C311   O364    1.284   .     A
C311   C313    1.426   .     S
C312   C314    1.450   .     S
C312   C330    1.419   .     A
C312   C320    1.404   .     A
C313   C439    1.371   .     S
C313   C514    1.552   .     S
C314   O366    1.286   .     A
C315   C316    1.415   .     S
C315   C3      1.371   1_655 S
C316   O367    1.299   .     A
C316   O244    1.265   1_655 S
C317   O369    1.290   .     A
C317   C319    1.450   .     S
C317   O246    1.291   1_655 S
C318   C336    1.391   .     A
C318   C890    1.407   1_554 S
C318   H912    1.080   1_554 S
C319   C335    1.405   .     A
C319   C336    1.402   .     A
C320   C321    1.386   .     A
C321   C881    1.388   .     S
C321   H915    1.083   .     S
C322   C330    1.398   .     A
C322   C881    1.415   .     S
C322   C889    1.403   .     S
C323   H356    1.082   .     S
C323   C879    1.388   1_554 S
C323   C880    1.415   1_554 S
C324   C333    1.513   .     S
C324   H341    1.110   .     S
C324   C325    1.530   .     S
C324   H342    1.108   .     S
C325   H340    1.110   .     S
C325   H359    1.109   .     S
C325   H360    1.111   .     S
C326   H347    1.110   .     S
C326   H346    1.102   .     S
C326   C335    1.527   .     S
C326   C327    1.531   .     S
C327   H343    1.111   .     S
C327   H344    1.106   .     S
C327   H345    1.110   .     S
C328   H352    1.112   .     S
C328   H353    1.104   .     S
C329   H348    1.110   .     S
C329   H351    1.103   .     S
C329   H349    1.109   .     S
C329   C514    1.522   .     S
C330   C334    1.420   .     A
C331   C335    1.384   .     A
C331   C880    1.403   1_554 S
C331   C890    1.410   1_554 S
C332   C333    1.402   .     A
C332   C876    1.407   .     S
C332   C889    1.410   .     S
C333   C334    1.402   .     A
C334   H358    1.072   .     S
C336   H215    1.082   1_655 S
F337   C501    1.363   .     S
F338   N362    1.332   .     S
H350   N361    1.024   .     S
H354   C876    1.080   .     S
H355   C196    1.084   1_655 S
H357   C879    1.083   1_554 S
N361   Zn372   2.012   .     S
N361   N362    1.295   .     D
N362   Zn371   2.012   .     S
O363   Zn371   1.982   .     S
O363   C187    1.283   1_655 S
O364   Zn372   2.009   .     S
O365   Zn371   2.004   .     S
O365   C190    1.296   1_655 S
O366   Zn372   1.998   .     S
O367   Zn371   2.009   .     S
O368   Zn372   1.982   .     S
O369   Zn371   1.998   .     S
O370   Zn372   2.004   .     S
C373   O426    1.284   .     A
C373   C375    1.426   .     S
C373   O549    1.283   1_455 S
C374   C376    1.450   .     S
C374   C392    1.419   .     A
C374   C382    1.404   .     A
C375   C129    1.371   1_465 S
C375   C18     1.552   1_565 S
C376   O428    1.286   .     A
C376   O551    1.296   1_455 S
C377   C378    1.415   .     S
C378   O429    1.299   .     A
C378   O492    1.265   .     S
C379   O431    1.290   .     A
C379   C381    1.450   .     S
C379   O494    1.291   .     S
C380   C398    1.391   .     A
C380   C952    1.407   1_554 S
C380   H974    1.080   1_554 S
C381   C397    1.405   .     A
C381   C398    1.402   .     A
C382   C383    1.386   .     A
C382   H541    1.084   1_455 S
C383   C943    1.388   .     S
C383   H977    1.083   .     S
C384   C392    1.398   .     A
C384   C943    1.415   .     S
C384   C951    1.403   .     S
C385   H418    1.082   .     S
C385   C941    1.388   1_554 S
C385   C942    1.415   1_554 S
C386   C395    1.513   .     S
C386   H403    1.110   .     S
C386   C387    1.530   .     S
C386   H404    1.108   .     S
C387   H402    1.110   .     S
C387   H421    1.109   .     S
C387   H422    1.111   .     S
C388   H409    1.110   .     S
C388   H408    1.102   .     S
C388   C397    1.527   .     S
C388   C389    1.531   .     S
C389   H405    1.111   .     S
C389   H406    1.106   .     S
C389   H407    1.110   .     S
C390   H414    1.112   .     S
C390   H415    1.104   .     S
C391   H410    1.110   .     S
C391   H413    1.103   .     S
C391   H411    1.109   .     S
C391   C18     1.522   1_565 S
C392   C396    1.420   .     A
C393   C397    1.384   .     A
C393   C942    1.403   1_554 S
C393   C952    1.410   1_554 S
C394   C395    1.402   .     A
C394   C938    1.407   .     S
C394   C951    1.410   .     S
C395   C396    1.402   .     A
C396   H420    1.072   .     S
C398   H463    1.082   .     S
F399   C5      1.363   1_565 S
F400   N424    1.332   .     S
H401   C522    1.082   1_455 S
H412   N423    1.024   .     S
H416   C938    1.080   .     S
H417   C444    1.084   .     S
H419   C941    1.083   1_554 S
N423   Zn434   2.012   .     S
N423   N424    1.295   .     D
N424   Zn433   2.012   .     S
O425   Zn433   1.982   .     S
O425   C435    1.283   .     S
O426   Zn434   2.009   .     S
O427   Zn433   2.004   .     S
O427   C438    1.296   .     S
O428   Zn434   1.998   .     S
O429   Zn433   2.009   .     S
O430   Zn434   1.982   .     S
O430   C502    1.265   1_455 S
O431   Zn433   1.998   .     S
O432   Zn434   2.004   .     S
O432   C503    1.291   1_455 S
C435   O488    1.284   .     A
C435   C437    1.426   .     S
C436   C438    1.450   .     S
C436   C454    1.419   .     A
C436   C444    1.404   .     A
C437   C5      1.371   1_565 S
C437   C80     1.552   1_565 S
C438   O490    1.286   .     A
C439   C440    1.415   .     S
C440   O491    1.299   .     A
C440   O554    1.265   .     S
C441   O493    1.290   .     A
C441   C443    1.450   .     S
C441   O556    1.291   .     S
C442   C460    1.391   .     A
C442   C1014   1.407   1_554 S
C442   H1036   1.080   1_554 S
C443   C459    1.405   .     A
C443   C460    1.402   .     A
C444   C445    1.386   .     A
C445   C1005   1.388   .     S
C445   H1039   1.083   .     S
C446   C454    1.398   .     A
C446   C1005   1.415   .     S
C446   C1013   1.403   .     S
C447   H480    1.082   .     S
C447   C1003   1.388   1_554 S
C447   C1004   1.415   1_554 S
C448   C457    1.513   .     S
C448   H465    1.110   .     S
C448   C449    1.530   .     S
C448   H466    1.108   .     S
C449   H464    1.110   .     S
C449   H483    1.109   .     S
C449   H484    1.111   .     S
C450   H471    1.110   .     S
C450   H470    1.102   .     S
C450   C459    1.527   .     S
C450   C451    1.531   .     S
C451   H467    1.111   .     S
C451   H468    1.106   .     S
C451   H469    1.110   .     S
C452   H476    1.112   .     S
C452   H477    1.104   .     S
C453   H472    1.110   .     S
C453   H475    1.103   .     S
C453   H473    1.109   .     S
C453   C80     1.522   1_565 S
C454   C458    1.420   .     A
C455   C459    1.384   .     A
C455   C1004   1.403   1_554 S
C455   C1014   1.410   1_554 S
C456   C457    1.402   .     A
C456   C1000   1.407   .     S
C456   C1013   1.410   .     S
C457   C458    1.402   .     A
C458   H482    1.072   .     S
C460   H525    1.082   .     S
F461   C67     1.363   1_565 S
F462   N486    1.332   .     S
H474   N485    1.024   .     S
H478   C1000   1.080   .     S
H479   C506    1.084   .     S
H481   C1003   1.083   1_554 S
N485   Zn496   2.012   .     S
N485   N486    1.295   .     D
N486   Zn495   2.012   .     S
O487   Zn495   1.982   .     S
O487   C497    1.283   .     S
O488   Zn496   2.009   .     S
O489   Zn495   2.004   .     S
O489   C500    1.296   .     S
O490   Zn496   1.998   .     S
O491   Zn495   2.009   .     S
O492   Zn496   1.982   .     S
O493   Zn495   1.998   .     S
O494   Zn496   2.004   .     S
C497   O550    1.284   .     A
C497   C499    1.426   .     S
C498   C500    1.450   .     S
C498   C516    1.419   .     A
C498   C506    1.404   .     A
C499   C67     1.371   1_565 S
C499   C142    1.552   1_565 S
C500   O552    1.286   .     A
C501   C502    1.415   .     S
C501   C189    1.371   1_655 S
C502   O553    1.299   .     A
C502   O430    1.265   1_655 S
C503   O555    1.290   .     A
C503   C505    1.450   .     S
C503   O432    1.291   1_655 S
C504   C522    1.391   .     A
C504   C1076   1.407   1_554 S
C504   H1098   1.080   1_554 S
C505   C521    1.405   .     A
C505   C522    1.402   .     A
C506   C507    1.386   .     A
C507   C1067   1.388   .     S
C507   H1101   1.083   .     S
C508   C516    1.398   .     A
C508   C1067   1.415   .     S
C508   C1075   1.403   .     S
C509   H542    1.082   .     S
C509   C1065   1.388   1_554 S
C509   C1066   1.415   1_554 S
C510   C519    1.513   .     S
C510   H527    1.110   .     S
C510   C511    1.530   .     S
C510   H528    1.108   .     S
C511   H526    1.110   .     S
C511   H545    1.109   .     S
C511   H546    1.111   .     S
C512   H533    1.110   .     S
C512   H532    1.102   .     S
C512   C521    1.527   .     S
C512   C513    1.531   .     S
C513   H529    1.111   .     S
C513   H530    1.106   .     S
C513   H531    1.110   .     S
C514   H538    1.112   .     S
C514   H539    1.104   .     S
C515   H534    1.110   .     S
C515   H537    1.103   .     S
C515   H535    1.109   .     S
C515   C142    1.522   1_565 S
C516   C520    1.420   .     A
C517   C521    1.384   .     A
C517   C1066   1.403   1_554 S
C517   C1076   1.410   1_554 S
C518   C519    1.402   .     A
C518   C1062   1.407   .     S
C518   C1075   1.410   .     S
C519   C520    1.402   .     A
C520   H544    1.072   .     S
C522   H401    1.082   1_655 S
F523   C129    1.363   1_565 S
F524   N548    1.332   .     S
H536   N547    1.024   .     S
H540   C1062   1.080   .     S
H541   C382    1.084   1_655 S
H543   C1065   1.083   1_554 S
N547   Zn558   2.012   .     S
N547   N548    1.295   .     D
N548   Zn557   2.012   .     S
O549   Zn557   1.982   .     S
O549   C373    1.283   1_655 S
O550   Zn558   2.009   .     S
O551   Zn557   2.004   .     S
O551   C376    1.296   1_655 S
O552   Zn558   1.998   .     S
O553   Zn557   2.009   .     S
O554   Zn558   1.982   .     S
O555   Zn557   1.998   .     S
O556   Zn558   2.004   .     S
C559   O612    1.284   .     A
C559   C561    1.426   .     S
C559   O735    1.283   1_455 S
C560   C562    1.450   .     S
C560   C578    1.419   .     A
C560   C568    1.404   .     A
C561   C873    1.371   1_455 S
C561   C762    1.552   .     S
C562   O614    1.286   .     A
C562   O737    1.296   1_455 S
C563   C564    1.415   .     S
C563   C995    1.371   1_545 S
C563   F957    1.363   1_545 S
C564   O615    1.299   .     A
C564   O678    1.265   .     S
C565   O617    1.290   .     A
C565   C567    1.450   .     S
C565   O680    1.291   .     S
C566   C584    1.391   .     A
C567   C583    1.405   .     A
C567   C584    1.402   .     A
C568   C569    1.386   .     A
C568   H727    1.084   1_455 S
C569   C13     1.388   1_556 S
C569   H47     1.083   1_556 S
C570   C578    1.398   .     A
C570   C13     1.415   1_556 S
C570   C21     1.403   1_556 S
C571   H604    1.082   .     S
C572   C581    1.513   .     S
C572   H589    1.110   .     S
C572   C573    1.530   .     S
C572   H590    1.108   .     S
C573   H588    1.110   .     S
C573   H607    1.109   .     S
C573   H608    1.111   .     S
C574   H595    1.110   .     S
C574   H594    1.102   .     S
C574   C583    1.527   .     S
C574   C575    1.531   .     S
C575   H591    1.111   .     S
C575   H592    1.106   .     S
C575   H593    1.110   .     S
C576   H600    1.112   .     S
C576   H601    1.104   .     S
C576   C933    1.552   1_545 S
C576   C949    1.522   1_545 S
C577   H596    1.110   .     S
C577   H599    1.103   .     S
C577   H597    1.109   .     S
C577   C762    1.522   .     S
C578   C582    1.420   .     A
C579   C583    1.384   .     A
C580   C581    1.402   .     A
C580   C8      1.407   1_556 S
C580   C21     1.410   1_556 S
C581   C582    1.402   .     A
C582   H606    1.072   .     S
C584   H649    1.082   .     S
F585   C749    1.363   .     S
F586   N610    1.332   .     S
H587   C708    1.082   1_455 S
H598   N609    1.024   .     S
H602   C8      1.080   1_556 S
H603   C630    1.084   .     S
N609   Zn620   2.012   .     S
N609   N610    1.295   .     D
N610   Zn619   2.012   .     S
O611   Zn619   1.982   .     S
O611   C621    1.283   .     S
O612   Zn620   2.009   .     S
O613   Zn619   2.004   .     S
O613   C624    1.296   .     S
O614   Zn620   1.998   .     S
O615   Zn619   2.009   .     S
O616   Zn620   1.982   .     S
O616   C688    1.265   1_455 S
O617   Zn619   1.998   .     S
O618   Zn620   2.004   .     S
O618   C689    1.291   1_455 S
C621   O674    1.284   .     A
C621   C623    1.426   .     S
C622   C624    1.450   .     S
C622   C640    1.419   .     A
C622   C630    1.404   .     A
C623   C749    1.371   .     S
C623   C824    1.552   .     S
C624   O676    1.286   .     A
C625   C626    1.415   .     S
C625   C1057   1.371   1_545 S
C625   F1019   1.363   1_545 S
C626   O677    1.299   .     A
C626   O740    1.265   .     S
C627   O679    1.290   .     A
C627   C629    1.450   .     S
C627   O742    1.291   .     S
C628   C646    1.391   .     A
C629   C645    1.405   .     A
C629   C646    1.402   .     A
C630   C631    1.386   .     A
C631   C75     1.388   1_556 S
C631   H109    1.083   1_556 S
C632   C640    1.398   .     A
C632   C75     1.415   1_556 S
C632   C83     1.403   1_556 S
C633   H666    1.082   .     S
C634   C643    1.513   .     S
C634   H651    1.110   .     S
C634   C635    1.530   .     S
C634   H652    1.108   .     S
C635   H650    1.110   .     S
C635   H669    1.109   .     S
C635   H670    1.111   .     S
C636   H657    1.110   .     S
C636   H656    1.102   .     S
C636   C645    1.527   .     S
C636   C637    1.531   .     S
C637   H653    1.111   .     S
C637   H654    1.106   .     S
C637   H655    1.110   .     S
C638   H662    1.112   .     S
C638   H663    1.104   .     S
C638   C995    1.552   1_545 S
C638   C1011   1.522   1_545 S
C639   H658    1.110   .     S
C639   H661    1.103   .     S
C639   H659    1.109   .     S
C639   C824    1.522   .     S
C640   C644    1.420   .     A
C641   C645    1.384   .     A
C642   C643    1.402   .     A
C642   C70     1.407   1_556 S
C642   C83     1.410   1_556 S
C643   C644    1.402   .     A
C644   H668    1.072   .     S
C646   H711    1.082   .     S
F647   C811    1.363   .     S
F648   N672    1.332   .     S
H660   N671    1.024   .     S
H664   C70     1.080   1_556 S
H665   C692    1.084   .     S
N671   Zn682   2.012   .     S
N671   N672    1.295   .     D
N672   Zn681   2.012   .     S
O673   Zn681   1.982   .     S
O673   C683    1.283   .     S
O674   Zn682   2.009   .     S
O675   Zn681   2.004   .     S
O675   C686    1.296   .     S
O676   Zn682   1.998   .     S
O677   Zn681   2.009   .     S
O678   Zn682   1.982   .     S
O679   Zn681   1.998   .     S
O680   Zn682   2.004   .     S
C683   O736    1.284   .     A
C683   C685    1.426   .     S
C684   C686    1.450   .     S
C684   C702    1.419   .     A
C684   C692    1.404   .     A
C685   C811    1.371   .     S
C685   C886    1.552   .     S
C686   O738    1.286   .     A
C687   C688    1.415   .     S
C687   C933    1.371   1_645 S
C687   F1081   1.363   1_545 S
C688   O739    1.299   .     A
C688   O616    1.265   1_655 S
C689   O741    1.290   .     A
C689   C691    1.450   .     S
C689   O618    1.291   1_655 S
C690   C708    1.391   .     A
C691   C707    1.405   .     A
C691   C708    1.402   .     A
C692   C693    1.386   .     A
C693   C137    1.388   1_556 S
C693   H171    1.083   1_556 S
C694   C702    1.398   .     A
C694   C137    1.415   1_556 S
C694   C145    1.403   1_556 S
C695   H728    1.082   .     S
C696   C705    1.513   .     S
C696   H713    1.110   .     S
C696   C697    1.530   .     S
C696   H714    1.108   .     S
C697   H712    1.110   .     S
C697   H731    1.109   .     S
C697   H732    1.111   .     S
C698   H719    1.110   .     S
C698   H718    1.102   .     S
C698   C707    1.527   .     S
C698   C699    1.531   .     S
C699   H715    1.111   .     S
C699   H716    1.106   .     S
C699   H717    1.110   .     S
C700   H724    1.112   .     S
C700   H725    1.104   .     S
C700   C1057   1.552   1_545 S
C700   C1073   1.522   1_545 S
C701   H720    1.110   .     S
C701   H723    1.103   .     S
C701   H721    1.109   .     S
C701   C886    1.522   .     S
C702   C706    1.420   .     A
C703   C707    1.384   .     A
C704   C705    1.402   .     A
C704   C132    1.407   1_556 S
C704   C145    1.410   1_556 S
C705   C706    1.402   .     A
C706   H730    1.072   .     S
C708   H587    1.082   1_655 S
F709   C873    1.363   .     S
F710   N734    1.332   .     S
H722   N733    1.024   .     S
H726   C132    1.080   1_556 S
H727   C568    1.084   1_655 S
N733   Zn744   2.012   .     S
N733   N734    1.295   .     D
N734   Zn743   2.012   .     S
O735   Zn743   1.982   .     S
O735   C559    1.283   1_655 S
O736   Zn744   2.009   .     S
O737   Zn743   2.004   .     S
O737   C562    1.296   1_655 S
O738   Zn744   1.998   .     S
O739   Zn743   2.009   .     S
O740   Zn744   1.982   .     S
O741   Zn743   1.998   .     S
O742   Zn744   2.004   .     S
C745   O798    1.284   .     A
C745   C747    1.426   .     S
C745   O921    1.283   1_455 S
C746   C748    1.450   .     S
C746   C764    1.419   .     A
C746   C754    1.404   .     A
C747   C1059   1.371   1_455 S
C747   C948    1.552   .     S
C748   O800    1.286   .     A
C748   O923    1.296   1_455 S
C749   C750    1.415   .     S
C750   O801    1.299   .     A
C750   O864    1.265   .     S
C751   O803    1.290   .     A
C751   C753    1.450   .     S
C751   O866    1.291   .     S
C752   C770    1.391   .     A
C753   C769    1.405   .     A
C753   C770    1.402   .     A
C754   C755    1.386   .     A
C754   H913    1.084   1_455 S
C755   C199    1.388   1_556 S
C755   H233    1.083   1_556 S
C756   C764    1.398   .     A
C756   C199    1.415   1_556 S
C756   C207    1.403   1_556 S
C757   H790    1.082   .     S
C758   C767    1.513   .     S
C758   H775    1.110   .     S
C758   C759    1.530   .     S
C758   H776    1.108   .     S
C759   H774    1.110   .     S
C759   H793    1.109   .     S
C759   H794    1.111   .     S
C760   H781    1.110   .     S
C760   H780    1.102   .     S
C760   C769    1.527   .     S
C760   C761    1.531   .     S
C761   H777    1.111   .     S
C761   H778    1.106   .     S
C761   H779    1.110   .     S
C762   H786    1.112   .     S
C762   H787    1.104   .     S
C763   H782    1.110   .     S
C763   H785    1.103   .     S
C763   H783    1.109   .     S
C763   C948    1.522   .     S
C764   C768    1.420   .     A
C765   C769    1.384   .     A
C766   C767    1.402   .     A
C766   C194    1.407   1_556 S
C766   C207    1.410   1_556 S
C767   C768    1.402   .     A
C768   H792    1.072   .     S
C770   H835    1.082   .     S
F771   C935    1.363   .     S
F772   N796    1.332   .     S
H773   C894    1.082   1_455 S
H784   N795    1.024   .     S
H788   C194    1.080   1_556 S
H789   C816    1.084   .     S
N795   Zn806   2.012   .     S
N795   N796    1.295   .     D
N796   Zn805   2.012   .     S
O797   Zn805   1.982   .     S
O797   C807    1.283   .     S
O798   Zn806   2.009   .     S
O799   Zn805   2.004   .     S
O799   C810    1.296   .     S
O800   Zn806   1.998   .     S
O801   Zn805   2.009   .     S
O802   Zn806   1.982   .     S
O802   C874    1.265   1_455 S
O803   Zn805   1.998   .     S
O804   Zn806   2.004   .     S
O804   C875    1.291   1_455 S
C807   O860    1.284   .     A
C807   C809    1.426   .     S
C808   C810    1.450   .     S
C808   C826    1.419   .     A
C808   C816    1.404   .     A
C809   C935    1.371   .     S
C809   C1010   1.552   .     S
C810   O862    1.286   .     A
C811   C812    1.415   .     S
C812   O863    1.299   .     A
C812   O926    1.265   .     S
C813   O865    1.290   .     A
C813   C815    1.450   .     S
C813   O928    1.291   .     S
C814   C832    1.391   .     A
C815   C831    1.405   .     A
C815   C832    1.402   .     A
C816   C817    1.386   .     A
C817   C261    1.388   1_556 S
C817   H295    1.083   1_556 S
C818   C826    1.398   .     A
C818   C261    1.415   1_556 S
C818   C269    1.403   1_556 S
C819   H852    1.082   .     S
C820   C829    1.513   .     S
C820   H837    1.110   .     S
C820   C821    1.530   .     S
C820   H838    1.108   .     S
C821   H836    1.110   .     S
C821   H855    1.109   .     S
C821   H856    1.111   .     S
C822   H843    1.110   .     S
C822   H842    1.102   .     S
C822   C831    1.527   .     S
C822   C823    1.531   .     S
C823   H839    1.111   .     S
C823   H840    1.106   .     S
C823   H841    1.110   .     S
C824   H848    1.112   .     S
C824   H849    1.104   .     S
C825   H844    1.110   .     S
C825   H847    1.103   .     S
C825   H845    1.109   .     S
C825   C1010   1.522   .     S
C826   C830    1.420   .     A
C827   C831    1.384   .     A
C828   C829    1.402   .     A
C828   C256    1.407   1_556 S
C828   C269    1.410   1_556 S
C829   C830    1.402   .     A
C830   H854    1.072   .     S
C832   H897    1.082   .     S
F833   C997    1.363   .     S
F834   N858    1.332   .     S
H846   N857    1.024   .     S
H850   C256    1.080   1_556 S
H851   C878    1.084   .     S
N857   Zn868   2.012   .     S
N857   N858    1.295   .     D
N858   Zn867   2.012   .     S
O859   Zn867   1.982   .     S
O859   C869    1.283   .     S
O860   Zn868   2.009   .     S
O861   Zn867   2.004   .     S
O861   C872    1.296   .     S
O862   Zn868   1.998   .     S
O863   Zn867   2.009   .     S
O864   Zn868   1.982   .     S
O865   Zn867   1.998   .     S
O866   Zn868   2.004   .     S
C869   O922    1.284   .     A
C869   C871    1.426   .     S
C870   C872    1.450   .     S
C870   C888    1.419   .     A
C870   C878    1.404   .     A
C871   C997    1.371   .     S
C871   C1072   1.552   .     S
C872   O924    1.286   .     A
C873   C874    1.415   .     S
C873   C561    1.371   1_655 S
C874   O925    1.299   .     A
C874   O802    1.265   1_655 S
C875   O927    1.290   .     A
C875   C877    1.450   .     S
C875   O804    1.291   1_655 S
C876   C894    1.391   .     A
C877   C893    1.405   .     A
C877   C894    1.402   .     A
C878   C879    1.386   .     A
C879   C323    1.388   1_556 S
C879   H357    1.083   1_556 S
C880   C888    1.398   .     A
C880   C323    1.415   1_556 S
C880   C331    1.403   1_556 S
C881   H914    1.082   .     S
C882   C891    1.513   .     S
C882   H899    1.110   .     S
C882   C883    1.530   .     S
C882   H900    1.108   .     S
C883   H898    1.110   .     S
C883   H917    1.109   .     S
C883   H918    1.111   .     S
C884   H905    1.110   .     S
C884   H904    1.102   .     S
C884   C893    1.527   .     S
C884   C885    1.531   .     S
C885   H901    1.111   .     S
C885   H902    1.106   .     S
C885   H903    1.110   .     S
C886   H910    1.112   .     S
C886   H911    1.104   .     S
C887   H906    1.110   .     S
C887   H909    1.103   .     S
C887   H907    1.109   .     S
C887   C1072   1.522   .     S
C888   C892    1.420   .     A
C889   C893    1.384   .     A
C890   C891    1.402   .     A
C890   C318    1.407   1_556 S
C890   C331    1.410   1_556 S
C891   C892    1.402   .     A
C892   H916    1.072   .     S
C894   H773    1.082   1_655 S
F895   C1059   1.363   .     S
F896   N920    1.332   .     S
H908   N919    1.024   .     S
H912   C318    1.080   1_556 S
H913   C754    1.084   1_655 S
N919   Zn930   2.012   .     S
N919   N920    1.295   .     D
N920   Zn929   2.012   .     S
O921   Zn929   1.982   .     S
O921   C745    1.283   1_655 S
O922   Zn930   2.009   .     S
O923   Zn929   2.004   .     S
O923   C748    1.296   1_655 S
O924   Zn930   1.998   .     S
O925   Zn929   2.009   .     S
O926   Zn930   1.982   .     S
O927   Zn929   1.998   .     S
O928   Zn930   2.004   .     S
C931   O984    1.284   .     A
C931   C933    1.426   .     S
C931   O1107   1.283   1_455 S
C932   C934    1.450   .     S
C932   C950    1.419   .     A
C932   C940    1.404   .     A
C933   C687    1.371   1_465 S
C933   C576    1.552   1_565 S
C934   O986    1.286   .     A
C934   O1109   1.296   1_455 S
C935   C936    1.415   .     S
C936   O987    1.299   .     A
C936   O1050   1.265   .     S
C937   O989    1.290   .     A
C937   C939    1.450   .     S
C937   O1052   1.291   .     S
C938   C956    1.391   .     A
C939   C955    1.405   .     A
C939   C956    1.402   .     A
C940   C941    1.386   .     A
C940   H1099   1.084   1_455 S
C941   C385    1.388   1_556 S
C941   H419    1.083   1_556 S
C942   C950    1.398   .     A
C942   C385    1.415   1_556 S
C942   C393    1.403   1_556 S
C943   H976    1.082   .     S
C944   C953    1.513   .     S
C944   H961    1.110   .     S
C944   C945    1.530   .     S
C944   H962    1.108   .     S
C945   H960    1.110   .     S
C945   H979    1.109   .     S
C945   H980    1.111   .     S
C946   H967    1.110   .     S
C946   H966    1.102   .     S
C946   C955    1.527   .     S
C946   C947    1.531   .     S
C947   H963    1.111   .     S
C947   H964    1.106   .     S
C947   H965    1.110   .     S
C948   H972    1.112   .     S
C948   H973    1.104   .     S
C949   H968    1.110   .     S
C949   H971    1.103   .     S
C949   H969    1.109   .     S
C949   C576    1.522   1_565 S
C950   C954    1.420   .     A
C951   C955    1.384   .     A
C952   C953    1.402   .     A
C952   C380    1.407   1_556 S
C952   C393    1.410   1_556 S
C953   C954    1.402   .     A
C954   H978    1.072   .     S
C956   H1021   1.082   .     S
F957   C563    1.363   1_565 S
F958   N982    1.332   .     S
H959   C1080   1.082   1_455 S
H970   N981    1.024   .     S
H974   C380    1.080   1_556 S
H975   C1002   1.084   .     S
N981   Zn992   2.012   .     S
N981   N982    1.295   .     D
N982   Zn991   2.012   .     S
O983   Zn991   1.982   .     S
O983   C993    1.283   .     S
O984   Zn992   2.009   .     S
O985   Zn991   2.004   .     S
O985   C996    1.296   .     S
O986   Zn992   1.998   .     S
O987   Zn991   2.009   .     S
O988   Zn992   1.982   .     S
O988   C1060   1.265   1_455 S
O989   Zn991   1.998   .     S
O990   Zn992   2.004   .     S
O990   C1061   1.291   1_455 S
C993   O1046   1.284   .     A
C993   C995    1.426   .     S
C994   C996    1.450   .     S
C994   C1012   1.419   .     A
C994   C1002   1.404   .     A
C995   C563    1.371   1_565 S
C995   C638    1.552   1_565 S
C996   O1048   1.286   .     A
C997   C998    1.415   .     S
C998   O1049   1.299   .     A
C998   O1112   1.265   .     S
C999   O1051   1.290   .     A
C999   C1001   1.450   .     S
C999   O1114   1.291   .     S
C1000  C1018   1.391   .     A
C1001  C1017   1.405   .     A
C1001  C1018   1.402   .     A
C1002  C1003   1.386   .     A
C1003  C447    1.388   1_556 S
C1003  H481    1.083   1_556 S
C1004  C1012   1.398   .     A
C1004  C447    1.415   1_556 S
C1004  C455    1.403   1_556 S
C1005  H1038   1.082   .     S
C1006  C1015   1.513   .     S
C1006  H1023   1.110   .     S
C1006  C1007   1.530   .     S
C1006  H1024   1.108   .     S
C1007  H1022   1.110   .     S
C1007  H1041   1.109   .     S
C1007  H1042   1.111   .     S
C1008  H1029   1.110   .     S
C1008  H1028   1.102   .     S
C1008  C1017   1.527   .     S
C1008  C1009   1.531   .     S
C1009  H1025   1.111   .     S
C1009  H1026   1.106   .     S
C1009  H1027   1.110   .     S
C1010  H1034   1.112   .     S
C1010  H1035   1.104   .     S
C1011  H1030   1.110   .     S
C1011  H1033   1.103   .     S
C1011  H1031   1.109   .     S
C1011  C638    1.522   1_565 S
C1012  C1016   1.420   .     A
C1013  C1017   1.384   .     A
C1014  C1015   1.402   .     A
C1014  C442    1.407   1_556 S
C1014  C455    1.410   1_556 S
C1015  C1016   1.402   .     A
C1016  H1040   1.072   .     S
C1018  H1083   1.082   .     S
F1019  C625    1.363   1_565 S
F1020  N1044   1.332   .     S
H1032  N1043   1.024   .     S
H1036  C442    1.080   1_556 S
H1037  C1064   1.084   .     S
N1043  Zn1054  2.012   .     S
N1043  N1044   1.295   .     D
N1044  Zn1053  2.012   .     S
O1045  Zn1053  1.982   .     S
O1045  C1055   1.283   .     S
O1046  Zn1054  2.009   .     S
O1047  Zn1053  2.004   .     S
O1047  C1058   1.296   .     S
O1048  Zn1054  1.998   .     S
O1049  Zn1053  2.009   .     S
O1050  Zn1054  1.982   .     S
O1051  Zn1053  1.998   .     S
O1052  Zn1054  2.004   .     S
C1055  O1108   1.284   .     A
C1055  C1057   1.426   .     S
C1056  C1058   1.450   .     S
C1056  C1074   1.419   .     A
C1056  C1064   1.404   .     A
C1057  C625    1.371   1_565 S
C1057  C700    1.552   1_565 S
C1058  O1110   1.286   .     A
C1059  C1060   1.415   .     S
C1059  C747    1.371   1_655 S
C1060  O1111   1.299   .     A
C1060  O988    1.265   1_655 S
C1061  O1113   1.290   .     A
C1061  C1063   1.450   .     S
C1061  O990    1.291   1_655 S
C1062  C1080   1.391   .     A
C1063  C1079   1.405   .     A
C1063  C1080   1.402   .     A
C1064  C1065   1.386   .     A
C1065  C509    1.388   1_556 S
C1065  H543    1.083   1_556 S
C1066  C1074   1.398   .     A
C1066  C509    1.415   1_556 S
C1066  C517    1.403   1_556 S
C1067  H1100   1.082   .     S
C1068  C1077   1.513   .     S
C1068  H1085   1.110   .     S
C1068  C1069   1.530   .     S
C1068  H1086   1.108   .     S
C1069  H1084   1.110   .     S
C1069  H1103   1.109   .     S
C1069  H1104   1.111   .     S
C1070  H1091   1.110   .     S
C1070  H1090   1.102   .     S
C1070  C1079   1.527   .     S
C1070  C1071   1.531   .     S
C1071  H1087   1.111   .     S
C1071  H1088   1.106   .     S
C1071  H1089   1.110   .     S
C1072  H1096   1.112   .     S
C1072  H1097   1.104   .     S
C1073  H1092   1.110   .     S
C1073  H1095   1.103   .     S
C1073  H1093   1.109   .     S
C1073  C700    1.522   1_565 S
C1074  C1078   1.420   .     A
C1075  C1079   1.384   .     A
C1076  C1077   1.402   .     A
C1076  C504    1.407   1_556 S
C1076  C517    1.410   1_556 S
C1077  C1078   1.402   .     A
C1078  H1102   1.072   .     S
C1080  H959    1.082   1_655 S
F1081  C687    1.363   1_565 S
F1082  N1106   1.332   .     S
H1094  N1105   1.024   .     S
H1098  C504    1.080   1_556 S
H1099  C940    1.084   1_655 S
N1105  Zn1116  2.012   .     S
N1105  N1106   1.295   .     D
N1106  Zn1115  2.012   .     S
O1107  Zn1115  1.982   .     S
O1107  C931    1.283   1_655 S
O1108  Zn1116  2.009   .     S
O1109  Zn1115  2.004   .     S
O1109  C934    1.296   1_655 S
O1110  Zn1116  1.998   .     S
O1111  Zn1115  2.009   .     S
O1112  Zn1116  1.982   .     S
O1113  Zn1115  1.998   .     S
O1114  Zn1116  2.004   .     S
