data_str_m3_o1_o16_pcu_sym.139
_audit_creation_date              2020-01-03
_audit_creation_method            'Materials Studio'
_symmetry_space_group_name_H-M    'P1'
_symmetry_Int_Tables_number       1
_symmetry_cell_setting            triclinic
loop_
_symmetry_equiv_pos_as_xyz
  x,y,z
_cell_length_a                    29.5552
_cell_length_b                    32.0171
_cell_length_c                    26.2740
_cell_angle_alpha                 90.0403
_cell_angle_beta                  69.9656
_cell_angle_gamma                 89.8326
loop_
_atom_site_label
_atom_site_type_symbol
_atom_site_fract_x
_atom_site_fract_y
_atom_site_fract_z
_atom_site_U_iso_or_equiv
_atom_site_adp_type
_atom_site_occupancy
C1     C     0.16657   0.24662   0.25019   0.00000  Uiso   1.00
C2     C     0.14344   0.17377   0.49240   0.00000  Uiso   1.00
C3     C     0.15266   0.18603   0.43838   0.00000  Uiso   1.00
C4     C     0.18012   0.17972   0.01489   0.00000  Uiso   1.00
C5     C     0.22167   0.20351   0.48685   0.00000  Uiso   1.00
C6     C     0.22648   0.22073   0.43662   0.00000  Uiso   1.00
C7     C     0.19228   0.21226   0.41272   0.00000  Uiso   1.00
C8     C     0.17687   0.16203   0.06430   0.00000  Uiso   1.00
C9     C     0.25070   0.19569   0.06210   0.00000  Uiso   1.00
C10    C     0.12230   0.17115   0.41112   0.00000  Uiso   1.00
C11    C     0.19083   0.31115   0.28068   0.00000  Uiso   1.00
C12    C     0.13992   0.16866   0.35211   0.00000  Uiso   1.00
C13    C     0.19055   0.02072   0.28228   0.00000  Uiso   1.00
C14    C     0.16592   0.04247   0.25318   0.00000  Uiso   1.00
C15    C     0.14063   0.02164   0.22464   0.00000  Uiso   1.00
C16    C     0.14051   0.31218   0.22399   0.00000  Uiso   1.00
C17    C     0.16608   0.29066   0.25146   0.00000  Uiso   1.00
C18    C     0.31850   0.13797   0.22028   0.00000  Uiso   1.00
C19    C     0.03312   0.13801   0.22024   0.00000  Uiso   1.00
C20    C     0.01484   0.19537   0.27970   0.00000  Uiso   1.00
C21    C     0.30030   0.19544   0.27955   0.00000  Uiso   1.00
C22    C     0.16629   0.08667   0.25153   0.00000  Uiso   1.00
C23    C     0.19338   0.16679   0.14786   0.00000  Uiso   1.00
C24    C     0.25725   0.21047   0.01016   0.00000  Uiso   1.00
C25    C     0.20947   0.17256   0.08964   0.00000  Uiso   1.00
C26    C     0.07776   0.15320   0.44042   0.00000  Uiso   1.00
C27    C     0.06503   0.14718   0.49587   0.00000  Uiso   1.00
C28    C     0.09792   0.15618   0.02164   0.00000  Uiso   1.00
H29    H     0.27624   0.20412   0.08165   0.00000  Uiso   1.00
H30    H     0.12169   0.03845   0.20219   0.00000  Uiso   1.00
H31    H     0.12140   0.29593   0.20133   0.00000  Uiso   1.00
H32    H     0.30769   0.11504   0.19646   0.00000  Uiso   1.00
H33    H     0.05859   0.11511   0.19636   0.00000  Uiso   1.00
H34    H     0.02565   0.21833   0.30348   0.00000  Uiso   1.00
H35    H     0.27505   0.21862   0.30295   0.00000  Uiso   1.00
H36    H     0.25702   0.24026   0.41543   0.00000  Uiso   1.00
H37    H     0.28893   0.22882   0.48925   0.00000  Uiso   1.00
H38    H     0.14781   0.14125   0.08535   0.00000  Uiso   1.00
H39    H     0.08629   0.15010   0.06457   0.00000  Uiso   1.00
H40    H     0.19679   0.22686   0.37420   0.00000  Uiso   1.00
H41    H     0.20951   0.29379   0.30297   0.00000  Uiso   1.00
N42    N     0.04760   0.16668   0.25001   0.00000  Uiso   1.00
N43    N     0.28573   0.16665   0.25000   0.00000  Uiso   1.00
O44    O     0.12846   0.22775   0.25000   0.00000  Uiso   1.00
O45    O     0.20490   0.22774   0.25000   0.00000  Uiso   1.00
O46    O     0.10947   0.16666   0.32681   0.00000  Uiso   1.00
O47    O     0.18591   0.16665   0.32681   0.00000  Uiso   1.00
O48    O     0.12843   0.10559   0.24999   0.00000  Uiso   1.00
O49    O     0.20488   0.10558   0.24999   0.00000  Uiso   1.00
O50    O     0.14742   0.16668   0.17319   0.00000  Uiso   1.00
O51    O     0.22387   0.16667   0.17319   0.00000  Uiso   1.00
Zn52   Zn    0.11562   0.16667   0.25000   0.00000  Uiso   1.00
Zn53   Zn    0.21771   0.16666   0.25000   0.00000  Uiso   1.00
Cl54   Cl    0.21917   0.04535   0.32317   0.00000  Uiso   1.00
H55    H     0.05351   0.14258   0.42020   0.00000  Uiso   1.00
H56    H     0.03042   0.13373   0.01857   0.00000  Uiso   1.00
C57    C     0.49990   0.24662   0.25019   0.00000  Uiso   1.00
C58    C     0.47677   0.17377   0.49240   0.00000  Uiso   1.00
C59    C     0.48599   0.18603   0.43838   0.00000  Uiso   1.00
C60    C     0.51345   0.17972   0.01489   0.00000  Uiso   1.00
C61    C     0.55500   0.20351   0.48685   0.00000  Uiso   1.00
C62    C     0.55981   0.22073   0.43662   0.00000  Uiso   1.00
C63    C     0.52562   0.21226   0.41272   0.00000  Uiso   1.00
C64    C     0.51021   0.16203   0.06430   0.00000  Uiso   1.00
C65    C     0.58403   0.19569   0.06210   0.00000  Uiso   1.00
C66    C     0.45563   0.17115   0.41112   0.00000  Uiso   1.00
C67    C     0.52417   0.31115   0.28068   0.00000  Uiso   1.00
C68    C     0.47325   0.16866   0.35211   0.00000  Uiso   1.00
C69    C     0.52388   0.02072   0.28228   0.00000  Uiso   1.00
C70    C     0.49925   0.04247   0.25318   0.00000  Uiso   1.00
C71    C     0.47396   0.02164   0.22464   0.00000  Uiso   1.00
C72    C     0.47384   0.31218   0.22399   0.00000  Uiso   1.00
C73    C     0.49941   0.29066   0.25146   0.00000  Uiso   1.00
C74    C     0.65184   0.13797   0.22028   0.00000  Uiso   1.00
C75    C     0.36645   0.13801   0.22024   0.00000  Uiso   1.00
C76    C     0.34817   0.19537   0.27970   0.00000  Uiso   1.00
C77    C     0.63363   0.19544   0.27955   0.00000  Uiso   1.00
C78    C     0.49963   0.08667   0.25153   0.00000  Uiso   1.00
C79    C     0.52671   0.16679   0.14786   0.00000  Uiso   1.00
C80    C     0.59059   0.21047   0.01016   0.00000  Uiso   1.00
C81    C     0.54281   0.17256   0.08964   0.00000  Uiso   1.00
C82    C     0.41110   0.15320   0.44042   0.00000  Uiso   1.00
C83    C     0.39836   0.14718   0.49587   0.00000  Uiso   1.00
C84    C     0.43125   0.15618   0.02164   0.00000  Uiso   1.00
H85    H     0.60957   0.20412   0.08165   0.00000  Uiso   1.00
H86    H     0.45502   0.03845   0.20219   0.00000  Uiso   1.00
H87    H     0.45474   0.29593   0.20133   0.00000  Uiso   1.00
H88    H     0.64103   0.11504   0.19646   0.00000  Uiso   1.00
H89    H     0.39193   0.11511   0.19636   0.00000  Uiso   1.00
H90    H     0.35898   0.21833   0.30348   0.00000  Uiso   1.00
H91    H     0.60838   0.21862   0.30295   0.00000  Uiso   1.00
H92    H     0.59036   0.24026   0.41543   0.00000  Uiso   1.00
H93    H     0.62226   0.22882   0.48925   0.00000  Uiso   1.00
H94    H     0.48115   0.14125   0.08535   0.00000  Uiso   1.00
H95    H     0.41963   0.15010   0.06457   0.00000  Uiso   1.00
H96    H     0.53012   0.22686   0.37420   0.00000  Uiso   1.00
H97    H     0.54284   0.29379   0.30297   0.00000  Uiso   1.00
N98    N     0.38093   0.16668   0.25001   0.00000  Uiso   1.00
N99    N     0.61906   0.16665   0.25000   0.00000  Uiso   1.00
O100   O     0.46179   0.22775   0.25000   0.00000  Uiso   1.00
O101   O     0.53823   0.22774   0.25000   0.00000  Uiso   1.00
O102   O     0.44280   0.16666   0.32681   0.00000  Uiso   1.00
O103   O     0.51924   0.16665   0.32681   0.00000  Uiso   1.00
O104   O     0.46177   0.10559   0.24999   0.00000  Uiso   1.00
O105   O     0.53821   0.10558   0.24999   0.00000  Uiso   1.00
O106   O     0.48076   0.16668   0.17319   0.00000  Uiso   1.00
O107   O     0.55720   0.16667   0.17319   0.00000  Uiso   1.00
Zn108  Zn    0.44896   0.16667   0.25000   0.00000  Uiso   1.00
Zn109  Zn    0.55104   0.16666   0.25000   0.00000  Uiso   1.00
Cl110  Cl    0.55251   0.04535   0.32317   0.00000  Uiso   1.00
H111   H     0.38685   0.14258   0.42020   0.00000  Uiso   1.00
H112   H     0.36375   0.13373   0.01857   0.00000  Uiso   1.00
C113   C     0.83323   0.24662   0.25019   0.00000  Uiso   1.00
C114   C     0.81010   0.17377   0.49240   0.00000  Uiso   1.00
C115   C     0.81932   0.18603   0.43838   0.00000  Uiso   1.00
C116   C     0.84678   0.17972   0.01489   0.00000  Uiso   1.00
C117   C     0.88833   0.20351   0.48685   0.00000  Uiso   1.00
C118   C     0.89315   0.22073   0.43662   0.00000  Uiso   1.00
C119   C     0.85895   0.21226   0.41272   0.00000  Uiso   1.00
C120   C     0.84354   0.16203   0.06430   0.00000  Uiso   1.00
C121   C     0.91736   0.19569   0.06210   0.00000  Uiso   1.00
C122   C     0.78897   0.17115   0.41112   0.00000  Uiso   1.00
C123   C     0.85750   0.31115   0.28068   0.00000  Uiso   1.00
C124   C     0.80659   0.16866   0.35211   0.00000  Uiso   1.00
C125   C     0.85721   0.02072   0.28228   0.00000  Uiso   1.00
C126   C     0.83259   0.04247   0.25318   0.00000  Uiso   1.00
C127   C     0.80729   0.02164   0.22464   0.00000  Uiso   1.00
C128   C     0.80717   0.31218   0.22399   0.00000  Uiso   1.00
C129   C     0.83274   0.29066   0.25146   0.00000  Uiso   1.00
C130   C     0.98517   0.13797   0.22028   0.00000  Uiso   1.00
C131   C     0.69979   0.13801   0.22024   0.00000  Uiso   1.00
C132   C     0.68151   0.19537   0.27970   0.00000  Uiso   1.00
C133   C     0.96697   0.19544   0.27955   0.00000  Uiso   1.00
C134   C     0.83296   0.08667   0.25153   0.00000  Uiso   1.00
C135   C     0.86004   0.16679   0.14786   0.00000  Uiso   1.00
C136   C     0.92392   0.21047   0.01016   0.00000  Uiso   1.00
C137   C     0.87614   0.17256   0.08964   0.00000  Uiso   1.00
C138   C     0.74443   0.15320   0.44042   0.00000  Uiso   1.00
C139   C     0.73170   0.14718   0.49587   0.00000  Uiso   1.00
C140   C     0.76458   0.15618   0.02164   0.00000  Uiso   1.00
H141   H     0.94291   0.20412   0.08165   0.00000  Uiso   1.00
H142   H     0.78835   0.03845   0.20219   0.00000  Uiso   1.00
H143   H     0.78807   0.29593   0.20133   0.00000  Uiso   1.00
H144   H     0.97436   0.11504   0.19646   0.00000  Uiso   1.00
H145   H     0.72526   0.11511   0.19636   0.00000  Uiso   1.00
H146   H     0.69232   0.21833   0.30348   0.00000  Uiso   1.00
H147   H     0.94172   0.21862   0.30295   0.00000  Uiso   1.00
H148   H     0.92369   0.24026   0.41543   0.00000  Uiso   1.00
H149   H     0.95560   0.22882   0.48925   0.00000  Uiso   1.00
H150   H     0.81448   0.14125   0.08535   0.00000  Uiso   1.00
H151   H     0.75296   0.15010   0.06457   0.00000  Uiso   1.00
H152   H     0.86345   0.22686   0.37420   0.00000  Uiso   1.00
H153   H     0.87617   0.29379   0.30297   0.00000  Uiso   1.00
N154   N     0.71426   0.16668   0.25001   0.00000  Uiso   1.00
N155   N     0.95239   0.16665   0.25000   0.00000  Uiso   1.00
O156   O     0.79512   0.22775   0.25000   0.00000  Uiso   1.00
O157   O     0.87157   0.22774   0.25000   0.00000  Uiso   1.00
O158   O     0.77613   0.16666   0.32681   0.00000  Uiso   1.00
O159   O     0.85258   0.16665   0.32681   0.00000  Uiso   1.00
O160   O     0.79510   0.10559   0.24999   0.00000  Uiso   1.00
O161   O     0.87154   0.10558   0.24999   0.00000  Uiso   1.00
O162   O     0.81409   0.16668   0.17319   0.00000  Uiso   1.00
O163   O     0.89053   0.16667   0.17319   0.00000  Uiso   1.00
Zn164  Zn    0.78229   0.16667   0.25000   0.00000  Uiso   1.00
Zn165  Zn    0.88438   0.16666   0.25000   0.00000  Uiso   1.00
Cl166  Cl    0.88584   0.04535   0.32317   0.00000  Uiso   1.00
H167   H     0.72018   0.14258   0.42020   0.00000  Uiso   1.00
H168   H     0.69708   0.13373   0.01857   0.00000  Uiso   1.00
C169   C     0.16657   0.57995   0.25019   0.00000  Uiso   1.00
C170   C     0.14344   0.50710   0.49240   0.00000  Uiso   1.00
C171   C     0.15266   0.51936   0.43838   0.00000  Uiso   1.00
C172   C     0.18012   0.51305   0.01489   0.00000  Uiso   1.00
C173   C     0.22167   0.53685   0.48685   0.00000  Uiso   1.00
C174   C     0.22648   0.55407   0.43662   0.00000  Uiso   1.00
C175   C     0.19228   0.54559   0.41272   0.00000  Uiso   1.00
C176   C     0.17687   0.49537   0.06430   0.00000  Uiso   1.00
C177   C     0.25070   0.52902   0.06210   0.00000  Uiso   1.00
C178   C     0.12230   0.50448   0.41112   0.00000  Uiso   1.00
C179   C     0.19083   0.64448   0.28068   0.00000  Uiso   1.00
C180   C     0.13992   0.50199   0.35211   0.00000  Uiso   1.00
C181   C     0.19055   0.35405   0.28228   0.00000  Uiso   1.00
C182   C     0.16592   0.37580   0.25318   0.00000  Uiso   1.00
C183   C     0.14063   0.35497   0.22464   0.00000  Uiso   1.00
C184   C     0.14051   0.64551   0.22399   0.00000  Uiso   1.00
C185   C     0.16608   0.62399   0.25146   0.00000  Uiso   1.00
C186   C     0.31850   0.47130   0.22028   0.00000  Uiso   1.00
C187   C     0.03312   0.47134   0.22024   0.00000  Uiso   1.00
C188   C     0.01484   0.52871   0.27970   0.00000  Uiso   1.00
C189   C     0.30030   0.52877   0.27955   0.00000  Uiso   1.00
C190   C     0.16629   0.42001   0.25153   0.00000  Uiso   1.00
C191   C     0.19338   0.50012   0.14786   0.00000  Uiso   1.00
C192   C     0.25725   0.54380   0.01016   0.00000  Uiso   1.00
C193   C     0.20947   0.50590   0.08964   0.00000  Uiso   1.00
C194   C     0.07776   0.48654   0.44042   0.00000  Uiso   1.00
C195   C     0.06503   0.48051   0.49587   0.00000  Uiso   1.00
C196   C     0.09792   0.48951   0.02164   0.00000  Uiso   1.00
H197   H     0.27624   0.53746   0.08165   0.00000  Uiso   1.00
H198   H     0.12169   0.37179   0.20219   0.00000  Uiso   1.00
H199   H     0.12140   0.62927   0.20133   0.00000  Uiso   1.00
H200   H     0.30769   0.44837   0.19646   0.00000  Uiso   1.00
H201   H     0.05859   0.44844   0.19636   0.00000  Uiso   1.00
H202   H     0.02565   0.55166   0.30348   0.00000  Uiso   1.00
H203   H     0.27505   0.55195   0.30295   0.00000  Uiso   1.00
H204   H     0.25702   0.57359   0.41543   0.00000  Uiso   1.00
H205   H     0.28893   0.56215   0.48925   0.00000  Uiso   1.00
H206   H     0.14781   0.47458   0.08535   0.00000  Uiso   1.00
H207   H     0.08629   0.48344   0.06457   0.00000  Uiso   1.00
H208   H     0.19679   0.56019   0.37420   0.00000  Uiso   1.00
H209   H     0.20951   0.62712   0.30297   0.00000  Uiso   1.00
N210   N     0.04760   0.50001   0.25001   0.00000  Uiso   1.00
N211   N     0.28573   0.49998   0.25000   0.00000  Uiso   1.00
O212   O     0.12846   0.56108   0.25000   0.00000  Uiso   1.00
O213   O     0.20490   0.56107   0.25000   0.00000  Uiso   1.00
O214   O     0.10947   0.50000   0.32681   0.00000  Uiso   1.00
O215   O     0.18591   0.49999   0.32681   0.00000  Uiso   1.00
O216   O     0.12843   0.43893   0.24999   0.00000  Uiso   1.00
O217   O     0.20488   0.43892   0.24999   0.00000  Uiso   1.00
O218   O     0.14742   0.50001   0.17319   0.00000  Uiso   1.00
O219   O     0.22387   0.50000   0.17319   0.00000  Uiso   1.00
Zn220  Zn    0.11562   0.50001   0.25000   0.00000  Uiso   1.00
Zn221  Zn    0.21771   0.49999   0.25000   0.00000  Uiso   1.00
Cl222  Cl    0.21917   0.37868   0.32317   0.00000  Uiso   1.00
H223   H     0.05351   0.47591   0.42020   0.00000  Uiso   1.00
H224   H     0.03042   0.46706   0.01857   0.00000  Uiso   1.00
C225   C     0.49990   0.57995   0.25019   0.00000  Uiso   1.00
C226   C     0.47677   0.50710   0.49240   0.00000  Uiso   1.00
C227   C     0.48599   0.51936   0.43838   0.00000  Uiso   1.00
C228   C     0.51345   0.51305   0.01489   0.00000  Uiso   1.00
C229   C     0.55500   0.53685   0.48685   0.00000  Uiso   1.00
C230   C     0.55981   0.55407   0.43662   0.00000  Uiso   1.00
C231   C     0.52562   0.54559   0.41272   0.00000  Uiso   1.00
C232   C     0.51021   0.49537   0.06430   0.00000  Uiso   1.00
C233   C     0.58403   0.52902   0.06210   0.00000  Uiso   1.00
C234   C     0.45563   0.50448   0.41112   0.00000  Uiso   1.00
C235   C     0.52417   0.64448   0.28068   0.00000  Uiso   1.00
C236   C     0.47325   0.50199   0.35211   0.00000  Uiso   1.00
C237   C     0.52388   0.35405   0.28228   0.00000  Uiso   1.00
C238   C     0.49925   0.37580   0.25318   0.00000  Uiso   1.00
C239   C     0.47396   0.35497   0.22464   0.00000  Uiso   1.00
C240   C     0.47384   0.64551   0.22399   0.00000  Uiso   1.00
C241   C     0.49941   0.62399   0.25146   0.00000  Uiso   1.00
C242   C     0.65184   0.47130   0.22028   0.00000  Uiso   1.00
C243   C     0.36645   0.47134   0.22024   0.00000  Uiso   1.00
C244   C     0.34817   0.52871   0.27970   0.00000  Uiso   1.00
C245   C     0.63363   0.52877   0.27955   0.00000  Uiso   1.00
C246   C     0.49963   0.42001   0.25153   0.00000  Uiso   1.00
C247   C     0.52671   0.50012   0.14786   0.00000  Uiso   1.00
C248   C     0.59059   0.54380   0.01016   0.00000  Uiso   1.00
C249   C     0.54281   0.50590   0.08964   0.00000  Uiso   1.00
C250   C     0.41110   0.48654   0.44042   0.00000  Uiso   1.00
C251   C     0.39836   0.48051   0.49587   0.00000  Uiso   1.00
C252   C     0.43125   0.48951   0.02164   0.00000  Uiso   1.00
H253   H     0.60957   0.53746   0.08165   0.00000  Uiso   1.00
H254   H     0.45502   0.37179   0.20219   0.00000  Uiso   1.00
H255   H     0.45474   0.62927   0.20133   0.00000  Uiso   1.00
H256   H     0.64103   0.44837   0.19646   0.00000  Uiso   1.00
H257   H     0.39193   0.44844   0.19636   0.00000  Uiso   1.00
H258   H     0.35898   0.55166   0.30348   0.00000  Uiso   1.00
H259   H     0.60838   0.55195   0.30295   0.00000  Uiso   1.00
H260   H     0.59036   0.57359   0.41543   0.00000  Uiso   1.00
H261   H     0.62226   0.56215   0.48925   0.00000  Uiso   1.00
H262   H     0.48115   0.47458   0.08535   0.00000  Uiso   1.00
H263   H     0.41963   0.48344   0.06457   0.00000  Uiso   1.00
H264   H     0.53012   0.56019   0.37420   0.00000  Uiso   1.00
H265   H     0.54284   0.62712   0.30297   0.00000  Uiso   1.00
N266   N     0.38093   0.50001   0.25001   0.00000  Uiso   1.00
N267   N     0.61906   0.49998   0.25000   0.00000  Uiso   1.00
O268   O     0.46179   0.56108   0.25000   0.00000  Uiso   1.00
O269   O     0.53823   0.56107   0.25000   0.00000  Uiso   1.00
O270   O     0.44280   0.50000   0.32681   0.00000  Uiso   1.00
O271   O     0.51924   0.49999   0.32681   0.00000  Uiso   1.00
O272   O     0.46177   0.43893   0.24999   0.00000  Uiso   1.00
O273   O     0.53821   0.43892   0.24999   0.00000  Uiso   1.00
O274   O     0.48076   0.50001   0.17319   0.00000  Uiso   1.00
O275   O     0.55720   0.50000   0.17319   0.00000  Uiso   1.00
Zn276  Zn    0.44896   0.50001   0.25000   0.00000  Uiso   1.00
Zn277  Zn    0.55104   0.49999   0.25000   0.00000  Uiso   1.00
Cl278  Cl    0.55251   0.37868   0.32317   0.00000  Uiso   1.00
H279   H     0.38685   0.47591   0.42020   0.00000  Uiso   1.00
H280   H     0.36375   0.46706   0.01857   0.00000  Uiso   1.00
C281   C     0.83323   0.57995   0.25019   0.00000  Uiso   1.00
C282   C     0.81010   0.50710   0.49240   0.00000  Uiso   1.00
C283   C     0.81932   0.51936   0.43838   0.00000  Uiso   1.00
C284   C     0.84678   0.51305   0.01489   0.00000  Uiso   1.00
C285   C     0.88833   0.53685   0.48685   0.00000  Uiso   1.00
C286   C     0.89315   0.55407   0.43662   0.00000  Uiso   1.00
C287   C     0.85895   0.54559   0.41272   0.00000  Uiso   1.00
C288   C     0.84354   0.49537   0.06430   0.00000  Uiso   1.00
C289   C     0.91736   0.52902   0.06210   0.00000  Uiso   1.00
C290   C     0.78897   0.50448   0.41112   0.00000  Uiso   1.00
C291   C     0.85750   0.64448   0.28068   0.00000  Uiso   1.00
C292   C     0.80659   0.50199   0.35211   0.00000  Uiso   1.00
C293   C     0.85721   0.35405   0.28228   0.00000  Uiso   1.00
C294   C     0.83259   0.37580   0.25318   0.00000  Uiso   1.00
C295   C     0.80729   0.35497   0.22464   0.00000  Uiso   1.00
C296   C     0.80717   0.64551   0.22399   0.00000  Uiso   1.00
C297   C     0.83274   0.62399   0.25146   0.00000  Uiso   1.00
C298   C     0.98517   0.47130   0.22028   0.00000  Uiso   1.00
C299   C     0.69979   0.47134   0.22024   0.00000  Uiso   1.00
C300   C     0.68151   0.52871   0.27970   0.00000  Uiso   1.00
C301   C     0.96697   0.52877   0.27955   0.00000  Uiso   1.00
C302   C     0.83296   0.42001   0.25153   0.00000  Uiso   1.00
C303   C     0.86004   0.50012   0.14786   0.00000  Uiso   1.00
C304   C     0.92392   0.54380   0.01016   0.00000  Uiso   1.00
C305   C     0.87614   0.50590   0.08964   0.00000  Uiso   1.00
C306   C     0.74443   0.48654   0.44042   0.00000  Uiso   1.00
C307   C     0.73170   0.48051   0.49587   0.00000  Uiso   1.00
C308   C     0.76458   0.48951   0.02164   0.00000  Uiso   1.00
H309   H     0.94291   0.53746   0.08165   0.00000  Uiso   1.00
H310   H     0.78835   0.37179   0.20219   0.00000  Uiso   1.00
H311   H     0.78807   0.62927   0.20133   0.00000  Uiso   1.00
H312   H     0.97436   0.44837   0.19646   0.00000  Uiso   1.00
H313   H     0.72526   0.44844   0.19636   0.00000  Uiso   1.00
H314   H     0.69232   0.55166   0.30348   0.00000  Uiso   1.00
H315   H     0.94172   0.55195   0.30295   0.00000  Uiso   1.00
H316   H     0.92369   0.57359   0.41543   0.00000  Uiso   1.00
H317   H     0.95560   0.56215   0.48925   0.00000  Uiso   1.00
H318   H     0.81448   0.47458   0.08535   0.00000  Uiso   1.00
H319   H     0.75296   0.48344   0.06457   0.00000  Uiso   1.00
H320   H     0.86345   0.56019   0.37420   0.00000  Uiso   1.00
H321   H     0.87617   0.62712   0.30297   0.00000  Uiso   1.00
N322   N     0.71426   0.50001   0.25001   0.00000  Uiso   1.00
N323   N     0.95239   0.49998   0.25000   0.00000  Uiso   1.00
O324   O     0.79512   0.56108   0.25000   0.00000  Uiso   1.00
O325   O     0.87157   0.56107   0.25000   0.00000  Uiso   1.00
O326   O     0.77613   0.50000   0.32681   0.00000  Uiso   1.00
O327   O     0.85258   0.49999   0.32681   0.00000  Uiso   1.00
O328   O     0.79510   0.43893   0.24999   0.00000  Uiso   1.00
O329   O     0.87154   0.43892   0.24999   0.00000  Uiso   1.00
O330   O     0.81409   0.50001   0.17319   0.00000  Uiso   1.00
O331   O     0.89053   0.50000   0.17319   0.00000  Uiso   1.00
Zn332  Zn    0.78229   0.50001   0.25000   0.00000  Uiso   1.00
Zn333  Zn    0.88438   0.49999   0.25000   0.00000  Uiso   1.00
Cl334  Cl    0.88584   0.37868   0.32317   0.00000  Uiso   1.00
H335   H     0.72018   0.47591   0.42020   0.00000  Uiso   1.00
H336   H     0.69708   0.46706   0.01857   0.00000  Uiso   1.00
C337   C     0.16657   0.91329   0.25019   0.00000  Uiso   1.00
C338   C     0.14344   0.84043   0.49240   0.00000  Uiso   1.00
C339   C     0.15266   0.85270   0.43838   0.00000  Uiso   1.00
C340   C     0.18012   0.84638   0.01489   0.00000  Uiso   1.00
C341   C     0.22167   0.87018   0.48685   0.00000  Uiso   1.00
C342   C     0.22648   0.88740   0.43662   0.00000  Uiso   1.00
C343   C     0.19228   0.87892   0.41272   0.00000  Uiso   1.00
C344   C     0.17687   0.82870   0.06430   0.00000  Uiso   1.00
C345   C     0.25070   0.86235   0.06210   0.00000  Uiso   1.00
C346   C     0.12230   0.83781   0.41112   0.00000  Uiso   1.00
C347   C     0.19083   0.97781   0.28068   0.00000  Uiso   1.00
C348   C     0.13992   0.83532   0.35211   0.00000  Uiso   1.00
C349   C     0.19055   0.68738   0.28228   0.00000  Uiso   1.00
C350   C     0.16592   0.70913   0.25318   0.00000  Uiso   1.00
C351   C     0.14063   0.68830   0.22464   0.00000  Uiso   1.00
C352   C     0.14051   0.97885   0.22399   0.00000  Uiso   1.00
C353   C     0.16608   0.95732   0.25146   0.00000  Uiso   1.00
C354   C     0.31850   0.80463   0.22028   0.00000  Uiso   1.00
C355   C     0.03312   0.80467   0.22024   0.00000  Uiso   1.00
C356   C     0.01484   0.86204   0.27970   0.00000  Uiso   1.00
C357   C     0.30030   0.86210   0.27955   0.00000  Uiso   1.00
C358   C     0.16629   0.75334   0.25153   0.00000  Uiso   1.00
C359   C     0.19338   0.83345   0.14786   0.00000  Uiso   1.00
C360   C     0.25725   0.87714   0.01016   0.00000  Uiso   1.00
C361   C     0.20947   0.83923   0.08964   0.00000  Uiso   1.00
C362   C     0.07776   0.81987   0.44042   0.00000  Uiso   1.00
C363   C     0.06503   0.81384   0.49587   0.00000  Uiso   1.00
C364   C     0.09792   0.82285   0.02164   0.00000  Uiso   1.00
H365   H     0.27624   0.87079   0.08165   0.00000  Uiso   1.00
H366   H     0.12169   0.70512   0.20219   0.00000  Uiso   1.00
H367   H     0.12140   0.96260   0.20133   0.00000  Uiso   1.00
H368   H     0.30769   0.78170   0.19646   0.00000  Uiso   1.00
H369   H     0.05859   0.78177   0.19636   0.00000  Uiso   1.00
H370   H     0.02565   0.88500   0.30348   0.00000  Uiso   1.00
H371   H     0.27505   0.88528   0.30295   0.00000  Uiso   1.00
H372   H     0.25702   0.90692   0.41543   0.00000  Uiso   1.00
H373   H     0.28893   0.89548   0.48925   0.00000  Uiso   1.00
H374   H     0.14781   0.80792   0.08535   0.00000  Uiso   1.00
H375   H     0.08629   0.81677   0.06457   0.00000  Uiso   1.00
H376   H     0.19679   0.89353   0.37420   0.00000  Uiso   1.00
H377   H     0.20951   0.96046   0.30297   0.00000  Uiso   1.00
N378   N     0.04760   0.83334   0.25001   0.00000  Uiso   1.00
N379   N     0.28573   0.83331   0.25000   0.00000  Uiso   1.00
O380   O     0.12846   0.89442   0.25000   0.00000  Uiso   1.00
O381   O     0.20490   0.89441   0.25000   0.00000  Uiso   1.00
O382   O     0.10947   0.83333   0.32681   0.00000  Uiso   1.00
O383   O     0.18591   0.83332   0.32681   0.00000  Uiso   1.00
O384   O     0.12843   0.77226   0.24999   0.00000  Uiso   1.00
O385   O     0.20488   0.77225   0.24999   0.00000  Uiso   1.00
O386   O     0.14742   0.83335   0.17319   0.00000  Uiso   1.00
O387   O     0.22387   0.83334   0.17319   0.00000  Uiso   1.00
Zn388  Zn    0.11562   0.83334   0.25000   0.00000  Uiso   1.00
Zn389  Zn    0.21771   0.83333   0.25000   0.00000  Uiso   1.00
Cl390  Cl    0.21917   0.71202   0.32317   0.00000  Uiso   1.00
H391   H     0.05351   0.80924   0.42020   0.00000  Uiso   1.00
H392   H     0.03042   0.80040   0.01857   0.00000  Uiso   1.00
C393   C     0.49990   0.91329   0.25019   0.00000  Uiso   1.00
C394   C     0.47677   0.84043   0.49240   0.00000  Uiso   1.00
C395   C     0.48599   0.85270   0.43838   0.00000  Uiso   1.00
C396   C     0.51345   0.84638   0.01489   0.00000  Uiso   1.00
C397   C     0.55500   0.87018   0.48685   0.00000  Uiso   1.00
C398   C     0.55981   0.88740   0.43662   0.00000  Uiso   1.00
C399   C     0.52562   0.87892   0.41272   0.00000  Uiso   1.00
C400   C     0.51021   0.82870   0.06430   0.00000  Uiso   1.00
C401   C     0.58403   0.86235   0.06210   0.00000  Uiso   1.00
C402   C     0.45563   0.83781   0.41112   0.00000  Uiso   1.00
C403   C     0.52417   0.97781   0.28068   0.00000  Uiso   1.00
C404   C     0.47325   0.83532   0.35211   0.00000  Uiso   1.00
C405   C     0.52388   0.68738   0.28228   0.00000  Uiso   1.00
C406   C     0.49925   0.70913   0.25318   0.00000  Uiso   1.00
C407   C     0.47396   0.68830   0.22464   0.00000  Uiso   1.00
C408   C     0.47384   0.97885   0.22399   0.00000  Uiso   1.00
C409   C     0.49941   0.95732   0.25146   0.00000  Uiso   1.00
C410   C     0.65184   0.80463   0.22028   0.00000  Uiso   1.00
C411   C     0.36645   0.80467   0.22024   0.00000  Uiso   1.00
C412   C     0.34817   0.86204   0.27970   0.00000  Uiso   1.00
C413   C     0.63363   0.86210   0.27955   0.00000  Uiso   1.00
C414   C     0.49963   0.75334   0.25153   0.00000  Uiso   1.00
C415   C     0.52671   0.83345   0.14786   0.00000  Uiso   1.00
C416   C     0.59059   0.87714   0.01016   0.00000  Uiso   1.00
C417   C     0.54281   0.83923   0.08964   0.00000  Uiso   1.00
C418   C     0.41110   0.81987   0.44042   0.00000  Uiso   1.00
C419   C     0.39836   0.81384   0.49587   0.00000  Uiso   1.00
C420   C     0.43125   0.82285   0.02164   0.00000  Uiso   1.00
H421   H     0.60957   0.87079   0.08165   0.00000  Uiso   1.00
H422   H     0.45502   0.70512   0.20219   0.00000  Uiso   1.00
H423   H     0.45474   0.96260   0.20133   0.00000  Uiso   1.00
H424   H     0.64103   0.78170   0.19646   0.00000  Uiso   1.00
H425   H     0.39193   0.78177   0.19636   0.00000  Uiso   1.00
H426   H     0.35898   0.88500   0.30348   0.00000  Uiso   1.00
H427   H     0.60838   0.88528   0.30295   0.00000  Uiso   1.00
H428   H     0.59036   0.90692   0.41543   0.00000  Uiso   1.00
H429   H     0.62226   0.89548   0.48925   0.00000  Uiso   1.00
H430   H     0.48115   0.80792   0.08535   0.00000  Uiso   1.00
H431   H     0.41963   0.81677   0.06457   0.00000  Uiso   1.00
H432   H     0.53012   0.89353   0.37420   0.00000  Uiso   1.00
H433   H     0.54284   0.96046   0.30297   0.00000  Uiso   1.00
N434   N     0.38093   0.83334   0.25001   0.00000  Uiso   1.00
N435   N     0.61906   0.83331   0.25000   0.00000  Uiso   1.00
O436   O     0.46179   0.89442   0.25000   0.00000  Uiso   1.00
O437   O     0.53823   0.89441   0.25000   0.00000  Uiso   1.00
O438   O     0.44280   0.83333   0.32681   0.00000  Uiso   1.00
O439   O     0.51924   0.83332   0.32681   0.00000  Uiso   1.00
O440   O     0.46177   0.77226   0.24999   0.00000  Uiso   1.00
O441   O     0.53821   0.77225   0.24999   0.00000  Uiso   1.00
O442   O     0.48076   0.83335   0.17319   0.00000  Uiso   1.00
O443   O     0.55720   0.83334   0.17319   0.00000  Uiso   1.00
Zn444  Zn    0.44896   0.83334   0.25000   0.00000  Uiso   1.00
Zn445  Zn    0.55104   0.83333   0.25000   0.00000  Uiso   1.00
Cl446  Cl    0.55251   0.71202   0.32317   0.00000  Uiso   1.00
H447   H     0.38685   0.80924   0.42020   0.00000  Uiso   1.00
H448   H     0.36375   0.80040   0.01857   0.00000  Uiso   1.00
C449   C     0.83323   0.91329   0.25019   0.00000  Uiso   1.00
C450   C     0.81010   0.84043   0.49240   0.00000  Uiso   1.00
C451   C     0.81932   0.85270   0.43838   0.00000  Uiso   1.00
C452   C     0.84678   0.84638   0.01489   0.00000  Uiso   1.00
C453   C     0.88833   0.87018   0.48685   0.00000  Uiso   1.00
C454   C     0.89315   0.88740   0.43662   0.00000  Uiso   1.00
C455   C     0.85895   0.87892   0.41272   0.00000  Uiso   1.00
C456   C     0.84354   0.82870   0.06430   0.00000  Uiso   1.00
C457   C     0.91736   0.86235   0.06210   0.00000  Uiso   1.00
C458   C     0.78897   0.83781   0.41112   0.00000  Uiso   1.00
C459   C     0.85750   0.97781   0.28068   0.00000  Uiso   1.00
C460   C     0.80659   0.83532   0.35211   0.00000  Uiso   1.00
C461   C     0.85721   0.68738   0.28228   0.00000  Uiso   1.00
C462   C     0.83259   0.70913   0.25318   0.00000  Uiso   1.00
C463   C     0.80729   0.68830   0.22464   0.00000  Uiso   1.00
C464   C     0.80717   0.97885   0.22399   0.00000  Uiso   1.00
C465   C     0.83274   0.95732   0.25146   0.00000  Uiso   1.00
C466   C     0.98517   0.80463   0.22028   0.00000  Uiso   1.00
C467   C     0.69979   0.80467   0.22024   0.00000  Uiso   1.00
C468   C     0.68151   0.86204   0.27970   0.00000  Uiso   1.00
C469   C     0.96697   0.86210   0.27955   0.00000  Uiso   1.00
C470   C     0.83296   0.75334   0.25153   0.00000  Uiso   1.00
C471   C     0.86004   0.83345   0.14786   0.00000  Uiso   1.00
C472   C     0.92392   0.87714   0.01016   0.00000  Uiso   1.00
C473   C     0.87614   0.83923   0.08964   0.00000  Uiso   1.00
C474   C     0.74443   0.81987   0.44042   0.00000  Uiso   1.00
C475   C     0.73170   0.81384   0.49587   0.00000  Uiso   1.00
C476   C     0.76458   0.82285   0.02164   0.00000  Uiso   1.00
H477   H     0.94291   0.87079   0.08165   0.00000  Uiso   1.00
H478   H     0.78835   0.70512   0.20219   0.00000  Uiso   1.00
H479   H     0.78807   0.96260   0.20133   0.00000  Uiso   1.00
H480   H     0.97436   0.78170   0.19646   0.00000  Uiso   1.00
H481   H     0.72526   0.78177   0.19636   0.00000  Uiso   1.00
H482   H     0.69232   0.88500   0.30348   0.00000  Uiso   1.00
H483   H     0.94172   0.88528   0.30295   0.00000  Uiso   1.00
H484   H     0.92369   0.90692   0.41543   0.00000  Uiso   1.00
H485   H     0.95560   0.89548   0.48925   0.00000  Uiso   1.00
H486   H     0.81448   0.80792   0.08535   0.00000  Uiso   1.00
H487   H     0.75296   0.81677   0.06457   0.00000  Uiso   1.00
H488   H     0.86345   0.89353   0.37420   0.00000  Uiso   1.00
H489   H     0.87617   0.96046   0.30297   0.00000  Uiso   1.00
N490   N     0.71426   0.83334   0.25001   0.00000  Uiso   1.00
N491   N     0.95239   0.83331   0.25000   0.00000  Uiso   1.00
O492   O     0.79512   0.89442   0.25000   0.00000  Uiso   1.00
O493   O     0.87157   0.89441   0.25000   0.00000  Uiso   1.00
O494   O     0.77613   0.83333   0.32681   0.00000  Uiso   1.00
O495   O     0.85258   0.83332   0.32681   0.00000  Uiso   1.00
O496   O     0.79510   0.77226   0.24999   0.00000  Uiso   1.00
O497   O     0.87154   0.77225   0.24999   0.00000  Uiso   1.00
O498   O     0.81409   0.83335   0.17319   0.00000  Uiso   1.00
O499   O     0.89053   0.83334   0.17319   0.00000  Uiso   1.00
Zn500  Zn    0.78229   0.83334   0.25000   0.00000  Uiso   1.00
Zn501  Zn    0.88438   0.83333   0.25000   0.00000  Uiso   1.00
Cl502  Cl    0.88584   0.71202   0.32317   0.00000  Uiso   1.00
H503   H     0.72018   0.80924   0.42020   0.00000  Uiso   1.00
H504   H     0.69708   0.80040   0.01857   0.00000  Uiso   1.00
C505   C     0.16657   0.24662   0.75019   0.00000  Uiso   1.00
C506   C     0.14344   0.17377   0.99240   0.00000  Uiso   1.00
C507   C     0.15266   0.18603   0.93838   0.00000  Uiso   1.00
C508   C     0.18012   0.17972   0.51489   0.00000  Uiso   1.00
C509   C     0.22167   0.20351   0.98685   0.00000  Uiso   1.00
C510   C     0.22648   0.22073   0.93662   0.00000  Uiso   1.00
C511   C     0.19228   0.21226   0.91272   0.00000  Uiso   1.00
C512   C     0.17687   0.16203   0.56430   0.00000  Uiso   1.00
C513   C     0.25070   0.19569   0.56210   0.00000  Uiso   1.00
C514   C     0.12230   0.17115   0.91112   0.00000  Uiso   1.00
C515   C     0.19083   0.31115   0.78068   0.00000  Uiso   1.00
C516   C     0.13992   0.16866   0.85211   0.00000  Uiso   1.00
C517   C     0.19055   0.02072   0.78228   0.00000  Uiso   1.00
C518   C     0.16592   0.04247   0.75318   0.00000  Uiso   1.00
C519   C     0.14063   0.02164   0.72464   0.00000  Uiso   1.00
C520   C     0.14051   0.31218   0.72399   0.00000  Uiso   1.00
C521   C     0.16608   0.29066   0.75146   0.00000  Uiso   1.00
C522   C     0.31850   0.13797   0.72028   0.00000  Uiso   1.00
C523   C     0.03312   0.13801   0.72024   0.00000  Uiso   1.00
C524   C     0.01484   0.19537   0.77970   0.00000  Uiso   1.00
C525   C     0.30030   0.19544   0.77955   0.00000  Uiso   1.00
C526   C     0.16629   0.08667   0.75153   0.00000  Uiso   1.00
C527   C     0.19338   0.16679   0.64786   0.00000  Uiso   1.00
C528   C     0.25725   0.21047   0.51016   0.00000  Uiso   1.00
C529   C     0.20947   0.17256   0.58964   0.00000  Uiso   1.00
C530   C     0.07776   0.15320   0.94042   0.00000  Uiso   1.00
C531   C     0.06503   0.14718   0.99587   0.00000  Uiso   1.00
C532   C     0.09792   0.15618   0.52164   0.00000  Uiso   1.00
H533   H     0.27624   0.20412   0.58165   0.00000  Uiso   1.00
H534   H     0.12169   0.03845   0.70219   0.00000  Uiso   1.00
H535   H     0.12140   0.29593   0.70133   0.00000  Uiso   1.00
H536   H     0.30769   0.11504   0.69646   0.00000  Uiso   1.00
H537   H     0.05859   0.11511   0.69636   0.00000  Uiso   1.00
H538   H     0.02565   0.21833   0.80348   0.00000  Uiso   1.00
H539   H     0.27505   0.21862   0.80295   0.00000  Uiso   1.00
H540   H     0.25702   0.24026   0.91543   0.00000  Uiso   1.00
H541   H     0.28893   0.22882   0.98925   0.00000  Uiso   1.00
H542   H     0.14781   0.14125   0.58535   0.00000  Uiso   1.00
H543   H     0.08629   0.15010   0.56457   0.00000  Uiso   1.00
H544   H     0.19679   0.22686   0.87420   0.00000  Uiso   1.00
H545   H     0.20951   0.29379   0.80297   0.00000  Uiso   1.00
N546   N     0.04760   0.16668   0.75001   0.00000  Uiso   1.00
N547   N     0.28573   0.16665   0.75000   0.00000  Uiso   1.00
O548   O     0.12846   0.22775   0.75000   0.00000  Uiso   1.00
O549   O     0.20490   0.22774   0.75000   0.00000  Uiso   1.00
O550   O     0.10947   0.16666   0.82681   0.00000  Uiso   1.00
O551   O     0.18591   0.16665   0.82681   0.00000  Uiso   1.00
O552   O     0.12843   0.10559   0.74999   0.00000  Uiso   1.00
O553   O     0.20488   0.10558   0.74999   0.00000  Uiso   1.00
O554   O     0.14742   0.16668   0.67319   0.00000  Uiso   1.00
O555   O     0.22387   0.16667   0.67319   0.00000  Uiso   1.00
Zn556  Zn    0.11562   0.16667   0.75000   0.00000  Uiso   1.00
Zn557  Zn    0.21771   0.16666   0.75000   0.00000  Uiso   1.00
Cl558  Cl    0.21917   0.04535   0.82317   0.00000  Uiso   1.00
H559   H     0.05351   0.14258   0.92020   0.00000  Uiso   1.00
H560   H     0.03042   0.13373   0.51857   0.00000  Uiso   1.00
C561   C     0.49990   0.24662   0.75019   0.00000  Uiso   1.00
C562   C     0.47677   0.17377   0.99240   0.00000  Uiso   1.00
C563   C     0.48599   0.18603   0.93838   0.00000  Uiso   1.00
C564   C     0.51345   0.17972   0.51489   0.00000  Uiso   1.00
C565   C     0.55500   0.20351   0.98685   0.00000  Uiso   1.00
C566   C     0.55981   0.22073   0.93662   0.00000  Uiso   1.00
C567   C     0.52562   0.21226   0.91272   0.00000  Uiso   1.00
C568   C     0.51021   0.16203   0.56430   0.00000  Uiso   1.00
C569   C     0.58403   0.19569   0.56210   0.00000  Uiso   1.00
C570   C     0.45563   0.17115   0.91112   0.00000  Uiso   1.00
C571   C     0.52417   0.31115   0.78068   0.00000  Uiso   1.00
C572   C     0.47325   0.16866   0.85211   0.00000  Uiso   1.00
C573   C     0.52388   0.02072   0.78228   0.00000  Uiso   1.00
C574   C     0.49925   0.04247   0.75318   0.00000  Uiso   1.00
C575   C     0.47396   0.02164   0.72464   0.00000  Uiso   1.00
C576   C     0.47384   0.31218   0.72399   0.00000  Uiso   1.00
C577   C     0.49941   0.29066   0.75146   0.00000  Uiso   1.00
C578   C     0.65184   0.13797   0.72028   0.00000  Uiso   1.00
C579   C     0.36645   0.13801   0.72024   0.00000  Uiso   1.00
C580   C     0.34817   0.19537   0.77970   0.00000  Uiso   1.00
C581   C     0.63363   0.19544   0.77955   0.00000  Uiso   1.00
C582   C     0.49963   0.08667   0.75153   0.00000  Uiso   1.00
C583   C     0.52671   0.16679   0.64786   0.00000  Uiso   1.00
C584   C     0.59059   0.21047   0.51016   0.00000  Uiso   1.00
C585   C     0.54281   0.17256   0.58964   0.00000  Uiso   1.00
C586   C     0.41110   0.15320   0.94042   0.00000  Uiso   1.00
C587   C     0.39836   0.14718   0.99587   0.00000  Uiso   1.00
C588   C     0.43125   0.15618   0.52164   0.00000  Uiso   1.00
H589   H     0.60957   0.20412   0.58165   0.00000  Uiso   1.00
H590   H     0.45502   0.03845   0.70219   0.00000  Uiso   1.00
H591   H     0.45474   0.29593   0.70133   0.00000  Uiso   1.00
H592   H     0.64103   0.11504   0.69646   0.00000  Uiso   1.00
H593   H     0.39193   0.11511   0.69636   0.00000  Uiso   1.00
H594   H     0.35898   0.21833   0.80348   0.00000  Uiso   1.00
H595   H     0.60838   0.21862   0.80295   0.00000  Uiso   1.00
H596   H     0.59036   0.24026   0.91543   0.00000  Uiso   1.00
H597   H     0.62226   0.22882   0.98925   0.00000  Uiso   1.00
H598   H     0.48115   0.14125   0.58535   0.00000  Uiso   1.00
H599   H     0.41963   0.15010   0.56457   0.00000  Uiso   1.00
H600   H     0.53012   0.22686   0.87420   0.00000  Uiso   1.00
H601   H     0.54284   0.29379   0.80297   0.00000  Uiso   1.00
N602   N     0.38093   0.16668   0.75001   0.00000  Uiso   1.00
N603   N     0.61906   0.16665   0.75000   0.00000  Uiso   1.00
O604   O     0.46179   0.22775   0.75000   0.00000  Uiso   1.00
O605   O     0.53823   0.22774   0.75000   0.00000  Uiso   1.00
O606   O     0.44280   0.16666   0.82681   0.00000  Uiso   1.00
O607   O     0.51924   0.16665   0.82681   0.00000  Uiso   1.00
O608   O     0.46177   0.10559   0.74999   0.00000  Uiso   1.00
O609   O     0.53821   0.10558   0.74999   0.00000  Uiso   1.00
O610   O     0.48076   0.16668   0.67319   0.00000  Uiso   1.00
O611   O     0.55720   0.16667   0.67319   0.00000  Uiso   1.00
Zn612  Zn    0.44896   0.16667   0.75000   0.00000  Uiso   1.00
Zn613  Zn    0.55104   0.16666   0.75000   0.00000  Uiso   1.00
Cl614  Cl    0.55251   0.04535   0.82317   0.00000  Uiso   1.00
H615   H     0.38685   0.14258   0.92020   0.00000  Uiso   1.00
H616   H     0.36375   0.13373   0.51857   0.00000  Uiso   1.00
C617   C     0.83323   0.24662   0.75019   0.00000  Uiso   1.00
C618   C     0.81010   0.17377   0.99240   0.00000  Uiso   1.00
C619   C     0.81932   0.18603   0.93838   0.00000  Uiso   1.00
C620   C     0.84678   0.17972   0.51489   0.00000  Uiso   1.00
C621   C     0.88833   0.20351   0.98685   0.00000  Uiso   1.00
C622   C     0.89315   0.22073   0.93662   0.00000  Uiso   1.00
C623   C     0.85895   0.21226   0.91272   0.00000  Uiso   1.00
C624   C     0.84354   0.16203   0.56430   0.00000  Uiso   1.00
C625   C     0.91736   0.19569   0.56210   0.00000  Uiso   1.00
C626   C     0.78897   0.17115   0.91112   0.00000  Uiso   1.00
C627   C     0.85750   0.31115   0.78068   0.00000  Uiso   1.00
C628   C     0.80659   0.16866   0.85211   0.00000  Uiso   1.00
C629   C     0.85721   0.02072   0.78228   0.00000  Uiso   1.00
C630   C     0.83259   0.04247   0.75318   0.00000  Uiso   1.00
C631   C     0.80729   0.02164   0.72464   0.00000  Uiso   1.00
C632   C     0.80717   0.31218   0.72399   0.00000  Uiso   1.00
C633   C     0.83274   0.29066   0.75146   0.00000  Uiso   1.00
C634   C     0.98517   0.13797   0.72028   0.00000  Uiso   1.00
C635   C     0.69979   0.13801   0.72024   0.00000  Uiso   1.00
C636   C     0.68151   0.19537   0.77970   0.00000  Uiso   1.00
C637   C     0.96697   0.19544   0.77955   0.00000  Uiso   1.00
C638   C     0.83296   0.08667   0.75153   0.00000  Uiso   1.00
C639   C     0.86004   0.16679   0.64786   0.00000  Uiso   1.00
C640   C     0.92392   0.21047   0.51016   0.00000  Uiso   1.00
C641   C     0.87614   0.17256   0.58964   0.00000  Uiso   1.00
C642   C     0.74443   0.15320   0.94042   0.00000  Uiso   1.00
C643   C     0.73170   0.14718   0.99587   0.00000  Uiso   1.00
C644   C     0.76458   0.15618   0.52164   0.00000  Uiso   1.00
H645   H     0.94291   0.20412   0.58165   0.00000  Uiso   1.00
H646   H     0.78835   0.03845   0.70219   0.00000  Uiso   1.00
H647   H     0.78807   0.29593   0.70133   0.00000  Uiso   1.00
H648   H     0.97436   0.11504   0.69646   0.00000  Uiso   1.00
H649   H     0.72526   0.11511   0.69636   0.00000  Uiso   1.00
H650   H     0.69232   0.21833   0.80348   0.00000  Uiso   1.00
H651   H     0.94172   0.21862   0.80295   0.00000  Uiso   1.00
H652   H     0.92369   0.24026   0.91543   0.00000  Uiso   1.00
H653   H     0.95560   0.22882   0.98925   0.00000  Uiso   1.00
H654   H     0.81448   0.14125   0.58535   0.00000  Uiso   1.00
H655   H     0.75296   0.15010   0.56457   0.00000  Uiso   1.00
H656   H     0.86345   0.22686   0.87420   0.00000  Uiso   1.00
H657   H     0.87617   0.29379   0.80297   0.00000  Uiso   1.00
N658   N     0.71426   0.16668   0.75001   0.00000  Uiso   1.00
N659   N     0.95239   0.16665   0.75000   0.00000  Uiso   1.00
O660   O     0.79512   0.22775   0.75000   0.00000  Uiso   1.00
O661   O     0.87157   0.22774   0.75000   0.00000  Uiso   1.00
O662   O     0.77613   0.16666   0.82681   0.00000  Uiso   1.00
O663   O     0.85258   0.16665   0.82681   0.00000  Uiso   1.00
O664   O     0.79510   0.10559   0.74999   0.00000  Uiso   1.00
O665   O     0.87154   0.10558   0.74999   0.00000  Uiso   1.00
O666   O     0.81409   0.16668   0.67319   0.00000  Uiso   1.00
O667   O     0.89053   0.16667   0.67319   0.00000  Uiso   1.00
Zn668  Zn    0.78229   0.16667   0.75000   0.00000  Uiso   1.00
Zn669  Zn    0.88438   0.16666   0.75000   0.00000  Uiso   1.00
Cl670  Cl    0.88584   0.04535   0.82317   0.00000  Uiso   1.00
H671   H     0.72018   0.14258   0.92020   0.00000  Uiso   1.00
H672   H     0.69708   0.13373   0.51857   0.00000  Uiso   1.00
C673   C     0.16657   0.57995   0.75019   0.00000  Uiso   1.00
C674   C     0.14344   0.50710   0.99240   0.00000  Uiso   1.00
C675   C     0.15266   0.51936   0.93838   0.00000  Uiso   1.00
C676   C     0.18012   0.51305   0.51489   0.00000  Uiso   1.00
C677   C     0.22167   0.53685   0.98685   0.00000  Uiso   1.00
C678   C     0.22648   0.55407   0.93662   0.00000  Uiso   1.00
C679   C     0.19228   0.54559   0.91272   0.00000  Uiso   1.00
C680   C     0.17687   0.49537   0.56430   0.00000  Uiso   1.00
C681   C     0.25070   0.52902   0.56210   0.00000  Uiso   1.00
C682   C     0.12230   0.50448   0.91112   0.00000  Uiso   1.00
C683   C     0.19083   0.64448   0.78068   0.00000  Uiso   1.00
C684   C     0.13992   0.50199   0.85211   0.00000  Uiso   1.00
C685   C     0.19055   0.35405   0.78228   0.00000  Uiso   1.00
C686   C     0.16592   0.37580   0.75318   0.00000  Uiso   1.00
C687   C     0.14063   0.35497   0.72464   0.00000  Uiso   1.00
C688   C     0.14051   0.64551   0.72399   0.00000  Uiso   1.00
C689   C     0.16608   0.62399   0.75146   0.00000  Uiso   1.00
C690   C     0.31850   0.47130   0.72028   0.00000  Uiso   1.00
C691   C     0.03312   0.47134   0.72024   0.00000  Uiso   1.00
C692   C     0.01484   0.52871   0.77970   0.00000  Uiso   1.00
C693   C     0.30030   0.52877   0.77955   0.00000  Uiso   1.00
C694   C     0.16629   0.42001   0.75153   0.00000  Uiso   1.00
C695   C     0.19338   0.50012   0.64786   0.00000  Uiso   1.00
C696   C     0.25725   0.54380   0.51016   0.00000  Uiso   1.00
C697   C     0.20947   0.50590   0.58964   0.00000  Uiso   1.00
C698   C     0.07776   0.48654   0.94042   0.00000  Uiso   1.00
C699   C     0.06503   0.48051   0.99587   0.00000  Uiso   1.00
C700   C     0.09792   0.48951   0.52164   0.00000  Uiso   1.00
H701   H     0.27624   0.53746   0.58165   0.00000  Uiso   1.00
H702   H     0.12169   0.37179   0.70219   0.00000  Uiso   1.00
H703   H     0.12140   0.62927   0.70133   0.00000  Uiso   1.00
H704   H     0.30769   0.44837   0.69646   0.00000  Uiso   1.00
H705   H     0.05859   0.44844   0.69636   0.00000  Uiso   1.00
H706   H     0.02565   0.55166   0.80348   0.00000  Uiso   1.00
H707   H     0.27505   0.55195   0.80295   0.00000  Uiso   1.00
H708   H     0.25702   0.57359   0.91543   0.00000  Uiso   1.00
H709   H     0.28893   0.56215   0.98925   0.00000  Uiso   1.00
H710   H     0.14781   0.47458   0.58535   0.00000  Uiso   1.00
H711   H     0.08629   0.48344   0.56457   0.00000  Uiso   1.00
H712   H     0.19679   0.56019   0.87420   0.00000  Uiso   1.00
H713   H     0.20951   0.62712   0.80297   0.00000  Uiso   1.00
N714   N     0.04760   0.50001   0.75001   0.00000  Uiso   1.00
N715   N     0.28573   0.49998   0.75000   0.00000  Uiso   1.00
O716   O     0.12846   0.56108   0.75000   0.00000  Uiso   1.00
O717   O     0.20490   0.56107   0.75000   0.00000  Uiso   1.00
O718   O     0.10947   0.50000   0.82681   0.00000  Uiso   1.00
O719   O     0.18591   0.49999   0.82681   0.00000  Uiso   1.00
O720   O     0.12843   0.43893   0.74999   0.00000  Uiso   1.00
O721   O     0.20488   0.43892   0.74999   0.00000  Uiso   1.00
O722   O     0.14742   0.50001   0.67319   0.00000  Uiso   1.00
O723   O     0.22387   0.50000   0.67319   0.00000  Uiso   1.00
Zn724  Zn    0.11562   0.50001   0.75000   0.00000  Uiso   1.00
Zn725  Zn    0.21771   0.49999   0.75000   0.00000  Uiso   1.00
Cl726  Cl    0.21917   0.37868   0.82317   0.00000  Uiso   1.00
H727   H     0.05351   0.47591   0.92020   0.00000  Uiso   1.00
H728   H     0.03042   0.46706   0.51857   0.00000  Uiso   1.00
C729   C     0.49990   0.57995   0.75019   0.00000  Uiso   1.00
C730   C     0.47677   0.50710   0.99240   0.00000  Uiso   1.00
C731   C     0.48599   0.51936   0.93838   0.00000  Uiso   1.00
C732   C     0.51345   0.51305   0.51489   0.00000  Uiso   1.00
C733   C     0.55500   0.53685   0.98685   0.00000  Uiso   1.00
C734   C     0.55981   0.55407   0.93662   0.00000  Uiso   1.00
C735   C     0.52562   0.54559   0.91272   0.00000  Uiso   1.00
C736   C     0.51021   0.49537   0.56430   0.00000  Uiso   1.00
C737   C     0.58403   0.52902   0.56210   0.00000  Uiso   1.00
C738   C     0.45563   0.50448   0.91112   0.00000  Uiso   1.00
C739   C     0.52417   0.64448   0.78068   0.00000  Uiso   1.00
C740   C     0.47325   0.50199   0.85211   0.00000  Uiso   1.00
C741   C     0.52388   0.35405   0.78228   0.00000  Uiso   1.00
C742   C     0.49925   0.37580   0.75318   0.00000  Uiso   1.00
C743   C     0.47396   0.35497   0.72464   0.00000  Uiso   1.00
C744   C     0.47384   0.64551   0.72399   0.00000  Uiso   1.00
C745   C     0.49941   0.62399   0.75146   0.00000  Uiso   1.00
C746   C     0.65184   0.47130   0.72028   0.00000  Uiso   1.00
C747   C     0.36645   0.47134   0.72024   0.00000  Uiso   1.00
C748   C     0.34817   0.52871   0.77970   0.00000  Uiso   1.00
C749   C     0.63363   0.52877   0.77955   0.00000  Uiso   1.00
C750   C     0.49963   0.42001   0.75153   0.00000  Uiso   1.00
C751   C     0.52671   0.50012   0.64786   0.00000  Uiso   1.00
C752   C     0.59059   0.54380   0.51016   0.00000  Uiso   1.00
C753   C     0.54281   0.50590   0.58964   0.00000  Uiso   1.00
C754   C     0.41110   0.48654   0.94042   0.00000  Uiso   1.00
C755   C     0.39836   0.48051   0.99587   0.00000  Uiso   1.00
C756   C     0.43125   0.48951   0.52164   0.00000  Uiso   1.00
H757   H     0.60957   0.53746   0.58165   0.00000  Uiso   1.00
H758   H     0.45502   0.37179   0.70219   0.00000  Uiso   1.00
H759   H     0.45474   0.62927   0.70133   0.00000  Uiso   1.00
H760   H     0.64103   0.44837   0.69646   0.00000  Uiso   1.00
H761   H     0.39193   0.44844   0.69636   0.00000  Uiso   1.00
H762   H     0.35898   0.55166   0.80348   0.00000  Uiso   1.00
H763   H     0.60838   0.55195   0.80295   0.00000  Uiso   1.00
H764   H     0.59036   0.57359   0.91543   0.00000  Uiso   1.00
H765   H     0.62226   0.56215   0.98925   0.00000  Uiso   1.00
H766   H     0.48115   0.47458   0.58535   0.00000  Uiso   1.00
H767   H     0.41963   0.48344   0.56457   0.00000  Uiso   1.00
H768   H     0.53012   0.56019   0.87420   0.00000  Uiso   1.00
H769   H     0.54284   0.62712   0.80297   0.00000  Uiso   1.00
N770   N     0.38093   0.50001   0.75001   0.00000  Uiso   1.00
N771   N     0.61906   0.49998   0.75000   0.00000  Uiso   1.00
O772   O     0.46179   0.56108   0.75000   0.00000  Uiso   1.00
O773   O     0.53823   0.56107   0.75000   0.00000  Uiso   1.00
O774   O     0.44280   0.50000   0.82681   0.00000  Uiso   1.00
O775   O     0.51924   0.49999   0.82681   0.00000  Uiso   1.00
O776   O     0.46177   0.43893   0.74999   0.00000  Uiso   1.00
O777   O     0.53821   0.43892   0.74999   0.00000  Uiso   1.00
O778   O     0.48076   0.50001   0.67319   0.00000  Uiso   1.00
O779   O     0.55720   0.50000   0.67319   0.00000  Uiso   1.00
Zn780  Zn    0.44896   0.50001   0.75000   0.00000  Uiso   1.00
Zn781  Zn    0.55104   0.49999   0.75000   0.00000  Uiso   1.00
Cl782  Cl    0.55251   0.37868   0.82317   0.00000  Uiso   1.00
H783   H     0.38685   0.47591   0.92020   0.00000  Uiso   1.00
H784   H     0.36375   0.46706   0.51857   0.00000  Uiso   1.00
C785   C     0.83323   0.57995   0.75019   0.00000  Uiso   1.00
C786   C     0.81010   0.50710   0.99240   0.00000  Uiso   1.00
C787   C     0.81932   0.51936   0.93838   0.00000  Uiso   1.00
C788   C     0.84678   0.51305   0.51489   0.00000  Uiso   1.00
C789   C     0.88833   0.53685   0.98685   0.00000  Uiso   1.00
C790   C     0.89315   0.55407   0.93662   0.00000  Uiso   1.00
C791   C     0.85895   0.54559   0.91272   0.00000  Uiso   1.00
C792   C     0.84354   0.49537   0.56430   0.00000  Uiso   1.00
C793   C     0.91736   0.52902   0.56210   0.00000  Uiso   1.00
C794   C     0.78897   0.50448   0.91112   0.00000  Uiso   1.00
C795   C     0.85750   0.64448   0.78068   0.00000  Uiso   1.00
C796   C     0.80659   0.50199   0.85211   0.00000  Uiso   1.00
C797   C     0.85721   0.35405   0.78228   0.00000  Uiso   1.00
C798   C     0.83259   0.37580   0.75318   0.00000  Uiso   1.00
C799   C     0.80729   0.35497   0.72464   0.00000  Uiso   1.00
C800   C     0.80717   0.64551   0.72399   0.00000  Uiso   1.00
C801   C     0.83274   0.62399   0.75146   0.00000  Uiso   1.00
C802   C     0.98517   0.47130   0.72028   0.00000  Uiso   1.00
C803   C     0.69979   0.47134   0.72024   0.00000  Uiso   1.00
C804   C     0.68151   0.52871   0.77970   0.00000  Uiso   1.00
C805   C     0.96697   0.52877   0.77955   0.00000  Uiso   1.00
C806   C     0.83296   0.42001   0.75153   0.00000  Uiso   1.00
C807   C     0.86004   0.50012   0.64786   0.00000  Uiso   1.00
C808   C     0.92392   0.54380   0.51016   0.00000  Uiso   1.00
C809   C     0.87614   0.50590   0.58964   0.00000  Uiso   1.00
C810   C     0.74443   0.48654   0.94042   0.00000  Uiso   1.00
C811   C     0.73170   0.48051   0.99587   0.00000  Uiso   1.00
C812   C     0.76458   0.48951   0.52164   0.00000  Uiso   1.00
H813   H     0.94291   0.53746   0.58165   0.00000  Uiso   1.00
H814   H     0.78835   0.37179   0.70219   0.00000  Uiso   1.00
H815   H     0.78807   0.62927   0.70133   0.00000  Uiso   1.00
H816   H     0.97436   0.44837   0.69646   0.00000  Uiso   1.00
H817   H     0.72526   0.44844   0.69636   0.00000  Uiso   1.00
H818   H     0.69232   0.55166   0.80348   0.00000  Uiso   1.00
H819   H     0.94172   0.55195   0.80295   0.00000  Uiso   1.00
H820   H     0.92369   0.57359   0.91543   0.00000  Uiso   1.00
H821   H     0.95560   0.56215   0.98925   0.00000  Uiso   1.00
H822   H     0.81448   0.47458   0.58535   0.00000  Uiso   1.00
H823   H     0.75296   0.48344   0.56457   0.00000  Uiso   1.00
H824   H     0.86345   0.56019   0.87420   0.00000  Uiso   1.00
H825   H     0.87617   0.62712   0.80297   0.00000  Uiso   1.00
N826   N     0.71426   0.50001   0.75001   0.00000  Uiso   1.00
N827   N     0.95239   0.49998   0.75000   0.00000  Uiso   1.00
O828   O     0.79512   0.56108   0.75000   0.00000  Uiso   1.00
O829   O     0.87157   0.56107   0.75000   0.00000  Uiso   1.00
O830   O     0.77613   0.50000   0.82681   0.00000  Uiso   1.00
O831   O     0.85258   0.49999   0.82681   0.00000  Uiso   1.00
O832   O     0.79510   0.43893   0.74999   0.00000  Uiso   1.00
O833   O     0.87154   0.43892   0.74999   0.00000  Uiso   1.00
O834   O     0.81409   0.50001   0.67319   0.00000  Uiso   1.00
O835   O     0.89053   0.50000   0.67319   0.00000  Uiso   1.00
Zn836  Zn    0.78229   0.50001   0.75000   0.00000  Uiso   1.00
Zn837  Zn    0.88438   0.49999   0.75000   0.00000  Uiso   1.00
Cl838  Cl    0.88584   0.37868   0.82317   0.00000  Uiso   1.00
H839   H     0.72018   0.47591   0.92020   0.00000  Uiso   1.00
H840   H     0.69708   0.46706   0.51857   0.00000  Uiso   1.00
C841   C     0.16657   0.91329   0.75019   0.00000  Uiso   1.00
C842   C     0.14344   0.84043   0.99240   0.00000  Uiso   1.00
C843   C     0.15266   0.85270   0.93838   0.00000  Uiso   1.00
C844   C     0.18012   0.84638   0.51489   0.00000  Uiso   1.00
C845   C     0.22167   0.87018   0.98685   0.00000  Uiso   1.00
C846   C     0.22648   0.88740   0.93662   0.00000  Uiso   1.00
C847   C     0.19228   0.87892   0.91272   0.00000  Uiso   1.00
C848   C     0.17687   0.82870   0.56430   0.00000  Uiso   1.00
C849   C     0.25070   0.86235   0.56210   0.00000  Uiso   1.00
C850   C     0.12230   0.83781   0.91112   0.00000  Uiso   1.00
C851   C     0.19083   0.97781   0.78068   0.00000  Uiso   1.00
C852   C     0.13992   0.83532   0.85211   0.00000  Uiso   1.00
C853   C     0.19055   0.68738   0.78228   0.00000  Uiso   1.00
C854   C     0.16592   0.70913   0.75318   0.00000  Uiso   1.00
C855   C     0.14063   0.68830   0.72464   0.00000  Uiso   1.00
C856   C     0.14051   0.97885   0.72399   0.00000  Uiso   1.00
C857   C     0.16608   0.95732   0.75146   0.00000  Uiso   1.00
C858   C     0.31850   0.80463   0.72028   0.00000  Uiso   1.00
C859   C     0.03312   0.80467   0.72024   0.00000  Uiso   1.00
C860   C     0.01484   0.86204   0.77970   0.00000  Uiso   1.00
C861   C     0.30030   0.86210   0.77955   0.00000  Uiso   1.00
C862   C     0.16629   0.75334   0.75153   0.00000  Uiso   1.00
C863   C     0.19338   0.83345   0.64786   0.00000  Uiso   1.00
C864   C     0.25725   0.87714   0.51016   0.00000  Uiso   1.00
C865   C     0.20947   0.83923   0.58964   0.00000  Uiso   1.00
C866   C     0.07776   0.81987   0.94042   0.00000  Uiso   1.00
C867   C     0.06503   0.81384   0.99587   0.00000  Uiso   1.00
C868   C     0.09792   0.82285   0.52164   0.00000  Uiso   1.00
H869   H     0.27624   0.87079   0.58165   0.00000  Uiso   1.00
H870   H     0.12169   0.70512   0.70219   0.00000  Uiso   1.00
H871   H     0.12140   0.96260   0.70133   0.00000  Uiso   1.00
H872   H     0.30769   0.78170   0.69646   0.00000  Uiso   1.00
H873   H     0.05859   0.78177   0.69636   0.00000  Uiso   1.00
H874   H     0.02565   0.88500   0.80348   0.00000  Uiso   1.00
H875   H     0.27505   0.88528   0.80295   0.00000  Uiso   1.00
H876   H     0.25702   0.90692   0.91543   0.00000  Uiso   1.00
H877   H     0.28893   0.89548   0.98925   0.00000  Uiso   1.00
H878   H     0.14781   0.80792   0.58535   0.00000  Uiso   1.00
H879   H     0.08629   0.81677   0.56457   0.00000  Uiso   1.00
H880   H     0.19679   0.89353   0.87420   0.00000  Uiso   1.00
H881   H     0.20951   0.96046   0.80297   0.00000  Uiso   1.00
N882   N     0.04760   0.83334   0.75001   0.00000  Uiso   1.00
N883   N     0.28573   0.83331   0.75000   0.00000  Uiso   1.00
O884   O     0.12846   0.89442   0.75000   0.00000  Uiso   1.00
O885   O     0.20490   0.89441   0.75000   0.00000  Uiso   1.00
O886   O     0.10947   0.83333   0.82681   0.00000  Uiso   1.00
O887   O     0.18591   0.83332   0.82681   0.00000  Uiso   1.00
O888   O     0.12843   0.77226   0.74999   0.00000  Uiso   1.00
O889   O     0.20488   0.77225   0.74999   0.00000  Uiso   1.00
O890   O     0.14742   0.83335   0.67319   0.00000  Uiso   1.00
O891   O     0.22387   0.83334   0.67319   0.00000  Uiso   1.00
Zn892  Zn    0.11562   0.83334   0.75000   0.00000  Uiso   1.00
Zn893  Zn    0.21771   0.83333   0.75000   0.00000  Uiso   1.00
Cl894  Cl    0.21917   0.71202   0.82317   0.00000  Uiso   1.00
H895   H     0.05351   0.80924   0.92020   0.00000  Uiso   1.00
H896   H     0.03042   0.80040   0.51857   0.00000  Uiso   1.00
C897   C     0.49990   0.91329   0.75019   0.00000  Uiso   1.00
C898   C     0.47677   0.84043   0.99240   0.00000  Uiso   1.00
C899   C     0.48599   0.85270   0.93838   0.00000  Uiso   1.00
C900   C     0.51345   0.84638   0.51489   0.00000  Uiso   1.00
C901   C     0.55500   0.87018   0.98685   0.00000  Uiso   1.00
C902   C     0.55981   0.88740   0.93662   0.00000  Uiso   1.00
C903   C     0.52562   0.87892   0.91272   0.00000  Uiso   1.00
C904   C     0.51021   0.82870   0.56430   0.00000  Uiso   1.00
C905   C     0.58403   0.86235   0.56210   0.00000  Uiso   1.00
C906   C     0.45563   0.83781   0.91112   0.00000  Uiso   1.00
C907   C     0.52417   0.97781   0.78068   0.00000  Uiso   1.00
C908   C     0.47325   0.83532   0.85211   0.00000  Uiso   1.00
C909   C     0.52388   0.68738   0.78228   0.00000  Uiso   1.00
C910   C     0.49925   0.70913   0.75318   0.00000  Uiso   1.00
C911   C     0.47396   0.68830   0.72464   0.00000  Uiso   1.00
C912   C     0.47384   0.97885   0.72399   0.00000  Uiso   1.00
C913   C     0.49941   0.95732   0.75146   0.00000  Uiso   1.00
C914   C     0.65184   0.80463   0.72028   0.00000  Uiso   1.00
C915   C     0.36645   0.80467   0.72024   0.00000  Uiso   1.00
C916   C     0.34817   0.86204   0.77970   0.00000  Uiso   1.00
C917   C     0.63363   0.86210   0.77955   0.00000  Uiso   1.00
C918   C     0.49963   0.75334   0.75153   0.00000  Uiso   1.00
C919   C     0.52671   0.83345   0.64786   0.00000  Uiso   1.00
C920   C     0.59059   0.87714   0.51016   0.00000  Uiso   1.00
C921   C     0.54281   0.83923   0.58964   0.00000  Uiso   1.00
C922   C     0.41110   0.81987   0.94042   0.00000  Uiso   1.00
C923   C     0.39836   0.81384   0.99587   0.00000  Uiso   1.00
C924   C     0.43125   0.82285   0.52164   0.00000  Uiso   1.00
H925   H     0.60957   0.87079   0.58165   0.00000  Uiso   1.00
H926   H     0.45502   0.70512   0.70219   0.00000  Uiso   1.00
H927   H     0.45474   0.96260   0.70133   0.00000  Uiso   1.00
H928   H     0.64103   0.78170   0.69646   0.00000  Uiso   1.00
H929   H     0.39193   0.78177   0.69636   0.00000  Uiso   1.00
H930   H     0.35898   0.88500   0.80348   0.00000  Uiso   1.00
H931   H     0.60838   0.88528   0.80295   0.00000  Uiso   1.00
H932   H     0.59036   0.90692   0.91543   0.00000  Uiso   1.00
H933   H     0.62226   0.89548   0.98925   0.00000  Uiso   1.00
H934   H     0.48115   0.80792   0.58535   0.00000  Uiso   1.00
H935   H     0.41963   0.81677   0.56457   0.00000  Uiso   1.00
H936   H     0.53012   0.89353   0.87420   0.00000  Uiso   1.00
H937   H     0.54284   0.96046   0.80297   0.00000  Uiso   1.00
N938   N     0.38093   0.83334   0.75001   0.00000  Uiso   1.00
N939   N     0.61906   0.83331   0.75000   0.00000  Uiso   1.00
O940   O     0.46179   0.89442   0.75000   0.00000  Uiso   1.00
O941   O     0.53823   0.89441   0.75000   0.00000  Uiso   1.00
O942   O     0.44280   0.83333   0.82681   0.00000  Uiso   1.00
O943   O     0.51924   0.83332   0.82681   0.00000  Uiso   1.00
O944   O     0.46177   0.77226   0.74999   0.00000  Uiso   1.00
O945   O     0.53821   0.77225   0.74999   0.00000  Uiso   1.00
O946   O     0.48076   0.83335   0.67319   0.00000  Uiso   1.00
O947   O     0.55720   0.83334   0.67319   0.00000  Uiso   1.00
Zn948  Zn    0.44896   0.83334   0.75000   0.00000  Uiso   1.00
Zn949  Zn    0.55104   0.83333   0.75000   0.00000  Uiso   1.00
Cl950  Cl    0.55251   0.71202   0.82317   0.00000  Uiso   1.00
H951   H     0.38685   0.80924   0.92020   0.00000  Uiso   1.00
H952   H     0.36375   0.80040   0.51857   0.00000  Uiso   1.00
C953   C     0.83323   0.91329   0.75019   0.00000  Uiso   1.00
C954   C     0.81010   0.84043   0.99240   0.00000  Uiso   1.00
C955   C     0.81932   0.85270   0.93838   0.00000  Uiso   1.00
C956   C     0.84678   0.84638   0.51489   0.00000  Uiso   1.00
C957   C     0.88833   0.87018   0.98685   0.00000  Uiso   1.00
C958   C     0.89315   0.88740   0.93662   0.00000  Uiso   1.00
C959   C     0.85895   0.87892   0.91272   0.00000  Uiso   1.00
C960   C     0.84354   0.82870   0.56430   0.00000  Uiso   1.00
C961   C     0.91736   0.86235   0.56210   0.00000  Uiso   1.00
C962   C     0.78897   0.83781   0.91112   0.00000  Uiso   1.00
C963   C     0.85750   0.97781   0.78068   0.00000  Uiso   1.00
C964   C     0.80659   0.83532   0.85211   0.00000  Uiso   1.00
C965   C     0.85721   0.68738   0.78228   0.00000  Uiso   1.00
C966   C     0.83259   0.70913   0.75318   0.00000  Uiso   1.00
C967   C     0.80729   0.68830   0.72464   0.00000  Uiso   1.00
C968   C     0.80717   0.97885   0.72399   0.00000  Uiso   1.00
C969   C     0.83274   0.95732   0.75146   0.00000  Uiso   1.00
C970   C     0.98517   0.80463   0.72028   0.00000  Uiso   1.00
C971   C     0.69979   0.80467   0.72024   0.00000  Uiso   1.00
C972   C     0.68151   0.86204   0.77970   0.00000  Uiso   1.00
C973   C     0.96697   0.86210   0.77955   0.00000  Uiso   1.00
C974   C     0.83296   0.75334   0.75153   0.00000  Uiso   1.00
C975   C     0.86004   0.83345   0.64786   0.00000  Uiso   1.00
C976   C     0.92392   0.87714   0.51016   0.00000  Uiso   1.00
C977   C     0.87614   0.83923   0.58964   0.00000  Uiso   1.00
C978   C     0.74443   0.81987   0.94042   0.00000  Uiso   1.00
C979   C     0.73170   0.81384   0.99587   0.00000  Uiso   1.00
C980   C     0.76458   0.82285   0.52164   0.00000  Uiso   1.00
H981   H     0.94291   0.87079   0.58165   0.00000  Uiso   1.00
H982   H     0.78835   0.70512   0.70219   0.00000  Uiso   1.00
H983   H     0.78807   0.96260   0.70133   0.00000  Uiso   1.00
H984   H     0.97436   0.78170   0.69646   0.00000  Uiso   1.00
H985   H     0.72526   0.78177   0.69636   0.00000  Uiso   1.00
H986   H     0.69232   0.88500   0.80348   0.00000  Uiso   1.00
H987   H     0.94172   0.88528   0.80295   0.00000  Uiso   1.00
H988   H     0.92369   0.90692   0.91543   0.00000  Uiso   1.00
H989   H     0.95560   0.89548   0.98925   0.00000  Uiso   1.00
H990   H     0.81448   0.80792   0.58535   0.00000  Uiso   1.00
H991   H     0.75296   0.81677   0.56457   0.00000  Uiso   1.00
H992   H     0.86345   0.89353   0.87420   0.00000  Uiso   1.00
H993   H     0.87617   0.96046   0.80297   0.00000  Uiso   1.00
N994   N     0.71426   0.83334   0.75001   0.00000  Uiso   1.00
N995   N     0.95239   0.83331   0.75000   0.00000  Uiso   1.00
O996   O     0.79512   0.89442   0.75000   0.00000  Uiso   1.00
O997   O     0.87157   0.89441   0.75000   0.00000  Uiso   1.00
O998   O     0.77613   0.83333   0.82681   0.00000  Uiso   1.00
O999   O     0.85258   0.83332   0.82681   0.00000  Uiso   1.00
O1000  O     0.79510   0.77226   0.74999   0.00000  Uiso   1.00
O1001  O     0.87154   0.77225   0.74999   0.00000  Uiso   1.00
O1002  O     0.81409   0.83335   0.67319   0.00000  Uiso   1.00
O1003  O     0.89053   0.83334   0.67319   0.00000  Uiso   1.00
Zn1004 Zn    0.78229   0.83334   0.75000   0.00000  Uiso   1.00
Zn1005 Zn    0.88438   0.83333   0.75000   0.00000  Uiso   1.00
Cl1006 Cl    0.88584   0.71202   0.82317   0.00000  Uiso   1.00
H1007  H     0.72018   0.80924   0.92020   0.00000  Uiso   1.00
H1008  H     0.69708   0.80040   0.51857   0.00000  Uiso   1.00
loop_
_geom_bond_atom_site_label_1
_geom_bond_atom_site_label_2
_geom_bond_distance
_geom_bond_site_symmetry_2
_ccdc_geom_bond_type
C1     O44     1.281   .     A
C1     O45     1.281   .     A
C1     C17     1.410   .     S
C2     C3      1.407   .     A
C2     C508    1.414   .     S
C2     C532    1.419   .     S
C3     C10     1.410   .     A
C3     C7      1.413   .     A
C4     C8      1.390   .     A
C4     C506    1.414   1_554 S
C4     C509    1.421   1_554 S
C5     C6      1.392   .     A
C5     C508    1.421   .     S
C5     C528    1.405   .     S
C6     C7      1.388   .     A
C6     H36     1.084   .     S
C7     H40     1.081   .     S
C8     C25     1.388   .     A
C8     H38     1.079   .     S
C9     C24     1.394   .     A
C9     H29     1.083   .     S
C9     C25     1.399   .     A
C10    C12     1.459   .     S
C10    C26     1.402   .     A
C11    H41     1.085   .     S
C11    C17     1.394   .     A
C11    C181    1.374   .     S
C12    O47     1.294   .     A
C12    O46     1.291   .     A
C13    C14     1.407   .     A
C13    Cl54    1.766   .     S
C13    C347    1.374   1_545 S
C14    C15     1.397   .     A
C14    C22     1.416   .     S
C15    H30     1.084   .     S
C15    C352    1.370   1_545 S
C16    H31     1.084   .     S
C16    C17     1.392   .     A
C16    C183    1.370   .     S
C18    N43     1.366   .     A
C18    H32     1.082   .     S
C18    C75     1.417   .     S
C19    N42     1.367   .     A
C19    H33     1.082   .     S
C19    C130    1.417   1_455 S
C20    N42     1.366   .     A
C20    H34     1.082   .     S
C20    C133    1.416   1_455 S
C21    H35     1.080   .     S
C21    N43     1.367   .     A
C21    C76     1.416   .     S
C22    O48     1.284   .     A
C22    O49     1.281   .     A
C23    C25     1.450   .     S
C23    O50     1.292   .     A
C23    O51     1.291   .     A
C24    C509    1.405   1_554 S
C24    H541    1.084   1_554 S
C26    H55     1.083   .     S
C26    C27     1.388   .     A
C27    C532    1.392   .     S
C27    H560    1.083   .     S
C28    H39     1.079   .     S
C28    C531    1.392   1_554 S
C28    C506    1.419   1_554 S
H37    C528    1.084   .     S
N42    Zn52    2.010   .     S
N43    Zn53    2.010   .     S
O44    Zn52    1.993   .     S
O45    Zn53    1.991   .     S
O46    Zn52    1.963   .     S
O47    Zn53    1.912   .     S
O48    Zn52    1.991   .     S
O49    Zn53    1.993   .     S
O50    Zn52    1.912   .     S
O51    Zn53    1.963   .     S
H56    C531    1.083   1_554 S
C57    O100    1.281   .     A
C57    O101    1.281   .     A
C57    C73     1.410   .     S
C58    C59     1.407   .     A
C58    C564    1.414   .     S
C58    C588    1.419   .     S
C59    C66     1.410   .     A
C59    C63     1.413   .     A
C60    C64     1.390   .     A
C60    C562    1.414   1_554 S
C60    C565    1.421   1_554 S
C61    C62     1.392   .     A
C61    C564    1.421   .     S
C61    C584    1.405   .     S
C62    C63     1.388   .     A
C62    H92     1.084   .     S
C63    H96     1.081   .     S
C64    C81     1.388   .     A
C64    H94     1.079   .     S
C65    C80     1.394   .     A
C65    H85     1.083   .     S
C65    C81     1.399   .     A
C66    C68     1.459   .     S
C66    C82     1.402   .     A
C67    H97     1.085   .     S
C67    C73     1.394   .     A
C67    C237    1.374   .     S
C68    O103    1.294   .     A
C68    O102    1.291   .     A
C69    C70     1.407   .     A
C69    Cl110   1.766   .     S
C69    C403    1.374   1_545 S
C70    C71     1.397   .     A
C70    C78     1.416   .     S
C71    H86     1.084   .     S
C71    C408    1.370   1_545 S
C72    H87     1.084   .     S
C72    C73     1.392   .     A
C72    C239    1.370   .     S
C74    N99     1.366   .     A
C74    H88     1.082   .     S
C74    C131    1.417   .     S
C75    N98     1.367   .     A
C75    H89     1.082   .     S
C76    N98     1.366   .     A
C76    H90     1.082   .     S
C77    H91     1.080   .     S
C77    N99     1.367   .     A
C77    C132    1.416   .     S
C78    O104    1.284   .     A
C78    O105    1.281   .     A
C79    C81     1.450   .     S
C79    O106    1.292   .     A
C79    O107    1.291   .     A
C80    C565    1.405   1_554 S
C80    H597    1.084   1_554 S
C82    H111    1.083   .     S
C82    C83     1.388   .     A
C83    C588    1.392   .     S
C83    H616    1.083   .     S
C84    H95     1.079   .     S
C84    C587    1.392   1_554 S
C84    C562    1.419   1_554 S
H93    C584    1.084   .     S
N98    Zn108   2.010   .     S
N99    Zn109   2.010   .     S
O100   Zn108   1.993   .     S
O101   Zn109   1.991   .     S
O102   Zn108   1.963   .     S
O103   Zn109   1.912   .     S
O104   Zn108   1.991   .     S
O105   Zn109   1.993   .     S
O106   Zn108   1.912   .     S
O107   Zn109   1.963   .     S
H112   C587    1.083   1_554 S
C113   O156    1.281   .     A
C113   O157    1.281   .     A
C113   C129    1.410   .     S
C114   C115    1.407   .     A
C114   C620    1.414   .     S
C114   C644    1.419   .     S
C115   C122    1.410   .     A
C115   C119    1.413   .     A
C116   C120    1.390   .     A
C116   C618    1.414   1_554 S
C116   C621    1.421   1_554 S
C117   C118    1.392   .     A
C117   C620    1.421   .     S
C117   C640    1.405   .     S
C118   C119    1.388   .     A
C118   H148    1.084   .     S
C119   H152    1.081   .     S
C120   C137    1.388   .     A
C120   H150    1.079   .     S
C121   C136    1.394   .     A
C121   H141    1.083   .     S
C121   C137    1.399   .     A
C122   C124    1.459   .     S
C122   C138    1.402   .     A
C123   H153    1.085   .     S
C123   C129    1.394   .     A
C123   C293    1.374   .     S
C124   O159    1.294   .     A
C124   O158    1.291   .     A
C125   C126    1.407   .     A
C125   Cl166   1.766   .     S
C125   C459    1.374   1_545 S
C126   C127    1.397   .     A
C126   C134    1.416   .     S
C127   H142    1.084   .     S
C127   C464    1.370   1_545 S
C128   H143    1.084   .     S
C128   C129    1.392   .     A
C128   C295    1.370   .     S
C130   N155    1.366   .     A
C130   H144    1.082   .     S
C130   C19     1.417   1_655 S
C131   N154    1.367   .     A
C131   H145    1.082   .     S
C132   N154    1.366   .     A
C132   H146    1.082   .     S
C133   H147    1.080   .     S
C133   N155    1.367   .     A
C133   C20     1.416   1_655 S
C134   O160    1.284   .     A
C134   O161    1.281   .     A
C135   C137    1.450   .     S
C135   O162    1.292   .     A
C135   O163    1.291   .     A
C136   C621    1.405   1_554 S
C136   H653    1.084   1_554 S
C138   H167    1.083   .     S
C138   C139    1.388   .     A
C139   C644    1.392   .     S
C139   H672    1.083   .     S
C140   H151    1.079   .     S
C140   C643    1.392   1_554 S
C140   C618    1.419   1_554 S
H149   C640    1.084   .     S
N154   Zn164   2.010   .     S
N155   Zn165   2.010   .     S
O156   Zn164   1.993   .     S
O157   Zn165   1.991   .     S
O158   Zn164   1.963   .     S
O159   Zn165   1.912   .     S
O160   Zn164   1.991   .     S
O161   Zn165   1.993   .     S
O162   Zn164   1.912   .     S
O163   Zn165   1.963   .     S
H168   C643    1.083   1_554 S
C169   O212    1.281   .     A
C169   O213    1.281   .     A
C169   C185    1.410   .     S
C170   C171    1.407   .     A
C170   C676    1.414   .     S
C170   C700    1.419   .     S
C171   C178    1.410   .     A
C171   C175    1.413   .     A
C172   C176    1.390   .     A
C172   C674    1.414   1_554 S
C172   C677    1.421   1_554 S
C173   C174    1.392   .     A
C173   C676    1.421   .     S
C173   C696    1.405   .     S
C174   C175    1.388   .     A
C174   H204    1.084   .     S
C175   H208    1.081   .     S
C176   C193    1.388   .     A
C176   H206    1.079   .     S
C177   C192    1.394   .     A
C177   H197    1.083   .     S
C177   C193    1.399   .     A
C178   C180    1.459   .     S
C178   C194    1.402   .     A
C179   H209    1.085   .     S
C179   C185    1.394   .     A
C179   C349    1.374   .     S
C180   O215    1.294   .     A
C180   O214    1.291   .     A
C181   C182    1.407   .     A
C181   Cl222   1.766   .     S
C182   C183    1.397   .     A
C182   C190    1.416   .     S
C183   H198    1.084   .     S
C184   H199    1.084   .     S
C184   C185    1.392   .     A
C184   C351    1.370   .     S
C186   N211    1.366   .     A
C186   H200    1.082   .     S
C186   C243    1.417   .     S
C187   N210    1.367   .     A
C187   H201    1.082   .     S
C187   C298    1.417   1_455 S
C188   N210    1.366   .     A
C188   H202    1.082   .     S
C188   C301    1.416   1_455 S
C189   H203    1.080   .     S
C189   N211    1.367   .     A
C189   C244    1.416   .     S
C190   O216    1.284   .     A
C190   O217    1.281   .     A
C191   C193    1.450   .     S
C191   O218    1.292   .     A
C191   O219    1.291   .     A
C192   C677    1.405   1_554 S
C192   H709    1.084   1_554 S
C194   H223    1.083   .     S
C194   C195    1.388   .     A
C195   C700    1.392   .     S
C195   H728    1.083   .     S
C196   H207    1.079   .     S
C196   C699    1.392   1_554 S
C196   C674    1.419   1_554 S
H205   C696    1.084   .     S
N210   Zn220   2.010   .     S
N211   Zn221   2.010   .     S
O212   Zn220   1.993   .     S
O213   Zn221   1.991   .     S
O214   Zn220   1.963   .     S
O215   Zn221   1.912   .     S
O216   Zn220   1.991   .     S
O217   Zn221   1.993   .     S
O218   Zn220   1.912   .     S
O219   Zn221   1.963   .     S
H224   C699    1.083   1_554 S
C225   O268    1.281   .     A
C225   O269    1.281   .     A
C225   C241    1.410   .     S
C226   C227    1.407   .     A
C226   C732    1.414   .     S
C226   C756    1.419   .     S
C227   C234    1.410   .     A
C227   C231    1.413   .     A
C228   C232    1.390   .     A
C228   C730    1.414   1_554 S
C228   C733    1.421   1_554 S
C229   C230    1.392   .     A
C229   C732    1.421   .     S
C229   C752    1.405   .     S
C230   C231    1.388   .     A
C230   H260    1.084   .     S
C231   H264    1.081   .     S
C232   C249    1.388   .     A
C232   H262    1.079   .     S
C233   C248    1.394   .     A
C233   H253    1.083   .     S
C233   C249    1.399   .     A
C234   C236    1.459   .     S
C234   C250    1.402   .     A
C235   H265    1.085   .     S
C235   C241    1.394   .     A
C235   C405    1.374   .     S
C236   O271    1.294   .     A
C236   O270    1.291   .     A
C237   C238    1.407   .     A
C237   Cl278   1.766   .     S
C238   C239    1.397   .     A
C238   C246    1.416   .     S
C239   H254    1.084   .     S
C240   H255    1.084   .     S
C240   C241    1.392   .     A
C240   C407    1.370   .     S
C242   N267    1.366   .     A
C242   H256    1.082   .     S
C242   C299    1.417   .     S
C243   N266    1.367   .     A
C243   H257    1.082   .     S
C244   N266    1.366   .     A
C244   H258    1.082   .     S
C245   H259    1.080   .     S
C245   N267    1.367   .     A
C245   C300    1.416   .     S
C246   O272    1.284   .     A
C246   O273    1.281   .     A
C247   C249    1.450   .     S
C247   O274    1.292   .     A
C247   O275    1.291   .     A
C248   C733    1.405   1_554 S
C248   H765    1.084   1_554 S
C250   H279    1.083   .     S
C250   C251    1.388   .     A
C251   C756    1.392   .     S
C251   H784    1.083   .     S
C252   H263    1.079   .     S
C252   C755    1.392   1_554 S
C252   C730    1.419   1_554 S
H261   C752    1.084   .     S
N266   Zn276   2.010   .     S
N267   Zn277   2.010   .     S
O268   Zn276   1.993   .     S
O269   Zn277   1.991   .     S
O270   Zn276   1.963   .     S
O271   Zn277   1.912   .     S
O272   Zn276   1.991   .     S
O273   Zn277   1.993   .     S
O274   Zn276   1.912   .     S
O275   Zn277   1.963   .     S
H280   C755    1.083   1_554 S
C281   O324    1.281   .     A
C281   O325    1.281   .     A
C281   C297    1.410   .     S
C282   C283    1.407   .     A
C282   C788    1.414   .     S
C282   C812    1.419   .     S
C283   C290    1.410   .     A
C283   C287    1.413   .     A
C284   C288    1.390   .     A
C284   C786    1.414   1_554 S
C284   C789    1.421   1_554 S
C285   C286    1.392   .     A
C285   C788    1.421   .     S
C285   C808    1.405   .     S
C286   C287    1.388   .     A
C286   H316    1.084   .     S
C287   H320    1.081   .     S
C288   C305    1.388   .     A
C288   H318    1.079   .     S
C289   C304    1.394   .     A
C289   H309    1.083   .     S
C289   C305    1.399   .     A
C290   C292    1.459   .     S
C290   C306    1.402   .     A
C291   H321    1.085   .     S
C291   C297    1.394   .     A
C291   C461    1.374   .     S
C292   O327    1.294   .     A
C292   O326    1.291   .     A
C293   C294    1.407   .     A
C293   Cl334   1.766   .     S
C294   C295    1.397   .     A
C294   C302    1.416   .     S
C295   H310    1.084   .     S
C296   H311    1.084   .     S
C296   C297    1.392   .     A
C296   C463    1.370   .     S
C298   N323    1.366   .     A
C298   H312    1.082   .     S
C298   C187    1.417   1_655 S
C299   N322    1.367   .     A
C299   H313    1.082   .     S
C300   N322    1.366   .     A
C300   H314    1.082   .     S
C301   H315    1.080   .     S
C301   N323    1.367   .     A
C301   C188    1.416   1_655 S
C302   O328    1.284   .     A
C302   O329    1.281   .     A
C303   C305    1.450   .     S
C303   O330    1.292   .     A
C303   O331    1.291   .     A
C304   C789    1.405   1_554 S
C304   H821    1.084   1_554 S
C306   H335    1.083   .     S
C306   C307    1.388   .     A
C307   C812    1.392   .     S
C307   H840    1.083   .     S
C308   H319    1.079   .     S
C308   C811    1.392   1_554 S
C308   C786    1.419   1_554 S
H317   C808    1.084   .     S
N322   Zn332   2.010   .     S
N323   Zn333   2.010   .     S
O324   Zn332   1.993   .     S
O325   Zn333   1.991   .     S
O326   Zn332   1.963   .     S
O327   Zn333   1.912   .     S
O328   Zn332   1.991   .     S
O329   Zn333   1.993   .     S
O330   Zn332   1.912   .     S
O331   Zn333   1.963   .     S
H336   C811    1.083   1_554 S
C337   O380    1.281   .     A
C337   O381    1.281   .     A
C337   C353    1.410   .     S
C338   C339    1.407   .     A
C338   C844    1.414   .     S
C338   C868    1.419   .     S
C339   C346    1.410   .     A
C339   C343    1.413   .     A
C340   C344    1.390   .     A
C340   C842    1.414   1_554 S
C340   C845    1.421   1_554 S
C341   C342    1.392   .     A
C341   C844    1.421   .     S
C341   C864    1.405   .     S
C342   C343    1.388   .     A
C342   H372    1.084   .     S
C343   H376    1.081   .     S
C344   C361    1.388   .     A
C344   H374    1.079   .     S
C345   C360    1.394   .     A
C345   H365    1.083   .     S
C345   C361    1.399   .     A
C346   C348    1.459   .     S
C346   C362    1.402   .     A
C347   H377    1.085   .     S
C347   C353    1.394   .     A
C347   C13     1.374   1_565 S
C348   O383    1.294   .     A
C348   O382    1.291   .     A
C349   C350    1.407   .     A
C349   Cl390   1.766   .     S
C350   C351    1.397   .     A
C350   C358    1.416   .     S
C351   H366    1.084   .     S
C352   H367    1.084   .     S
C352   C353    1.392   .     A
C352   C15     1.370   1_565 S
C354   N379    1.366   .     A
C354   H368    1.082   .     S
C354   C411    1.417   .     S
C355   N378    1.367   .     A
C355   H369    1.082   .     S
C355   C466    1.417   1_455 S
C356   N378    1.366   .     A
C356   H370    1.082   .     S
C356   C469    1.416   1_455 S
C357   H371    1.080   .     S
C357   N379    1.367   .     A
C357   C412    1.416   .     S
C358   O384    1.284   .     A
C358   O385    1.281   .     A
C359   C361    1.450   .     S
C359   O386    1.292   .     A
C359   O387    1.291   .     A
C360   C845    1.405   1_554 S
C360   H877    1.084   1_554 S
C362   H391    1.083   .     S
C362   C363    1.388   .     A
C363   C868    1.392   .     S
C363   H896    1.083   .     S
C364   H375    1.079   .     S
C364   C867    1.392   1_554 S
C364   C842    1.419   1_554 S
H373   C864    1.084   .     S
N378   Zn388   2.010   .     S
N379   Zn389   2.010   .     S
O380   Zn388   1.993   .     S
O381   Zn389   1.991   .     S
O382   Zn388   1.963   .     S
O383   Zn389   1.912   .     S
O384   Zn388   1.991   .     S
O385   Zn389   1.993   .     S
O386   Zn388   1.912   .     S
O387   Zn389   1.963   .     S
H392   C867    1.083   1_554 S
C393   O436    1.281   .     A
C393   O437    1.281   .     A
C393   C409    1.410   .     S
C394   C395    1.407   .     A
C394   C900    1.414   .     S
C394   C924    1.419   .     S
C395   C402    1.410   .     A
C395   C399    1.413   .     A
C396   C400    1.390   .     A
C396   C898    1.414   1_554 S
C396   C901    1.421   1_554 S
C397   C398    1.392   .     A
C397   C900    1.421   .     S
C397   C920    1.405   .     S
C398   C399    1.388   .     A
C398   H428    1.084   .     S
C399   H432    1.081   .     S
C400   C417    1.388   .     A
C400   H430    1.079   .     S
C401   C416    1.394   .     A
C401   H421    1.083   .     S
C401   C417    1.399   .     A
C402   C404    1.459   .     S
C402   C418    1.402   .     A
C403   H433    1.085   .     S
C403   C409    1.394   .     A
C403   C69     1.374   1_565 S
C404   O439    1.294   .     A
C404   O438    1.291   .     A
C405   C406    1.407   .     A
C405   Cl446   1.766   .     S
C406   C407    1.397   .     A
C406   C414    1.416   .     S
C407   H422    1.084   .     S
C408   H423    1.084   .     S
C408   C409    1.392   .     A
C408   C71     1.370   1_565 S
C410   N435    1.366   .     A
C410   H424    1.082   .     S
C410   C467    1.417   .     S
C411   N434    1.367   .     A
C411   H425    1.082   .     S
C412   N434    1.366   .     A
C412   H426    1.082   .     S
C413   H427    1.080   .     S
C413   N435    1.367   .     A
C413   C468    1.416   .     S
C414   O440    1.284   .     A
C414   O441    1.281   .     A
C415   C417    1.450   .     S
C415   O442    1.292   .     A
C415   O443    1.291   .     A
C416   C901    1.405   1_554 S
C416   H933    1.084   1_554 S
C418   H447    1.083   .     S
C418   C419    1.388   .     A
C419   C924    1.392   .     S
C419   H952    1.083   .     S
C420   H431    1.079   .     S
C420   C923    1.392   1_554 S
C420   C898    1.419   1_554 S
H429   C920    1.084   .     S
N434   Zn444   2.010   .     S
N435   Zn445   2.010   .     S
O436   Zn444   1.993   .     S
O437   Zn445   1.991   .     S
O438   Zn444   1.963   .     S
O439   Zn445   1.912   .     S
O440   Zn444   1.991   .     S
O441   Zn445   1.993   .     S
O442   Zn444   1.912   .     S
O443   Zn445   1.963   .     S
H448   C923    1.083   1_554 S
C449   O492    1.281   .     A
C449   O493    1.281   .     A
C449   C465    1.410   .     S
C450   C451    1.407   .     A
C450   C956    1.414   .     S
C450   C980    1.419   .     S
C451   C458    1.410   .     A
C451   C455    1.413   .     A
C452   C456    1.390   .     A
C452   C954    1.414   1_554 S
C452   C957    1.421   1_554 S
C453   C454    1.392   .     A
C453   C956    1.421   .     S
C453   C976    1.405   .     S
C454   C455    1.388   .     A
C454   H484    1.084   .     S
C455   H488    1.081   .     S
C456   C473    1.388   .     A
C456   H486    1.079   .     S
C457   C472    1.394   .     A
C457   H477    1.083   .     S
C457   C473    1.399   .     A
C458   C460    1.459   .     S
C458   C474    1.402   .     A
C459   H489    1.085   .     S
C459   C465    1.394   .     A
C459   C125    1.374   1_565 S
C460   O495    1.294   .     A
C460   O494    1.291   .     A
C461   C462    1.407   .     A
C461   Cl502   1.766   .     S
C462   C463    1.397   .     A
C462   C470    1.416   .     S
C463   H478    1.084   .     S
C464   H479    1.084   .     S
C464   C465    1.392   .     A
C464   C127    1.370   1_565 S
C466   N491    1.366   .     A
C466   H480    1.082   .     S
C466   C355    1.417   1_655 S
C467   N490    1.367   .     A
C467   H481    1.082   .     S
C468   N490    1.366   .     A
C468   H482    1.082   .     S
C469   H483    1.080   .     S
C469   N491    1.367   .     A
C469   C356    1.416   1_655 S
C470   O496    1.284   .     A
C470   O497    1.281   .     A
C471   C473    1.450   .     S
C471   O498    1.292   .     A
C471   O499    1.291   .     A
C472   C957    1.405   1_554 S
C472   H989    1.084   1_554 S
C474   H503    1.083   .     S
C474   C475    1.388   .     A
C475   C980    1.392   .     S
C475   H1008   1.083   .     S
C476   H487    1.079   .     S
C476   C979    1.392   1_554 S
C476   C954    1.419   1_554 S
H485   C976    1.084   .     S
N490   Zn500   2.010   .     S
N491   Zn501   2.010   .     S
O492   Zn500   1.993   .     S
O493   Zn501   1.991   .     S
O494   Zn500   1.963   .     S
O495   Zn501   1.912   .     S
O496   Zn500   1.991   .     S
O497   Zn501   1.993   .     S
O498   Zn500   1.912   .     S
O499   Zn501   1.963   .     S
H504   C979    1.083   1_554 S
C505   O548    1.281   .     A
C505   O549    1.281   .     A
C505   C521    1.410   .     S
C506   C507    1.407   .     A
C506   C4      1.414   1_556 S
C506   C28     1.419   1_556 S
C507   C514    1.410   .     A
C507   C511    1.413   .     A
C508   C512    1.390   .     A
C509   C510    1.392   .     A
C509   C4      1.421   1_556 S
C509   C24     1.405   1_556 S
C510   C511    1.388   .     A
C510   H540    1.084   .     S
C511   H544    1.081   .     S
C512   C529    1.388   .     A
C512   H542    1.079   .     S
C513   C528    1.394   .     A
C513   H533    1.083   .     S
C513   C529    1.399   .     A
C514   C516    1.459   .     S
C514   C530    1.402   .     A
C515   H545    1.085   .     S
C515   C521    1.394   .     A
C515   C685    1.374   .     S
C516   O551    1.294   .     A
C516   O550    1.291   .     A
C517   C518    1.407   .     A
C517   Cl558   1.766   .     S
C517   C851    1.374   1_545 S
C518   C519    1.397   .     A
C518   C526    1.416   .     S
C519   H534    1.084   .     S
C519   C856    1.370   1_545 S
C520   H535    1.084   .     S
C520   C521    1.392   .     A
C520   C687    1.370   .     S
C522   N547    1.366   .     A
C522   H536    1.082   .     S
C522   C579    1.417   .     S
C523   N546    1.367   .     A
C523   H537    1.082   .     S
C523   C634    1.417   1_455 S
C524   N546    1.366   .     A
C524   H538    1.082   .     S
C524   C637    1.416   1_455 S
C525   H539    1.080   .     S
C525   N547    1.367   .     A
C525   C580    1.416   .     S
C526   O552    1.284   .     A
C526   O553    1.281   .     A
C527   C529    1.450   .     S
C527   O554    1.292   .     A
C527   O555    1.291   .     A
C530   H559    1.083   .     S
C530   C531    1.388   .     A
C531   C28     1.392   1_556 S
C531   H56     1.083   1_556 S
C532   H543    1.079   .     S
H541   C24     1.084   1_556 S
N546   Zn556   2.010   .     S
N547   Zn557   2.010   .     S
O548   Zn556   1.993   .     S
O549   Zn557   1.991   .     S
O550   Zn556   1.963   .     S
O551   Zn557   1.912   .     S
O552   Zn556   1.991   .     S
O553   Zn557   1.993   .     S
O554   Zn556   1.912   .     S
O555   Zn557   1.963   .     S
C561   O604    1.281   .     A
C561   O605    1.281   .     A
C561   C577    1.410   .     S
C562   C563    1.407   .     A
C562   C60     1.414   1_556 S
C562   C84     1.419   1_556 S
C563   C570    1.410   .     A
C563   C567    1.413   .     A
C564   C568    1.390   .     A
C565   C566    1.392   .     A
C565   C60     1.421   1_556 S
C565   C80     1.405   1_556 S
C566   C567    1.388   .     A
C566   H596    1.084   .     S
C567   H600    1.081   .     S
C568   C585    1.388   .     A
C568   H598    1.079   .     S
C569   C584    1.394   .     A
C569   H589    1.083   .     S
C569   C585    1.399   .     A
C570   C572    1.459   .     S
C570   C586    1.402   .     A
C571   H601    1.085   .     S
C571   C577    1.394   .     A
C571   C741    1.374   .     S
C572   O607    1.294   .     A
C572   O606    1.291   .     A
C573   C574    1.407   .     A
C573   Cl614   1.766   .     S
C573   C907    1.374   1_545 S
C574   C575    1.397   .     A
C574   C582    1.416   .     S
C575   H590    1.084   .     S
C575   C912    1.370   1_545 S
C576   H591    1.084   .     S
C576   C577    1.392   .     A
C576   C743    1.370   .     S
C578   N603    1.366   .     A
C578   H592    1.082   .     S
C578   C635    1.417   .     S
C579   N602    1.367   .     A
C579   H593    1.082   .     S
C580   N602    1.366   .     A
C580   H594    1.082   .     S
C581   H595    1.080   .     S
C581   N603    1.367   .     A
C581   C636    1.416   .     S
C582   O608    1.284   .     A
C582   O609    1.281   .     A
C583   C585    1.450   .     S
C583   O610    1.292   .     A
C583   O611    1.291   .     A
C586   H615    1.083   .     S
C586   C587    1.388   .     A
C587   C84     1.392   1_556 S
C587   H112    1.083   1_556 S
C588   H599    1.079   .     S
H597   C80     1.084   1_556 S
N602   Zn612   2.010   .     S
N603   Zn613   2.010   .     S
O604   Zn612   1.993   .     S
O605   Zn613   1.991   .     S
O606   Zn612   1.963   .     S
O607   Zn613   1.912   .     S
O608   Zn612   1.991   .     S
O609   Zn613   1.993   .     S
O610   Zn612   1.912   .     S
O611   Zn613   1.963   .     S
C617   O660    1.281   .     A
C617   O661    1.281   .     A
C617   C633    1.410   .     S
C618   C619    1.407   .     A
C618   C116    1.414   1_556 S
C618   C140    1.419   1_556 S
C619   C626    1.410   .     A
C619   C623    1.413   .     A
C620   C624    1.390   .     A
C621   C622    1.392   .     A
C621   C116    1.421   1_556 S
C621   C136    1.405   1_556 S
C622   C623    1.388   .     A
C622   H652    1.084   .     S
C623   H656    1.081   .     S
C624   C641    1.388   .     A
C624   H654    1.079   .     S
C625   C640    1.394   .     A
C625   H645    1.083   .     S
C625   C641    1.399   .     A
C626   C628    1.459   .     S
C626   C642    1.402   .     A
C627   H657    1.085   .     S
C627   C633    1.394   .     A
C627   C797    1.374   .     S
C628   O663    1.294   .     A
C628   O662    1.291   .     A
C629   C630    1.407   .     A
C629   Cl670   1.766   .     S
C629   C963    1.374   1_545 S
C630   C631    1.397   .     A
C630   C638    1.416   .     S
C631   H646    1.084   .     S
C631   C968    1.370   1_545 S
C632   H647    1.084   .     S
C632   C633    1.392   .     A
C632   C799    1.370   .     S
C634   N659    1.366   .     A
C634   H648    1.082   .     S
C634   C523    1.417   1_655 S
C635   N658    1.367   .     A
C635   H649    1.082   .     S
C636   N658    1.366   .     A
C636   H650    1.082   .     S
C637   H651    1.080   .     S
C637   N659    1.367   .     A
C637   C524    1.416   1_655 S
C638   O664    1.284   .     A
C638   O665    1.281   .     A
C639   C641    1.450   .     S
C639   O666    1.292   .     A
C639   O667    1.291   .     A
C642   H671    1.083   .     S
C642   C643    1.388   .     A
C643   C140    1.392   1_556 S
C643   H168    1.083   1_556 S
C644   H655    1.079   .     S
H653   C136    1.084   1_556 S
N658   Zn668   2.010   .     S
N659   Zn669   2.010   .     S
O660   Zn668   1.993   .     S
O661   Zn669   1.991   .     S
O662   Zn668   1.963   .     S
O663   Zn669   1.912   .     S
O664   Zn668   1.991   .     S
O665   Zn669   1.993   .     S
O666   Zn668   1.912   .     S
O667   Zn669   1.963   .     S
C673   O716    1.281   .     A
C673   O717    1.281   .     A
C673   C689    1.410   .     S
C674   C675    1.407   .     A
C674   C172    1.414   1_556 S
C674   C196    1.419   1_556 S
C675   C682    1.410   .     A
C675   C679    1.413   .     A
C676   C680    1.390   .     A
C677   C678    1.392   .     A
C677   C172    1.421   1_556 S
C677   C192    1.405   1_556 S
C678   C679    1.388   .     A
C678   H708    1.084   .     S
C679   H712    1.081   .     S
C680   C697    1.388   .     A
C680   H710    1.079   .     S
C681   C696    1.394   .     A
C681   H701    1.083   .     S
C681   C697    1.399   .     A
C682   C684    1.459   .     S
C682   C698    1.402   .     A
C683   H713    1.085   .     S
C683   C689    1.394   .     A
C683   C853    1.374   .     S
C684   O719    1.294   .     A
C684   O718    1.291   .     A
C685   C686    1.407   .     A
C685   Cl726   1.766   .     S
C686   C687    1.397   .     A
C686   C694    1.416   .     S
C687   H702    1.084   .     S
C688   H703    1.084   .     S
C688   C689    1.392   .     A
C688   C855    1.370   .     S
C690   N715    1.366   .     A
C690   H704    1.082   .     S
C690   C747    1.417   .     S
C691   N714    1.367   .     A
C691   H705    1.082   .     S
C691   C802    1.417   1_455 S
C692   N714    1.366   .     A
C692   H706    1.082   .     S
C692   C805    1.416   1_455 S
C693   H707    1.080   .     S
C693   N715    1.367   .     A
C693   C748    1.416   .     S
C694   O720    1.284   .     A
C694   O721    1.281   .     A
C695   C697    1.450   .     S
C695   O722    1.292   .     A
C695   O723    1.291   .     A
C698   H727    1.083   .     S
C698   C699    1.388   .     A
C699   C196    1.392   1_556 S
C699   H224    1.083   1_556 S
C700   H711    1.079   .     S
H709   C192    1.084   1_556 S
N714   Zn724   2.010   .     S
N715   Zn725   2.010   .     S
O716   Zn724   1.993   .     S
O717   Zn725   1.991   .     S
O718   Zn724   1.963   .     S
O719   Zn725   1.912   .     S
O720   Zn724   1.991   .     S
O721   Zn725   1.993   .     S
O722   Zn724   1.912   .     S
O723   Zn725   1.963   .     S
C729   O772    1.281   .     A
C729   O773    1.281   .     A
C729   C745    1.410   .     S
C730   C731    1.407   .     A
C730   C228    1.414   1_556 S
C730   C252    1.419   1_556 S
C731   C738    1.410   .     A
C731   C735    1.413   .     A
C732   C736    1.390   .     A
C733   C734    1.392   .     A
C733   C228    1.421   1_556 S
C733   C248    1.405   1_556 S
C734   C735    1.388   .     A
C734   H764    1.084   .     S
C735   H768    1.081   .     S
C736   C753    1.388   .     A
C736   H766    1.079   .     S
C737   C752    1.394   .     A
C737   H757    1.083   .     S
C737   C753    1.399   .     A
C738   C740    1.459   .     S
C738   C754    1.402   .     A
C739   H769    1.085   .     S
C739   C745    1.394   .     A
C739   C909    1.374   .     S
C740   O775    1.294   .     A
C740   O774    1.291   .     A
C741   C742    1.407   .     A
C741   Cl782   1.766   .     S
C742   C743    1.397   .     A
C742   C750    1.416   .     S
C743   H758    1.084   .     S
C744   H759    1.084   .     S
C744   C745    1.392   .     A
C744   C911    1.370   .     S
C746   N771    1.366   .     A
C746   H760    1.082   .     S
C746   C803    1.417   .     S
C747   N770    1.367   .     A
C747   H761    1.082   .     S
C748   N770    1.366   .     A
C748   H762    1.082   .     S
C749   H763    1.080   .     S
C749   N771    1.367   .     A
C749   C804    1.416   .     S
C750   O776    1.284   .     A
C750   O777    1.281   .     A
C751   C753    1.450   .     S
C751   O778    1.292   .     A
C751   O779    1.291   .     A
C754   H783    1.083   .     S
C754   C755    1.388   .     A
C755   C252    1.392   1_556 S
C755   H280    1.083   1_556 S
C756   H767    1.079   .     S
H765   C248    1.084   1_556 S
N770   Zn780   2.010   .     S
N771   Zn781   2.010   .     S
O772   Zn780   1.993   .     S
O773   Zn781   1.991   .     S
O774   Zn780   1.963   .     S
O775   Zn781   1.912   .     S
O776   Zn780   1.991   .     S
O777   Zn781   1.993   .     S
O778   Zn780   1.912   .     S
O779   Zn781   1.963   .     S
C785   O828    1.281   .     A
C785   O829    1.281   .     A
C785   C801    1.410   .     S
C786   C787    1.407   .     A
C786   C284    1.414   1_556 S
C786   C308    1.419   1_556 S
C787   C794    1.410   .     A
C787   C791    1.413   .     A
C788   C792    1.390   .     A
C789   C790    1.392   .     A
C789   C284    1.421   1_556 S
C789   C304    1.405   1_556 S
C790   C791    1.388   .     A
C790   H820    1.084   .     S
C791   H824    1.081   .     S
C792   C809    1.388   .     A
C792   H822    1.079   .     S
C793   C808    1.394   .     A
C793   H813    1.083   .     S
C793   C809    1.399   .     A
C794   C796    1.459   .     S
C794   C810    1.402   .     A
C795   H825    1.085   .     S
C795   C801    1.394   .     A
C795   C965    1.374   .     S
C796   O831    1.294   .     A
C796   O830    1.291   .     A
C797   C798    1.407   .     A
C797   Cl838   1.766   .     S
C798   C799    1.397   .     A
C798   C806    1.416   .     S
C799   H814    1.084   .     S
C800   H815    1.084   .     S
C800   C801    1.392   .     A
C800   C967    1.370   .     S
C802   N827    1.366   .     A
C802   H816    1.082   .     S
C802   C691    1.417   1_655 S
C803   N826    1.367   .     A
C803   H817    1.082   .     S
C804   N826    1.366   .     A
C804   H818    1.082   .     S
C805   H819    1.080   .     S
C805   N827    1.367   .     A
C805   C692    1.416   1_655 S
C806   O832    1.284   .     A
C806   O833    1.281   .     A
C807   C809    1.450   .     S
C807   O834    1.292   .     A
C807   O835    1.291   .     A
C810   H839    1.083   .     S
C810   C811    1.388   .     A
C811   C308    1.392   1_556 S
C811   H336    1.083   1_556 S
C812   H823    1.079   .     S
H821   C304    1.084   1_556 S
N826   Zn836   2.010   .     S
N827   Zn837   2.010   .     S
O828   Zn836   1.993   .     S
O829   Zn837   1.991   .     S
O830   Zn836   1.963   .     S
O831   Zn837   1.912   .     S
O832   Zn836   1.991   .     S
O833   Zn837   1.993   .     S
O834   Zn836   1.912   .     S
O835   Zn837   1.963   .     S
C841   O884    1.281   .     A
C841   O885    1.281   .     A
C841   C857    1.410   .     S
C842   C843    1.407   .     A
C842   C340    1.414   1_556 S
C842   C364    1.419   1_556 S
C843   C850    1.410   .     A
C843   C847    1.413   .     A
C844   C848    1.390   .     A
C845   C846    1.392   .     A
C845   C340    1.421   1_556 S
C845   C360    1.405   1_556 S
C846   C847    1.388   .     A
C846   H876    1.084   .     S
C847   H880    1.081   .     S
C848   C865    1.388   .     A
C848   H878    1.079   .     S
C849   C864    1.394   .     A
C849   H869    1.083   .     S
C849   C865    1.399   .     A
C850   C852    1.459   .     S
C850   C866    1.402   .     A
C851   H881    1.085   .     S
C851   C857    1.394   .     A
C851   C517    1.374   1_565 S
C852   O887    1.294   .     A
C852   O886    1.291   .     A
C853   C854    1.407   .     A
C853   Cl894   1.766   .     S
C854   C855    1.397   .     A
C854   C862    1.416   .     S
C855   H870    1.084   .     S
C856   H871    1.084   .     S
C856   C857    1.392   .     A
C856   C519    1.370   1_565 S
C858   N883    1.366   .     A
C858   H872    1.082   .     S
C858   C915    1.417   .     S
C859   N882    1.367   .     A
C859   H873    1.082   .     S
C859   C970    1.417   1_455 S
C860   N882    1.366   .     A
C860   H874    1.082   .     S
C860   C973    1.416   1_455 S
C861   H875    1.080   .     S
C861   N883    1.367   .     A
C861   C916    1.416   .     S
C862   O888    1.284   .     A
C862   O889    1.281   .     A
C863   C865    1.450   .     S
C863   O890    1.292   .     A
C863   O891    1.291   .     A
C866   H895    1.083   .     S
C866   C867    1.388   .     A
C867   C364    1.392   1_556 S
C867   H392    1.083   1_556 S
C868   H879    1.079   .     S
H877   C360    1.084   1_556 S
N882   Zn892   2.010   .     S
N883   Zn893   2.010   .     S
O884   Zn892   1.993   .     S
O885   Zn893   1.991   .     S
O886   Zn892   1.963   .     S
O887   Zn893   1.912   .     S
O888   Zn892   1.991   .     S
O889   Zn893   1.993   .     S
O890   Zn892   1.912   .     S
O891   Zn893   1.963   .     S
C897   O940    1.281   .     A
C897   O941    1.281   .     A
C897   C913    1.410   .     S
C898   C899    1.407   .     A
C898   C396    1.414   1_556 S
C898   C420    1.419   1_556 S
C899   C906    1.410   .     A
C899   C903    1.413   .     A
C900   C904    1.390   .     A
C901   C902    1.392   .     A
C901   C396    1.421   1_556 S
C901   C416    1.405   1_556 S
C902   C903    1.388   .     A
C902   H932    1.084   .     S
C903   H936    1.081   .     S
C904   C921    1.388   .     A
C904   H934    1.079   .     S
C905   C920    1.394   .     A
C905   H925    1.083   .     S
C905   C921    1.399   .     A
C906   C908    1.459   .     S
C906   C922    1.402   .     A
C907   H937    1.085   .     S
C907   C913    1.394   .     A
C907   C573    1.374   1_565 S
C908   O943    1.294   .     A
C908   O942    1.291   .     A
C909   C910    1.407   .     A
C909   Cl950   1.766   .     S
C910   C911    1.397   .     A
C910   C918    1.416   .     S
C911   H926    1.084   .     S
C912   H927    1.084   .     S
C912   C913    1.392   .     A
C912   C575    1.370   1_565 S
C914   N939    1.366   .     A
C914   H928    1.082   .     S
C914   C971    1.417   .     S
C915   N938    1.367   .     A
C915   H929    1.082   .     S
C916   N938    1.366   .     A
C916   H930    1.082   .     S
C917   H931    1.080   .     S
C917   N939    1.367   .     A
C917   C972    1.416   .     S
C918   O944    1.284   .     A
C918   O945    1.281   .     A
C919   C921    1.450   .     S
C919   O946    1.292   .     A
C919   O947    1.291   .     A
C922   H951    1.083   .     S
C922   C923    1.388   .     A
C923   C420    1.392   1_556 S
C923   H448    1.083   1_556 S
C924   H935    1.079   .     S
H933   C416    1.084   1_556 S
N938   Zn948   2.010   .     S
N939   Zn949   2.010   .     S
O940   Zn948   1.993   .     S
O941   Zn949   1.991   .     S
O942   Zn948   1.963   .     S
O943   Zn949   1.912   .     S
O944   Zn948   1.991   .     S
O945   Zn949   1.993   .     S
O946   Zn948   1.912   .     S
O947   Zn949   1.963   .     S
C953   O996    1.281   .     A
C953   O997    1.281   .     A
C953   C969    1.410   .     S
C954   C955    1.407   .     A
C954   C452    1.414   1_556 S
C954   C476    1.419   1_556 S
C955   C962    1.410   .     A
C955   C959    1.413   .     A
C956   C960    1.390   .     A
C957   C958    1.392   .     A
C957   C452    1.421   1_556 S
C957   C472    1.405   1_556 S
C958   C959    1.388   .     A
C958   H988    1.084   .     S
C959   H992    1.081   .     S
C960   C977    1.388   .     A
C960   H990    1.079   .     S
C961   C976    1.394   .     A
C961   H981    1.083   .     S
C961   C977    1.399   .     A
C962   C964    1.459   .     S
C962   C978    1.402   .     A
C963   H993    1.085   .     S
C963   C969    1.394   .     A
C963   C629    1.374   1_565 S
C964   O999    1.294   .     A
C964   O998    1.291   .     A
C965   C966    1.407   .     A
C965   Cl1006  1.766   .     S
C966   C967    1.397   .     A
C966   C974    1.416   .     S
C967   H982    1.084   .     S
C968   H983    1.084   .     S
C968   C969    1.392   .     A
C968   C631    1.370   1_565 S
C970   N995    1.366   .     A
C970   H984    1.082   .     S
C970   C859    1.417   1_655 S
C971   N994    1.367   .     A
C971   H985    1.082   .     S
C972   N994    1.366   .     A
C972   H986    1.082   .     S
C973   H987    1.080   .     S
C973   N995    1.367   .     A
C973   C860    1.416   1_655 S
C974   O1000   1.284   .     A
C974   O1001   1.281   .     A
C975   C977    1.450   .     S
C975   O1002   1.292   .     A
C975   O1003   1.291   .     A
C978   H1007   1.083   .     S
C978   C979    1.388   .     A
C979   C476    1.392   1_556 S
C979   H504    1.083   1_556 S
C980   H991    1.079   .     S
H989   C472    1.084   1_556 S
N994   Zn1004  2.010   .     S
N995   Zn1005  2.010   .     S
O996   Zn1004  1.993   .     S
O997   Zn1005  1.991   .     S
O998   Zn1004  1.963   .     S
O999   Zn1005  1.912   .     S
O1000  Zn1004  1.991   .     S
O1001  Zn1005  1.993   .     S
O1002  Zn1004  1.912   .     S
O1003  Zn1005  1.963   .     S
