data_str_m3_o10_o16_pcu_sym.156
_audit_creation_date              2020-01-03
_audit_creation_method            'Materials Studio'
_symmetry_space_group_name_H-M    'P1'
_symmetry_Int_Tables_number       1
_symmetry_cell_setting            triclinic
loop_
_symmetry_equiv_pos_as_xyz
  x,y,z
_cell_length_a                    23.6080
_cell_length_b                    25.7023
_cell_length_c                    25.1005
_cell_angle_alpha                 92.9756
_cell_angle_beta                  103.6727
_cell_angle_gamma                 93.7275
loop_
_atom_site_label
_atom_site_type_symbol
_atom_site_fract_x
_atom_site_fract_y
_atom_site_fract_z
_atom_site_U_iso_or_equiv
_atom_site_adp_type
_atom_site_occupancy
C1     C     0.01462   0.26474   0.24854   0.00000  Uiso   1.00
C2     C     0.14485   0.18987   0.49014   0.00000  Uiso   1.00
C3     C     0.12602   0.19356   0.43336   0.00000  Uiso   1.00
C4     C     0.19812   0.16748   0.01033   0.00000  Uiso   1.00
C5     C     0.23642   0.15891   0.47544   0.00000  Uiso   1.00
C6     C     0.22081   0.17153   0.42132   0.00000  Uiso   1.00
C7     C     0.16781   0.19168   0.40160   0.00000  Uiso   1.00
C8     C     0.21367   0.15020   0.06321   0.00000  Uiso   1.00
C9     C     0.31185   0.14055   0.05278   0.00000  Uiso   1.00
C10    C     0.06604   0.19877   0.41059   0.00000  Uiso   1.00
C11    C     0.02221   0.31928   0.24766   0.00000  Uiso   1.00
C12    C     0.03878   0.17874   0.35333   0.00000  Uiso   1.00
C13    C     0.31095   0.01404   0.25187   0.00000  Uiso   1.00
C14    C     0.31865   0.06859   0.25129   0.00000  Uiso   1.00
C15    C     0.29571   0.15907   0.14582   0.00000  Uiso   1.00
C16    C     0.29114   0.14048   0.49630   0.00000  Uiso   1.00
C17    C     0.27365   0.14933   0.08674   0.00000  Uiso   1.00
C18    C     0.03345   0.22160   0.44419   0.00000  Uiso   1.00
C19    C     0.05709   0.22955   0.00083   0.00000  Uiso   1.00
C20    C     0.11105   0.21089   0.02422   0.00000  Uiso   1.00
H21    H     0.02406   0.13479   0.06970   0.00000  Uiso   1.00
H22    H     0.26879   0.33052   0.25584   0.00000  Uiso   1.00
H23    H     0.17693   0.21630   0.27848   0.00000  Uiso   1.00
H24    H     0.24977   0.16667   0.39447   0.00000  Uiso   1.00
H25    H     0.31982   0.13142   0.46981   0.00000  Uiso   1.00
H26    H     0.32321   0.23265   0.42698   0.00000  Uiso   1.00
H27    H     0.12705   0.21506   0.06839   0.00000  Uiso   1.00
H28    H     0.03192   0.24703   0.02691   0.00000  Uiso   1.00
H29    H     0.16085   0.20742   0.36196   0.00000  Uiso   1.00
H30    H     0.06436   0.00279   0.24366   0.00000  Uiso   1.00
N31    N     0.14493   0.15223   0.23542   0.00000  Uiso   1.00
N32    N     0.18840   0.18110   0.26457   0.00000  Uiso   1.00
O33    O     0.29769   0.24629   0.25357   0.00000  Uiso   1.00
O34    O     0.05742   0.23704   0.24423   0.00000  Uiso   1.00
O35    O     0.31490   0.17358   0.33380   0.00000  Uiso   1.00
O36    O     0.07463   0.16433   0.32446   0.00000  Uiso   1.00
O37    O     0.27592   0.09629   0.25577   0.00000  Uiso   1.00
O38    O     0.03565   0.08704   0.24642   0.00000  Uiso   1.00
O39    O     0.25870   0.16901   0.17554   0.00000  Uiso   1.00
O40    O     0.01843   0.15976   0.16620   0.00000  Uiso   1.00
Zn41   Zn    0.27119   0.17284   0.25623   0.00000  Uiso   1.00
Zn42   Zn    0.06214   0.16049   0.24376   0.00000  Uiso   1.00
C43    C     0.15546   0.09961   0.22085   0.00000  Uiso   1.00
H44    H     0.11456   0.07948   0.19495   0.00000  Uiso   1.00
H45    H     0.18739   0.09949   0.19575   0.00000  Uiso   1.00
H46    H     0.16923   0.07798   0.25835   0.00000  Uiso   1.00
C47    C     0.17056   0.11577   0.08530   0.00000  Uiso   1.00
C48    C     0.12855   0.07877   0.04085   0.00000  Uiso   1.00
C49    C     0.09624   0.03712   0.06635   0.00000  Uiso   1.00
H50    H     0.12759   0.01136   0.08994   0.00000  Uiso   1.00
H51    H     0.07193   0.05557   0.09415   0.00000  Uiso   1.00
H52    H     0.06451   0.01282   0.03327   0.00000  Uiso   1.00
H53    H     0.09545   0.10099   0.01441   0.00000  Uiso   1.00
H54    H     0.15357   0.05889   0.01448   0.00000  Uiso   1.00
H55    H     0.19644   0.08972   0.11375   0.00000  Uiso   1.00
H56    H     0.14568   0.13967   0.10840   0.00000  Uiso   1.00
C57    C     0.34796   0.26474   0.24854   0.00000  Uiso   1.00
C58    C     0.47819   0.18987   0.49014   0.00000  Uiso   1.00
C59    C     0.45936   0.19356   0.43336   0.00000  Uiso   1.00
C60    C     0.53145   0.16748   0.01033   0.00000  Uiso   1.00
C61    C     0.56975   0.15891   0.47544   0.00000  Uiso   1.00
C62    C     0.55414   0.17153   0.42132   0.00000  Uiso   1.00
C63    C     0.50114   0.19168   0.40160   0.00000  Uiso   1.00
C64    C     0.54700   0.15020   0.06321   0.00000  Uiso   1.00
C65    C     0.64518   0.14055   0.05278   0.00000  Uiso   1.00
C66    C     0.39937   0.19877   0.41059   0.00000  Uiso   1.00
C67    C     0.35555   0.31928   0.24766   0.00000  Uiso   1.00
C68    C     0.37211   0.17874   0.35333   0.00000  Uiso   1.00
C69    C     0.64428   0.01404   0.25187   0.00000  Uiso   1.00
C70    C     0.65198   0.06859   0.25129   0.00000  Uiso   1.00
C71    C     0.62904   0.15907   0.14582   0.00000  Uiso   1.00
C72    C     0.62448   0.14048   0.49630   0.00000  Uiso   1.00
C73    C     0.60698   0.14933   0.08674   0.00000  Uiso   1.00
C74    C     0.36678   0.22160   0.44419   0.00000  Uiso   1.00
C75    C     0.39042   0.22955   0.00083   0.00000  Uiso   1.00
C76    C     0.44439   0.21089   0.02422   0.00000  Uiso   1.00
H77    H     0.35739   0.13479   0.06970   0.00000  Uiso   1.00
H78    H     0.60212   0.33052   0.25584   0.00000  Uiso   1.00
H79    H     0.51027   0.21630   0.27848   0.00000  Uiso   1.00
H80    H     0.58310   0.16667   0.39447   0.00000  Uiso   1.00
H81    H     0.65316   0.13142   0.46981   0.00000  Uiso   1.00
H82    H     0.65654   0.23265   0.42698   0.00000  Uiso   1.00
H83    H     0.46038   0.21506   0.06839   0.00000  Uiso   1.00
H84    H     0.36525   0.24703   0.02691   0.00000  Uiso   1.00
H85    H     0.49418   0.20742   0.36196   0.00000  Uiso   1.00
H86    H     0.39769   0.00279   0.24366   0.00000  Uiso   1.00
N87    N     0.47827   0.15223   0.23542   0.00000  Uiso   1.00
N88    N     0.52173   0.18110   0.26457   0.00000  Uiso   1.00
O89    O     0.63102   0.24629   0.25357   0.00000  Uiso   1.00
O90    O     0.39075   0.23704   0.24423   0.00000  Uiso   1.00
O91    O     0.64823   0.17358   0.33380   0.00000  Uiso   1.00
O92    O     0.40796   0.16433   0.32446   0.00000  Uiso   1.00
O93    O     0.60925   0.09629   0.25577   0.00000  Uiso   1.00
O94    O     0.36898   0.08704   0.24642   0.00000  Uiso   1.00
O95    O     0.59204   0.16901   0.17554   0.00000  Uiso   1.00
O96    O     0.35177   0.15976   0.16620   0.00000  Uiso   1.00
Zn97   Zn    0.60453   0.17284   0.25623   0.00000  Uiso   1.00
Zn98   Zn    0.39547   0.16049   0.24376   0.00000  Uiso   1.00
C99    C     0.48880   0.09961   0.22085   0.00000  Uiso   1.00
H100   H     0.44789   0.07948   0.19495   0.00000  Uiso   1.00
H101   H     0.52073   0.09949   0.19575   0.00000  Uiso   1.00
H102   H     0.50257   0.07798   0.25835   0.00000  Uiso   1.00
C103   C     0.50390   0.11577   0.08530   0.00000  Uiso   1.00
C104   C     0.46188   0.07877   0.04085   0.00000  Uiso   1.00
C105   C     0.42958   0.03712   0.06635   0.00000  Uiso   1.00
H106   H     0.46093   0.01136   0.08994   0.00000  Uiso   1.00
H107   H     0.40526   0.05557   0.09415   0.00000  Uiso   1.00
H108   H     0.39785   0.01282   0.03327   0.00000  Uiso   1.00
H109   H     0.42878   0.10099   0.01441   0.00000  Uiso   1.00
H110   H     0.48690   0.05889   0.01448   0.00000  Uiso   1.00
H111   H     0.52977   0.08972   0.11375   0.00000  Uiso   1.00
H112   H     0.47902   0.13967   0.10840   0.00000  Uiso   1.00
C113   C     0.68129   0.26474   0.24854   0.00000  Uiso   1.00
C114   C     0.81152   0.18987   0.49014   0.00000  Uiso   1.00
C115   C     0.79269   0.19356   0.43336   0.00000  Uiso   1.00
C116   C     0.86479   0.16748   0.01033   0.00000  Uiso   1.00
C117   C     0.90309   0.15891   0.47544   0.00000  Uiso   1.00
C118   C     0.88748   0.17153   0.42132   0.00000  Uiso   1.00
C119   C     0.83448   0.19168   0.40160   0.00000  Uiso   1.00
C120   C     0.88034   0.15020   0.06321   0.00000  Uiso   1.00
C121   C     0.97851   0.14055   0.05278   0.00000  Uiso   1.00
C122   C     0.73270   0.19877   0.41059   0.00000  Uiso   1.00
C123   C     0.68888   0.31928   0.24766   0.00000  Uiso   1.00
C124   C     0.70544   0.17874   0.35333   0.00000  Uiso   1.00
C125   C     0.97762   0.01404   0.25187   0.00000  Uiso   1.00
C126   C     0.98532   0.06859   0.25129   0.00000  Uiso   1.00
C127   C     0.96238   0.15907   0.14582   0.00000  Uiso   1.00
C128   C     0.95781   0.14048   0.49630   0.00000  Uiso   1.00
C129   C     0.94031   0.14933   0.08674   0.00000  Uiso   1.00
C130   C     0.70011   0.22160   0.44419   0.00000  Uiso   1.00
C131   C     0.72375   0.22955   0.00083   0.00000  Uiso   1.00
C132   C     0.77772   0.21089   0.02422   0.00000  Uiso   1.00
H133   H     0.69072   0.13479   0.06970   0.00000  Uiso   1.00
H134   H     0.93546   0.33052   0.25584   0.00000  Uiso   1.00
H135   H     0.84360   0.21630   0.27848   0.00000  Uiso   1.00
H136   H     0.91643   0.16667   0.39447   0.00000  Uiso   1.00
H137   H     0.98649   0.13142   0.46981   0.00000  Uiso   1.00
H138   H     0.98987   0.23265   0.42698   0.00000  Uiso   1.00
H139   H     0.79371   0.21506   0.06839   0.00000  Uiso   1.00
H140   H     0.69859   0.24703   0.02691   0.00000  Uiso   1.00
H141   H     0.82752   0.20742   0.36196   0.00000  Uiso   1.00
H142   H     0.73102   0.00279   0.24366   0.00000  Uiso   1.00
N143   N     0.81160   0.15223   0.23542   0.00000  Uiso   1.00
N144   N     0.85507   0.18110   0.26457   0.00000  Uiso   1.00
O145   O     0.96435   0.24629   0.25357   0.00000  Uiso   1.00
O146   O     0.72408   0.23704   0.24423   0.00000  Uiso   1.00
O147   O     0.98157   0.17358   0.33380   0.00000  Uiso   1.00
O148   O     0.74130   0.16433   0.32446   0.00000  Uiso   1.00
O149   O     0.94258   0.09629   0.25577   0.00000  Uiso   1.00
O150   O     0.70231   0.08704   0.24642   0.00000  Uiso   1.00
O151   O     0.92537   0.16901   0.17554   0.00000  Uiso   1.00
O152   O     0.68510   0.15976   0.16620   0.00000  Uiso   1.00
Zn153  Zn    0.93786   0.17284   0.25623   0.00000  Uiso   1.00
Zn154  Zn    0.72881   0.16049   0.24376   0.00000  Uiso   1.00
C155   C     0.82213   0.09961   0.22085   0.00000  Uiso   1.00
H156   H     0.78122   0.07948   0.19495   0.00000  Uiso   1.00
H157   H     0.85406   0.09949   0.19575   0.00000  Uiso   1.00
H158   H     0.83590   0.07798   0.25835   0.00000  Uiso   1.00
C159   C     0.83723   0.11577   0.08530   0.00000  Uiso   1.00
C160   C     0.79521   0.07877   0.04085   0.00000  Uiso   1.00
C161   C     0.76291   0.03712   0.06635   0.00000  Uiso   1.00
H162   H     0.79426   0.01136   0.08994   0.00000  Uiso   1.00
H163   H     0.73860   0.05557   0.09415   0.00000  Uiso   1.00
H164   H     0.73118   0.01282   0.03327   0.00000  Uiso   1.00
H165   H     0.76211   0.10099   0.01441   0.00000  Uiso   1.00
H166   H     0.82023   0.05889   0.01448   0.00000  Uiso   1.00
H167   H     0.86310   0.08972   0.11375   0.00000  Uiso   1.00
H168   H     0.81235   0.13967   0.10840   0.00000  Uiso   1.00
C169   C     0.01462   0.59808   0.24854   0.00000  Uiso   1.00
C170   C     0.14485   0.52320   0.49014   0.00000  Uiso   1.00
C171   C     0.12602   0.52690   0.43336   0.00000  Uiso   1.00
C172   C     0.19812   0.50081   0.01033   0.00000  Uiso   1.00
C173   C     0.23642   0.49224   0.47544   0.00000  Uiso   1.00
C174   C     0.22081   0.50486   0.42132   0.00000  Uiso   1.00
C175   C     0.16781   0.52502   0.40160   0.00000  Uiso   1.00
C176   C     0.21367   0.48354   0.06321   0.00000  Uiso   1.00
C177   C     0.31185   0.47388   0.05278   0.00000  Uiso   1.00
C178   C     0.06604   0.53210   0.41059   0.00000  Uiso   1.00
C179   C     0.02221   0.65261   0.24766   0.00000  Uiso   1.00
C180   C     0.03878   0.51208   0.35333   0.00000  Uiso   1.00
C181   C     0.31095   0.34737   0.25187   0.00000  Uiso   1.00
C182   C     0.31865   0.40192   0.25129   0.00000  Uiso   1.00
C183   C     0.29571   0.49240   0.14582   0.00000  Uiso   1.00
C184   C     0.29114   0.47381   0.49630   0.00000  Uiso   1.00
C185   C     0.27365   0.48266   0.08674   0.00000  Uiso   1.00
C186   C     0.03345   0.55493   0.44419   0.00000  Uiso   1.00
C187   C     0.05709   0.56288   0.00083   0.00000  Uiso   1.00
C188   C     0.11105   0.54422   0.02422   0.00000  Uiso   1.00
H189   H     0.02406   0.46812   0.06970   0.00000  Uiso   1.00
H190   H     0.26879   0.66386   0.25584   0.00000  Uiso   1.00
H191   H     0.17693   0.54963   0.27848   0.00000  Uiso   1.00
H192   H     0.24977   0.50000   0.39447   0.00000  Uiso   1.00
H193   H     0.31982   0.46476   0.46981   0.00000  Uiso   1.00
H194   H     0.32321   0.56599   0.42698   0.00000  Uiso   1.00
H195   H     0.12705   0.54839   0.06839   0.00000  Uiso   1.00
H196   H     0.03192   0.58037   0.02691   0.00000  Uiso   1.00
H197   H     0.16085   0.54075   0.36196   0.00000  Uiso   1.00
H198   H     0.06436   0.33612   0.24366   0.00000  Uiso   1.00
N199   N     0.14493   0.48556   0.23542   0.00000  Uiso   1.00
N200   N     0.18840   0.51444   0.26457   0.00000  Uiso   1.00
O201   O     0.29769   0.57963   0.25357   0.00000  Uiso   1.00
O202   O     0.05742   0.57038   0.24423   0.00000  Uiso   1.00
O203   O     0.31490   0.50691   0.33380   0.00000  Uiso   1.00
O204   O     0.07463   0.49766   0.32446   0.00000  Uiso   1.00
O205   O     0.27592   0.42962   0.25577   0.00000  Uiso   1.00
O206   O     0.03565   0.42037   0.24642   0.00000  Uiso   1.00
O207   O     0.25870   0.50234   0.17554   0.00000  Uiso   1.00
O208   O     0.01843   0.49309   0.16620   0.00000  Uiso   1.00
Zn209  Zn    0.27119   0.50618   0.25623   0.00000  Uiso   1.00
Zn210  Zn    0.06214   0.49382   0.24376   0.00000  Uiso   1.00
C211   C     0.15546   0.43294   0.22085   0.00000  Uiso   1.00
H212   H     0.11456   0.41282   0.19495   0.00000  Uiso   1.00
H213   H     0.18739   0.43283   0.19575   0.00000  Uiso   1.00
H214   H     0.16923   0.41132   0.25835   0.00000  Uiso   1.00
C215   C     0.17056   0.44910   0.08530   0.00000  Uiso   1.00
C216   C     0.12855   0.41210   0.04085   0.00000  Uiso   1.00
C217   C     0.09624   0.37046   0.06635   0.00000  Uiso   1.00
H218   H     0.12759   0.34470   0.08994   0.00000  Uiso   1.00
H219   H     0.07193   0.38890   0.09415   0.00000  Uiso   1.00
H220   H     0.06451   0.34615   0.03327   0.00000  Uiso   1.00
H221   H     0.09545   0.43432   0.01441   0.00000  Uiso   1.00
H222   H     0.15357   0.39222   0.01448   0.00000  Uiso   1.00
H223   H     0.19644   0.42305   0.11375   0.00000  Uiso   1.00
H224   H     0.14568   0.47301   0.10840   0.00000  Uiso   1.00
C225   C     0.34796   0.59808   0.24854   0.00000  Uiso   1.00
C226   C     0.47819   0.52320   0.49014   0.00000  Uiso   1.00
C227   C     0.45936   0.52690   0.43336   0.00000  Uiso   1.00
C228   C     0.53145   0.50081   0.01033   0.00000  Uiso   1.00
C229   C     0.56975   0.49224   0.47544   0.00000  Uiso   1.00
C230   C     0.55414   0.50486   0.42132   0.00000  Uiso   1.00
C231   C     0.50114   0.52502   0.40160   0.00000  Uiso   1.00
C232   C     0.54700   0.48354   0.06321   0.00000  Uiso   1.00
C233   C     0.64518   0.47388   0.05278   0.00000  Uiso   1.00
C234   C     0.39937   0.53210   0.41059   0.00000  Uiso   1.00
C235   C     0.35555   0.65261   0.24766   0.00000  Uiso   1.00
C236   C     0.37211   0.51208   0.35333   0.00000  Uiso   1.00
C237   C     0.64428   0.34737   0.25187   0.00000  Uiso   1.00
C238   C     0.65198   0.40192   0.25129   0.00000  Uiso   1.00
C239   C     0.62904   0.49240   0.14582   0.00000  Uiso   1.00
C240   C     0.62448   0.47381   0.49630   0.00000  Uiso   1.00
C241   C     0.60698   0.48266   0.08674   0.00000  Uiso   1.00
C242   C     0.36678   0.55493   0.44419   0.00000  Uiso   1.00
C243   C     0.39042   0.56288   0.00083   0.00000  Uiso   1.00
C244   C     0.44439   0.54422   0.02422   0.00000  Uiso   1.00
H245   H     0.35739   0.46812   0.06970   0.00000  Uiso   1.00
H246   H     0.60212   0.66386   0.25584   0.00000  Uiso   1.00
H247   H     0.51027   0.54963   0.27848   0.00000  Uiso   1.00
H248   H     0.58310   0.50000   0.39447   0.00000  Uiso   1.00
H249   H     0.65316   0.46476   0.46981   0.00000  Uiso   1.00
H250   H     0.65654   0.56599   0.42698   0.00000  Uiso   1.00
H251   H     0.46038   0.54839   0.06839   0.00000  Uiso   1.00
H252   H     0.36525   0.58037   0.02691   0.00000  Uiso   1.00
H253   H     0.49418   0.54075   0.36196   0.00000  Uiso   1.00
H254   H     0.39769   0.33612   0.24366   0.00000  Uiso   1.00
N255   N     0.47827   0.48556   0.23542   0.00000  Uiso   1.00
N256   N     0.52173   0.51444   0.26457   0.00000  Uiso   1.00
O257   O     0.63102   0.57963   0.25357   0.00000  Uiso   1.00
O258   O     0.39075   0.57038   0.24423   0.00000  Uiso   1.00
O259   O     0.64823   0.50691   0.33380   0.00000  Uiso   1.00
O260   O     0.40796   0.49766   0.32446   0.00000  Uiso   1.00
O261   O     0.60925   0.42962   0.25577   0.00000  Uiso   1.00
O262   O     0.36898   0.42037   0.24642   0.00000  Uiso   1.00
O263   O     0.59204   0.50234   0.17554   0.00000  Uiso   1.00
O264   O     0.35177   0.49309   0.16620   0.00000  Uiso   1.00
Zn265  Zn    0.60453   0.50618   0.25623   0.00000  Uiso   1.00
Zn266  Zn    0.39547   0.49382   0.24376   0.00000  Uiso   1.00
C267   C     0.48880   0.43294   0.22085   0.00000  Uiso   1.00
H268   H     0.44789   0.41282   0.19495   0.00000  Uiso   1.00
H269   H     0.52073   0.43283   0.19575   0.00000  Uiso   1.00
H270   H     0.50257   0.41132   0.25835   0.00000  Uiso   1.00
C271   C     0.50390   0.44910   0.08530   0.00000  Uiso   1.00
C272   C     0.46188   0.41210   0.04085   0.00000  Uiso   1.00
C273   C     0.42958   0.37046   0.06635   0.00000  Uiso   1.00
H274   H     0.46093   0.34470   0.08994   0.00000  Uiso   1.00
H275   H     0.40526   0.38890   0.09415   0.00000  Uiso   1.00
H276   H     0.39785   0.34615   0.03327   0.00000  Uiso   1.00
H277   H     0.42878   0.43432   0.01441   0.00000  Uiso   1.00
H278   H     0.48690   0.39222   0.01448   0.00000  Uiso   1.00
H279   H     0.52977   0.42305   0.11375   0.00000  Uiso   1.00
H280   H     0.47902   0.47301   0.10840   0.00000  Uiso   1.00
C281   C     0.68129   0.59808   0.24854   0.00000  Uiso   1.00
C282   C     0.81152   0.52320   0.49014   0.00000  Uiso   1.00
C283   C     0.79269   0.52690   0.43336   0.00000  Uiso   1.00
C284   C     0.86479   0.50081   0.01033   0.00000  Uiso   1.00
C285   C     0.90309   0.49224   0.47544   0.00000  Uiso   1.00
C286   C     0.88748   0.50486   0.42132   0.00000  Uiso   1.00
C287   C     0.83448   0.52502   0.40160   0.00000  Uiso   1.00
C288   C     0.88034   0.48354   0.06321   0.00000  Uiso   1.00
C289   C     0.97851   0.47388   0.05278   0.00000  Uiso   1.00
C290   C     0.73270   0.53210   0.41059   0.00000  Uiso   1.00
C291   C     0.68888   0.65261   0.24766   0.00000  Uiso   1.00
C292   C     0.70544   0.51208   0.35333   0.00000  Uiso   1.00
C293   C     0.97762   0.34737   0.25187   0.00000  Uiso   1.00
C294   C     0.98532   0.40192   0.25129   0.00000  Uiso   1.00
C295   C     0.96238   0.49240   0.14582   0.00000  Uiso   1.00
C296   C     0.95781   0.47381   0.49630   0.00000  Uiso   1.00
C297   C     0.94031   0.48266   0.08674   0.00000  Uiso   1.00
C298   C     0.70011   0.55493   0.44419   0.00000  Uiso   1.00
C299   C     0.72375   0.56288   0.00083   0.00000  Uiso   1.00
C300   C     0.77772   0.54422   0.02422   0.00000  Uiso   1.00
H301   H     0.69072   0.46812   0.06970   0.00000  Uiso   1.00
H302   H     0.93546   0.66386   0.25584   0.00000  Uiso   1.00
H303   H     0.84360   0.54963   0.27848   0.00000  Uiso   1.00
H304   H     0.91643   0.50000   0.39447   0.00000  Uiso   1.00
H305   H     0.98649   0.46476   0.46981   0.00000  Uiso   1.00
H306   H     0.98987   0.56599   0.42698   0.00000  Uiso   1.00
H307   H     0.79371   0.54839   0.06839   0.00000  Uiso   1.00
H308   H     0.69859   0.58037   0.02691   0.00000  Uiso   1.00
H309   H     0.82752   0.54075   0.36196   0.00000  Uiso   1.00
H310   H     0.73102   0.33612   0.24366   0.00000  Uiso   1.00
N311   N     0.81160   0.48556   0.23542   0.00000  Uiso   1.00
N312   N     0.85507   0.51444   0.26457   0.00000  Uiso   1.00
O313   O     0.96435   0.57963   0.25357   0.00000  Uiso   1.00
O314   O     0.72408   0.57038   0.24423   0.00000  Uiso   1.00
O315   O     0.98157   0.50691   0.33380   0.00000  Uiso   1.00
O316   O     0.74130   0.49766   0.32446   0.00000  Uiso   1.00
O317   O     0.94258   0.42962   0.25577   0.00000  Uiso   1.00
O318   O     0.70231   0.42037   0.24642   0.00000  Uiso   1.00
O319   O     0.92537   0.50234   0.17554   0.00000  Uiso   1.00
O320   O     0.68510   0.49309   0.16620   0.00000  Uiso   1.00
Zn321  Zn    0.93786   0.50618   0.25623   0.00000  Uiso   1.00
Zn322  Zn    0.72881   0.49382   0.24376   0.00000  Uiso   1.00
C323   C     0.82213   0.43294   0.22085   0.00000  Uiso   1.00
H324   H     0.78122   0.41282   0.19495   0.00000  Uiso   1.00
H325   H     0.85406   0.43283   0.19575   0.00000  Uiso   1.00
H326   H     0.83590   0.41132   0.25835   0.00000  Uiso   1.00
C327   C     0.83723   0.44910   0.08530   0.00000  Uiso   1.00
C328   C     0.79521   0.41210   0.04085   0.00000  Uiso   1.00
C329   C     0.76291   0.37046   0.06635   0.00000  Uiso   1.00
H330   H     0.79426   0.34470   0.08994   0.00000  Uiso   1.00
H331   H     0.73860   0.38890   0.09415   0.00000  Uiso   1.00
H332   H     0.73118   0.34615   0.03327   0.00000  Uiso   1.00
H333   H     0.76211   0.43432   0.01441   0.00000  Uiso   1.00
H334   H     0.82023   0.39222   0.01448   0.00000  Uiso   1.00
H335   H     0.86310   0.42305   0.11375   0.00000  Uiso   1.00
H336   H     0.81235   0.47301   0.10840   0.00000  Uiso   1.00
C337   C     0.01462   0.93141   0.24854   0.00000  Uiso   1.00
C338   C     0.14485   0.85653   0.49014   0.00000  Uiso   1.00
C339   C     0.12602   0.86023   0.43336   0.00000  Uiso   1.00
C340   C     0.19812   0.83415   0.01033   0.00000  Uiso   1.00
C341   C     0.23642   0.82558   0.47544   0.00000  Uiso   1.00
C342   C     0.22081   0.83820   0.42132   0.00000  Uiso   1.00
C343   C     0.16781   0.85835   0.40160   0.00000  Uiso   1.00
C344   C     0.21367   0.81687   0.06321   0.00000  Uiso   1.00
C345   C     0.31185   0.80721   0.05278   0.00000  Uiso   1.00
C346   C     0.06604   0.86544   0.41059   0.00000  Uiso   1.00
C347   C     0.02221   0.98595   0.24766   0.00000  Uiso   1.00
C348   C     0.03878   0.84541   0.35333   0.00000  Uiso   1.00
C349   C     0.31095   0.68071   0.25187   0.00000  Uiso   1.00
C350   C     0.31865   0.73526   0.25129   0.00000  Uiso   1.00
C351   C     0.29571   0.82573   0.14582   0.00000  Uiso   1.00
C352   C     0.29114   0.80714   0.49630   0.00000  Uiso   1.00
C353   C     0.27365   0.81600   0.08674   0.00000  Uiso   1.00
C354   C     0.03345   0.88826   0.44419   0.00000  Uiso   1.00
C355   C     0.05709   0.89622   0.00083   0.00000  Uiso   1.00
C356   C     0.11105   0.87755   0.02422   0.00000  Uiso   1.00
H357   H     0.02406   0.80146   0.06970   0.00000  Uiso   1.00
H358   H     0.26879   0.99719   0.25584   0.00000  Uiso   1.00
H359   H     0.17693   0.88296   0.27848   0.00000  Uiso   1.00
H360   H     0.24977   0.83333   0.39447   0.00000  Uiso   1.00
H361   H     0.31982   0.79809   0.46981   0.00000  Uiso   1.00
H362   H     0.32321   0.89932   0.42698   0.00000  Uiso   1.00
H363   H     0.12705   0.88173   0.06839   0.00000  Uiso   1.00
H364   H     0.03192   0.91370   0.02691   0.00000  Uiso   1.00
H365   H     0.16085   0.87408   0.36196   0.00000  Uiso   1.00
H366   H     0.06436   0.66946   0.24366   0.00000  Uiso   1.00
N367   N     0.14493   0.81890   0.23542   0.00000  Uiso   1.00
N368   N     0.18840   0.84777   0.26457   0.00000  Uiso   1.00
O369   O     0.29769   0.91296   0.25357   0.00000  Uiso   1.00
O370   O     0.05742   0.90371   0.24423   0.00000  Uiso   1.00
O371   O     0.31490   0.84024   0.33380   0.00000  Uiso   1.00
O372   O     0.07463   0.83099   0.32446   0.00000  Uiso   1.00
O373   O     0.27592   0.76296   0.25577   0.00000  Uiso   1.00
O374   O     0.03565   0.75371   0.24642   0.00000  Uiso   1.00
O375   O     0.25870   0.83567   0.17554   0.00000  Uiso   1.00
O376   O     0.01843   0.82642   0.16620   0.00000  Uiso   1.00
Zn377  Zn    0.27119   0.83951   0.25623   0.00000  Uiso   1.00
Zn378  Zn    0.06214   0.82716   0.24376   0.00000  Uiso   1.00
C379   C     0.15546   0.76627   0.22085   0.00000  Uiso   1.00
H380   H     0.11456   0.74615   0.19495   0.00000  Uiso   1.00
H381   H     0.18739   0.76616   0.19575   0.00000  Uiso   1.00
H382   H     0.16923   0.74465   0.25835   0.00000  Uiso   1.00
C383   C     0.17056   0.78244   0.08530   0.00000  Uiso   1.00
C384   C     0.12855   0.74543   0.04085   0.00000  Uiso   1.00
C385   C     0.09624   0.70379   0.06635   0.00000  Uiso   1.00
H386   H     0.12759   0.67803   0.08994   0.00000  Uiso   1.00
H387   H     0.07193   0.72224   0.09415   0.00000  Uiso   1.00
H388   H     0.06451   0.67949   0.03327   0.00000  Uiso   1.00
H389   H     0.09545   0.76765   0.01441   0.00000  Uiso   1.00
H390   H     0.15357   0.72556   0.01448   0.00000  Uiso   1.00
H391   H     0.19644   0.75638   0.11375   0.00000  Uiso   1.00
H392   H     0.14568   0.80634   0.10840   0.00000  Uiso   1.00
C393   C     0.34796   0.93141   0.24854   0.00000  Uiso   1.00
C394   C     0.47819   0.85653   0.49014   0.00000  Uiso   1.00
C395   C     0.45936   0.86023   0.43336   0.00000  Uiso   1.00
C396   C     0.53145   0.83415   0.01033   0.00000  Uiso   1.00
C397   C     0.56975   0.82558   0.47544   0.00000  Uiso   1.00
C398   C     0.55414   0.83820   0.42132   0.00000  Uiso   1.00
C399   C     0.50114   0.85835   0.40160   0.00000  Uiso   1.00
C400   C     0.54700   0.81687   0.06321   0.00000  Uiso   1.00
C401   C     0.64518   0.80721   0.05278   0.00000  Uiso   1.00
C402   C     0.39937   0.86544   0.41059   0.00000  Uiso   1.00
C403   C     0.35555   0.98595   0.24766   0.00000  Uiso   1.00
C404   C     0.37211   0.84541   0.35333   0.00000  Uiso   1.00
C405   C     0.64428   0.68071   0.25187   0.00000  Uiso   1.00
C406   C     0.65198   0.73526   0.25129   0.00000  Uiso   1.00
C407   C     0.62904   0.82573   0.14582   0.00000  Uiso   1.00
C408   C     0.62448   0.80714   0.49630   0.00000  Uiso   1.00
C409   C     0.60698   0.81600   0.08674   0.00000  Uiso   1.00
C410   C     0.36678   0.88826   0.44419   0.00000  Uiso   1.00
C411   C     0.39042   0.89622   0.00083   0.00000  Uiso   1.00
C412   C     0.44439   0.87755   0.02422   0.00000  Uiso   1.00
H413   H     0.35739   0.80146   0.06970   0.00000  Uiso   1.00
H414   H     0.60212   0.99719   0.25584   0.00000  Uiso   1.00
H415   H     0.51027   0.88296   0.27848   0.00000  Uiso   1.00
H416   H     0.58310   0.83333   0.39447   0.00000  Uiso   1.00
H417   H     0.65316   0.79809   0.46981   0.00000  Uiso   1.00
H418   H     0.65654   0.89932   0.42698   0.00000  Uiso   1.00
H419   H     0.46038   0.88173   0.06839   0.00000  Uiso   1.00
H420   H     0.36525   0.91370   0.02691   0.00000  Uiso   1.00
H421   H     0.49418   0.87408   0.36196   0.00000  Uiso   1.00
H422   H     0.39769   0.66946   0.24366   0.00000  Uiso   1.00
N423   N     0.47827   0.81890   0.23542   0.00000  Uiso   1.00
N424   N     0.52173   0.84777   0.26457   0.00000  Uiso   1.00
O425   O     0.63102   0.91296   0.25357   0.00000  Uiso   1.00
O426   O     0.39075   0.90371   0.24423   0.00000  Uiso   1.00
O427   O     0.64823   0.84024   0.33380   0.00000  Uiso   1.00
O428   O     0.40796   0.83099   0.32446   0.00000  Uiso   1.00
O429   O     0.60925   0.76296   0.25577   0.00000  Uiso   1.00
O430   O     0.36898   0.75371   0.24642   0.00000  Uiso   1.00
O431   O     0.59204   0.83567   0.17554   0.00000  Uiso   1.00
O432   O     0.35177   0.82642   0.16620   0.00000  Uiso   1.00
Zn433  Zn    0.60453   0.83951   0.25623   0.00000  Uiso   1.00
Zn434  Zn    0.39547   0.82716   0.24376   0.00000  Uiso   1.00
C435   C     0.48880   0.76627   0.22085   0.00000  Uiso   1.00
H436   H     0.44789   0.74615   0.19495   0.00000  Uiso   1.00
H437   H     0.52073   0.76616   0.19575   0.00000  Uiso   1.00
H438   H     0.50257   0.74465   0.25835   0.00000  Uiso   1.00
C439   C     0.50390   0.78244   0.08530   0.00000  Uiso   1.00
C440   C     0.46188   0.74543   0.04085   0.00000  Uiso   1.00
C441   C     0.42958   0.70379   0.06635   0.00000  Uiso   1.00
H442   H     0.46093   0.67803   0.08994   0.00000  Uiso   1.00
H443   H     0.40526   0.72224   0.09415   0.00000  Uiso   1.00
H444   H     0.39785   0.67949   0.03327   0.00000  Uiso   1.00
H445   H     0.42878   0.76765   0.01441   0.00000  Uiso   1.00
H446   H     0.48690   0.72556   0.01448   0.00000  Uiso   1.00
H447   H     0.52977   0.75638   0.11375   0.00000  Uiso   1.00
H448   H     0.47902   0.80634   0.10840   0.00000  Uiso   1.00
C449   C     0.68129   0.93141   0.24854   0.00000  Uiso   1.00
C450   C     0.81152   0.85653   0.49014   0.00000  Uiso   1.00
C451   C     0.79269   0.86023   0.43336   0.00000  Uiso   1.00
C452   C     0.86479   0.83415   0.01033   0.00000  Uiso   1.00
C453   C     0.90309   0.82558   0.47544   0.00000  Uiso   1.00
C454   C     0.88748   0.83820   0.42132   0.00000  Uiso   1.00
C455   C     0.83448   0.85835   0.40160   0.00000  Uiso   1.00
C456   C     0.88034   0.81687   0.06321   0.00000  Uiso   1.00
C457   C     0.97851   0.80721   0.05278   0.00000  Uiso   1.00
C458   C     0.73270   0.86544   0.41059   0.00000  Uiso   1.00
C459   C     0.68888   0.98595   0.24766   0.00000  Uiso   1.00
C460   C     0.70544   0.84541   0.35333   0.00000  Uiso   1.00
C461   C     0.97762   0.68071   0.25187   0.00000  Uiso   1.00
C462   C     0.98532   0.73526   0.25129   0.00000  Uiso   1.00
C463   C     0.96238   0.82573   0.14582   0.00000  Uiso   1.00
C464   C     0.95781   0.80714   0.49630   0.00000  Uiso   1.00
C465   C     0.94031   0.81600   0.08674   0.00000  Uiso   1.00
C466   C     0.70011   0.88826   0.44419   0.00000  Uiso   1.00
C467   C     0.72375   0.89622   0.00083   0.00000  Uiso   1.00
C468   C     0.77772   0.87755   0.02422   0.00000  Uiso   1.00
H469   H     0.69072   0.80146   0.06970   0.00000  Uiso   1.00
H470   H     0.93546   0.99719   0.25584   0.00000  Uiso   1.00
H471   H     0.84360   0.88296   0.27848   0.00000  Uiso   1.00
H472   H     0.91643   0.83333   0.39447   0.00000  Uiso   1.00
H473   H     0.98649   0.79809   0.46981   0.00000  Uiso   1.00
H474   H     0.98987   0.89932   0.42698   0.00000  Uiso   1.00
H475   H     0.79371   0.88173   0.06839   0.00000  Uiso   1.00
H476   H     0.69859   0.91370   0.02691   0.00000  Uiso   1.00
H477   H     0.82752   0.87408   0.36196   0.00000  Uiso   1.00
H478   H     0.73102   0.66946   0.24366   0.00000  Uiso   1.00
N479   N     0.81160   0.81890   0.23542   0.00000  Uiso   1.00
N480   N     0.85507   0.84777   0.26457   0.00000  Uiso   1.00
O481   O     0.96435   0.91296   0.25357   0.00000  Uiso   1.00
O482   O     0.72408   0.90371   0.24423   0.00000  Uiso   1.00
O483   O     0.98157   0.84024   0.33380   0.00000  Uiso   1.00
O484   O     0.74130   0.83099   0.32446   0.00000  Uiso   1.00
O485   O     0.94258   0.76296   0.25577   0.00000  Uiso   1.00
O486   O     0.70231   0.75371   0.24642   0.00000  Uiso   1.00
O487   O     0.92537   0.83567   0.17554   0.00000  Uiso   1.00
O488   O     0.68510   0.82642   0.16620   0.00000  Uiso   1.00
Zn489  Zn    0.93786   0.83951   0.25623   0.00000  Uiso   1.00
Zn490  Zn    0.72881   0.82716   0.24376   0.00000  Uiso   1.00
C491   C     0.82213   0.76627   0.22085   0.00000  Uiso   1.00
H492   H     0.78122   0.74615   0.19495   0.00000  Uiso   1.00
H493   H     0.85406   0.76616   0.19575   0.00000  Uiso   1.00
H494   H     0.83590   0.74465   0.25835   0.00000  Uiso   1.00
C495   C     0.83723   0.78244   0.08530   0.00000  Uiso   1.00
C496   C     0.79521   0.74543   0.04085   0.00000  Uiso   1.00
C497   C     0.76291   0.70379   0.06635   0.00000  Uiso   1.00
H498   H     0.79426   0.67803   0.08994   0.00000  Uiso   1.00
H499   H     0.73860   0.72224   0.09415   0.00000  Uiso   1.00
H500   H     0.73118   0.67949   0.03327   0.00000  Uiso   1.00
H501   H     0.76211   0.76765   0.01441   0.00000  Uiso   1.00
H502   H     0.82023   0.72556   0.01448   0.00000  Uiso   1.00
H503   H     0.86310   0.75638   0.11375   0.00000  Uiso   1.00
H504   H     0.81235   0.80634   0.10840   0.00000  Uiso   1.00
C505   C     0.01462   0.26474   0.74854   0.00000  Uiso   1.00
C506   C     0.14485   0.18987   0.99014   0.00000  Uiso   1.00
C507   C     0.12602   0.19356   0.93336   0.00000  Uiso   1.00
C508   C     0.19812   0.16748   0.51033   0.00000  Uiso   1.00
C509   C     0.23642   0.15891   0.97544   0.00000  Uiso   1.00
C510   C     0.22081   0.17153   0.92132   0.00000  Uiso   1.00
C511   C     0.16781   0.19168   0.90160   0.00000  Uiso   1.00
C512   C     0.21367   0.15020   0.56321   0.00000  Uiso   1.00
C513   C     0.31185   0.14055   0.55278   0.00000  Uiso   1.00
C514   C     0.06604   0.19877   0.91059   0.00000  Uiso   1.00
C515   C     0.02221   0.31928   0.74766   0.00000  Uiso   1.00
C516   C     0.03878   0.17874   0.85333   0.00000  Uiso   1.00
C517   C     0.31095   0.01404   0.75187   0.00000  Uiso   1.00
C518   C     0.31865   0.06859   0.75129   0.00000  Uiso   1.00
C519   C     0.29571   0.15907   0.64582   0.00000  Uiso   1.00
C520   C     0.29114   0.14048   0.99630   0.00000  Uiso   1.00
C521   C     0.27365   0.14933   0.58674   0.00000  Uiso   1.00
C522   C     0.03345   0.22160   0.94419   0.00000  Uiso   1.00
C523   C     0.05709   0.22955   0.50083   0.00000  Uiso   1.00
C524   C     0.11105   0.21089   0.52422   0.00000  Uiso   1.00
H525   H     0.02406   0.13479   0.56970   0.00000  Uiso   1.00
H526   H     0.26879   0.33052   0.75584   0.00000  Uiso   1.00
H527   H     0.17693   0.21630   0.77848   0.00000  Uiso   1.00
H528   H     0.24977   0.16667   0.89447   0.00000  Uiso   1.00
H529   H     0.31982   0.13142   0.96981   0.00000  Uiso   1.00
H530   H     0.32321   0.23265   0.92698   0.00000  Uiso   1.00
H531   H     0.12705   0.21506   0.56839   0.00000  Uiso   1.00
H532   H     0.03192   0.24703   0.52691   0.00000  Uiso   1.00
H533   H     0.16085   0.20742   0.86196   0.00000  Uiso   1.00
H534   H     0.06436   0.00279   0.74366   0.00000  Uiso   1.00
N535   N     0.14493   0.15223   0.73542   0.00000  Uiso   1.00
N536   N     0.18840   0.18110   0.76457   0.00000  Uiso   1.00
O537   O     0.29769   0.24629   0.75357   0.00000  Uiso   1.00
O538   O     0.05742   0.23704   0.74423   0.00000  Uiso   1.00
O539   O     0.31490   0.17358   0.83380   0.00000  Uiso   1.00
O540   O     0.07463   0.16433   0.82446   0.00000  Uiso   1.00
O541   O     0.27592   0.09629   0.75577   0.00000  Uiso   1.00
O542   O     0.03565   0.08704   0.74642   0.00000  Uiso   1.00
O543   O     0.25870   0.16901   0.67554   0.00000  Uiso   1.00
O544   O     0.01843   0.15976   0.66620   0.00000  Uiso   1.00
Zn545  Zn    0.27119   0.17284   0.75623   0.00000  Uiso   1.00
Zn546  Zn    0.06214   0.16049   0.74376   0.00000  Uiso   1.00
C547   C     0.15546   0.09961   0.72085   0.00000  Uiso   1.00
H548   H     0.11456   0.07948   0.69495   0.00000  Uiso   1.00
H549   H     0.18739   0.09949   0.69575   0.00000  Uiso   1.00
H550   H     0.16923   0.07798   0.75835   0.00000  Uiso   1.00
C551   C     0.17056   0.11577   0.58530   0.00000  Uiso   1.00
C552   C     0.12855   0.07877   0.54085   0.00000  Uiso   1.00
C553   C     0.09624   0.03712   0.56635   0.00000  Uiso   1.00
H554   H     0.12759   0.01136   0.58994   0.00000  Uiso   1.00
H555   H     0.07193   0.05557   0.59415   0.00000  Uiso   1.00
H556   H     0.06451   0.01282   0.53327   0.00000  Uiso   1.00
H557   H     0.09545   0.10099   0.51441   0.00000  Uiso   1.00
H558   H     0.15357   0.05889   0.51448   0.00000  Uiso   1.00
H559   H     0.19644   0.08972   0.61375   0.00000  Uiso   1.00
H560   H     0.14568   0.13967   0.60840   0.00000  Uiso   1.00
C561   C     0.34796   0.26474   0.74854   0.00000  Uiso   1.00
C562   C     0.47819   0.18987   0.99014   0.00000  Uiso   1.00
C563   C     0.45936   0.19356   0.93336   0.00000  Uiso   1.00
C564   C     0.53145   0.16748   0.51033   0.00000  Uiso   1.00
C565   C     0.56975   0.15891   0.97544   0.00000  Uiso   1.00
C566   C     0.55414   0.17153   0.92132   0.00000  Uiso   1.00
C567   C     0.50114   0.19168   0.90160   0.00000  Uiso   1.00
C568   C     0.54700   0.15020   0.56321   0.00000  Uiso   1.00
C569   C     0.64518   0.14055   0.55278   0.00000  Uiso   1.00
C570   C     0.39937   0.19877   0.91059   0.00000  Uiso   1.00
C571   C     0.35555   0.31928   0.74766   0.00000  Uiso   1.00
C572   C     0.37211   0.17874   0.85333   0.00000  Uiso   1.00
C573   C     0.64428   0.01404   0.75187   0.00000  Uiso   1.00
C574   C     0.65198   0.06859   0.75129   0.00000  Uiso   1.00
C575   C     0.62904   0.15907   0.64582   0.00000  Uiso   1.00
C576   C     0.62448   0.14048   0.99630   0.00000  Uiso   1.00
C577   C     0.60698   0.14933   0.58674   0.00000  Uiso   1.00
C578   C     0.36678   0.22160   0.94419   0.00000  Uiso   1.00
C579   C     0.39042   0.22955   0.50083   0.00000  Uiso   1.00
C580   C     0.44439   0.21089   0.52422   0.00000  Uiso   1.00
H581   H     0.35739   0.13479   0.56970   0.00000  Uiso   1.00
H582   H     0.60212   0.33052   0.75584   0.00000  Uiso   1.00
H583   H     0.51027   0.21630   0.77848   0.00000  Uiso   1.00
H584   H     0.58310   0.16667   0.89447   0.00000  Uiso   1.00
H585   H     0.65316   0.13142   0.96981   0.00000  Uiso   1.00
H586   H     0.65654   0.23265   0.92698   0.00000  Uiso   1.00
H587   H     0.46038   0.21506   0.56839   0.00000  Uiso   1.00
H588   H     0.36525   0.24703   0.52691   0.00000  Uiso   1.00
H589   H     0.49418   0.20742   0.86196   0.00000  Uiso   1.00
H590   H     0.39769   0.00279   0.74366   0.00000  Uiso   1.00
N591   N     0.47827   0.15223   0.73542   0.00000  Uiso   1.00
N592   N     0.52173   0.18110   0.76457   0.00000  Uiso   1.00
O593   O     0.63102   0.24629   0.75357   0.00000  Uiso   1.00
O594   O     0.39075   0.23704   0.74423   0.00000  Uiso   1.00
O595   O     0.64823   0.17358   0.83380   0.00000  Uiso   1.00
O596   O     0.40796   0.16433   0.82446   0.00000  Uiso   1.00
O597   O     0.60925   0.09629   0.75577   0.00000  Uiso   1.00
O598   O     0.36898   0.08704   0.74642   0.00000  Uiso   1.00
O599   O     0.59204   0.16901   0.67554   0.00000  Uiso   1.00
O600   O     0.35177   0.15976   0.66620   0.00000  Uiso   1.00
Zn601  Zn    0.60453   0.17284   0.75623   0.00000  Uiso   1.00
Zn602  Zn    0.39547   0.16049   0.74376   0.00000  Uiso   1.00
C603   C     0.48880   0.09961   0.72085   0.00000  Uiso   1.00
H604   H     0.44789   0.07948   0.69495   0.00000  Uiso   1.00
H605   H     0.52073   0.09949   0.69575   0.00000  Uiso   1.00
H606   H     0.50257   0.07798   0.75835   0.00000  Uiso   1.00
C607   C     0.50390   0.11577   0.58530   0.00000  Uiso   1.00
C608   C     0.46188   0.07877   0.54085   0.00000  Uiso   1.00
C609   C     0.42958   0.03712   0.56635   0.00000  Uiso   1.00
H610   H     0.46093   0.01136   0.58994   0.00000  Uiso   1.00
H611   H     0.40526   0.05557   0.59415   0.00000  Uiso   1.00
H612   H     0.39785   0.01282   0.53327   0.00000  Uiso   1.00
H613   H     0.42878   0.10099   0.51441   0.00000  Uiso   1.00
H614   H     0.48690   0.05889   0.51448   0.00000  Uiso   1.00
H615   H     0.52977   0.08972   0.61375   0.00000  Uiso   1.00
H616   H     0.47902   0.13967   0.60840   0.00000  Uiso   1.00
C617   C     0.68129   0.26474   0.74854   0.00000  Uiso   1.00
C618   C     0.81152   0.18987   0.99014   0.00000  Uiso   1.00
C619   C     0.79269   0.19356   0.93336   0.00000  Uiso   1.00
C620   C     0.86479   0.16748   0.51033   0.00000  Uiso   1.00
C621   C     0.90309   0.15891   0.97544   0.00000  Uiso   1.00
C622   C     0.88748   0.17153   0.92132   0.00000  Uiso   1.00
C623   C     0.83448   0.19168   0.90160   0.00000  Uiso   1.00
C624   C     0.88034   0.15020   0.56321   0.00000  Uiso   1.00
C625   C     0.97851   0.14055   0.55278   0.00000  Uiso   1.00
C626   C     0.73270   0.19877   0.91059   0.00000  Uiso   1.00
C627   C     0.68888   0.31928   0.74766   0.00000  Uiso   1.00
C628   C     0.70544   0.17874   0.85333   0.00000  Uiso   1.00
C629   C     0.97762   0.01404   0.75187   0.00000  Uiso   1.00
C630   C     0.98532   0.06859   0.75129   0.00000  Uiso   1.00
C631   C     0.96238   0.15907   0.64582   0.00000  Uiso   1.00
C632   C     0.95781   0.14048   0.99630   0.00000  Uiso   1.00
C633   C     0.94031   0.14933   0.58674   0.00000  Uiso   1.00
C634   C     0.70011   0.22160   0.94419   0.00000  Uiso   1.00
C635   C     0.72375   0.22955   0.50083   0.00000  Uiso   1.00
C636   C     0.77772   0.21089   0.52422   0.00000  Uiso   1.00
H637   H     0.69072   0.13479   0.56970   0.00000  Uiso   1.00
H638   H     0.93546   0.33052   0.75584   0.00000  Uiso   1.00
H639   H     0.84360   0.21630   0.77848   0.00000  Uiso   1.00
H640   H     0.91643   0.16667   0.89447   0.00000  Uiso   1.00
H641   H     0.98649   0.13142   0.96981   0.00000  Uiso   1.00
H642   H     0.98987   0.23265   0.92698   0.00000  Uiso   1.00
H643   H     0.79371   0.21506   0.56839   0.00000  Uiso   1.00
H644   H     0.69859   0.24703   0.52691   0.00000  Uiso   1.00
H645   H     0.82752   0.20742   0.86196   0.00000  Uiso   1.00
H646   H     0.73102   0.00279   0.74366   0.00000  Uiso   1.00
N647   N     0.81160   0.15223   0.73542   0.00000  Uiso   1.00
N648   N     0.85507   0.18110   0.76457   0.00000  Uiso   1.00
O649   O     0.96435   0.24629   0.75357   0.00000  Uiso   1.00
O650   O     0.72408   0.23704   0.74423   0.00000  Uiso   1.00
O651   O     0.98157   0.17358   0.83380   0.00000  Uiso   1.00
O652   O     0.74130   0.16433   0.82446   0.00000  Uiso   1.00
O653   O     0.94258   0.09629   0.75577   0.00000  Uiso   1.00
O654   O     0.70231   0.08704   0.74642   0.00000  Uiso   1.00
O655   O     0.92537   0.16901   0.67554   0.00000  Uiso   1.00
O656   O     0.68510   0.15976   0.66620   0.00000  Uiso   1.00
Zn657  Zn    0.93786   0.17284   0.75623   0.00000  Uiso   1.00
Zn658  Zn    0.72881   0.16049   0.74376   0.00000  Uiso   1.00
C659   C     0.82213   0.09961   0.72085   0.00000  Uiso   1.00
H660   H     0.78122   0.07948   0.69495   0.00000  Uiso   1.00
H661   H     0.85406   0.09949   0.69575   0.00000  Uiso   1.00
H662   H     0.83590   0.07798   0.75835   0.00000  Uiso   1.00
C663   C     0.83723   0.11577   0.58530   0.00000  Uiso   1.00
C664   C     0.79521   0.07877   0.54085   0.00000  Uiso   1.00
C665   C     0.76291   0.03712   0.56635   0.00000  Uiso   1.00
H666   H     0.79426   0.01136   0.58994   0.00000  Uiso   1.00
H667   H     0.73860   0.05557   0.59415   0.00000  Uiso   1.00
H668   H     0.73118   0.01282   0.53327   0.00000  Uiso   1.00
H669   H     0.76211   0.10099   0.51441   0.00000  Uiso   1.00
H670   H     0.82023   0.05889   0.51448   0.00000  Uiso   1.00
H671   H     0.86310   0.08972   0.61375   0.00000  Uiso   1.00
H672   H     0.81235   0.13967   0.60840   0.00000  Uiso   1.00
C673   C     0.01462   0.59808   0.74854   0.00000  Uiso   1.00
C674   C     0.14485   0.52320   0.99014   0.00000  Uiso   1.00
C675   C     0.12602   0.52690   0.93336   0.00000  Uiso   1.00
C676   C     0.19812   0.50081   0.51033   0.00000  Uiso   1.00
C677   C     0.23642   0.49224   0.97544   0.00000  Uiso   1.00
C678   C     0.22081   0.50486   0.92132   0.00000  Uiso   1.00
C679   C     0.16781   0.52502   0.90160   0.00000  Uiso   1.00
C680   C     0.21367   0.48354   0.56321   0.00000  Uiso   1.00
C681   C     0.31185   0.47388   0.55278   0.00000  Uiso   1.00
C682   C     0.06604   0.53210   0.91059   0.00000  Uiso   1.00
C683   C     0.02221   0.65261   0.74766   0.00000  Uiso   1.00
C684   C     0.03878   0.51208   0.85333   0.00000  Uiso   1.00
C685   C     0.31095   0.34737   0.75187   0.00000  Uiso   1.00
C686   C     0.31865   0.40192   0.75129   0.00000  Uiso   1.00
C687   C     0.29571   0.49240   0.64582   0.00000  Uiso   1.00
C688   C     0.29114   0.47381   0.99630   0.00000  Uiso   1.00
C689   C     0.27365   0.48266   0.58674   0.00000  Uiso   1.00
C690   C     0.03345   0.55493   0.94419   0.00000  Uiso   1.00
C691   C     0.05709   0.56288   0.50083   0.00000  Uiso   1.00
C692   C     0.11105   0.54422   0.52422   0.00000  Uiso   1.00
H693   H     0.02406   0.46812   0.56970   0.00000  Uiso   1.00
H694   H     0.26879   0.66386   0.75584   0.00000  Uiso   1.00
H695   H     0.17693   0.54963   0.77848   0.00000  Uiso   1.00
H696   H     0.24977   0.50000   0.89447   0.00000  Uiso   1.00
H697   H     0.31982   0.46476   0.96981   0.00000  Uiso   1.00
H698   H     0.32321   0.56599   0.92698   0.00000  Uiso   1.00
H699   H     0.12705   0.54839   0.56839   0.00000  Uiso   1.00
H700   H     0.03192   0.58037   0.52691   0.00000  Uiso   1.00
H701   H     0.16085   0.54075   0.86196   0.00000  Uiso   1.00
H702   H     0.06436   0.33612   0.74366   0.00000  Uiso   1.00
N703   N     0.14493   0.48556   0.73542   0.00000  Uiso   1.00
N704   N     0.18840   0.51444   0.76457   0.00000  Uiso   1.00
O705   O     0.29769   0.57963   0.75357   0.00000  Uiso   1.00
O706   O     0.05742   0.57038   0.74423   0.00000  Uiso   1.00
O707   O     0.31490   0.50691   0.83380   0.00000  Uiso   1.00
O708   O     0.07463   0.49766   0.82446   0.00000  Uiso   1.00
O709   O     0.27592   0.42962   0.75577   0.00000  Uiso   1.00
O710   O     0.03565   0.42037   0.74642   0.00000  Uiso   1.00
O711   O     0.25870   0.50234   0.67554   0.00000  Uiso   1.00
O712   O     0.01843   0.49309   0.66620   0.00000  Uiso   1.00
Zn713  Zn    0.27119   0.50618   0.75623   0.00000  Uiso   1.00
Zn714  Zn    0.06214   0.49382   0.74376   0.00000  Uiso   1.00
C715   C     0.15546   0.43294   0.72085   0.00000  Uiso   1.00
H716   H     0.11456   0.41282   0.69495   0.00000  Uiso   1.00
H717   H     0.18739   0.43283   0.69575   0.00000  Uiso   1.00
H718   H     0.16923   0.41132   0.75835   0.00000  Uiso   1.00
C719   C     0.17056   0.44910   0.58530   0.00000  Uiso   1.00
C720   C     0.12855   0.41210   0.54085   0.00000  Uiso   1.00
C721   C     0.09624   0.37046   0.56635   0.00000  Uiso   1.00
H722   H     0.12759   0.34470   0.58994   0.00000  Uiso   1.00
H723   H     0.07193   0.38890   0.59415   0.00000  Uiso   1.00
H724   H     0.06451   0.34615   0.53327   0.00000  Uiso   1.00
H725   H     0.09545   0.43432   0.51441   0.00000  Uiso   1.00
H726   H     0.15357   0.39222   0.51448   0.00000  Uiso   1.00
H727   H     0.19644   0.42305   0.61375   0.00000  Uiso   1.00
H728   H     0.14568   0.47301   0.60840   0.00000  Uiso   1.00
C729   C     0.34796   0.59808   0.74854   0.00000  Uiso   1.00
C730   C     0.47819   0.52320   0.99014   0.00000  Uiso   1.00
C731   C     0.45936   0.52690   0.93336   0.00000  Uiso   1.00
C732   C     0.53145   0.50081   0.51033   0.00000  Uiso   1.00
C733   C     0.56975   0.49224   0.97544   0.00000  Uiso   1.00
C734   C     0.55414   0.50486   0.92132   0.00000  Uiso   1.00
C735   C     0.50114   0.52502   0.90160   0.00000  Uiso   1.00
C736   C     0.54700   0.48354   0.56321   0.00000  Uiso   1.00
C737   C     0.64518   0.47388   0.55278   0.00000  Uiso   1.00
C738   C     0.39937   0.53210   0.91059   0.00000  Uiso   1.00
C739   C     0.35555   0.65261   0.74766   0.00000  Uiso   1.00
C740   C     0.37211   0.51208   0.85333   0.00000  Uiso   1.00
C741   C     0.64428   0.34737   0.75187   0.00000  Uiso   1.00
C742   C     0.65198   0.40192   0.75129   0.00000  Uiso   1.00
C743   C     0.62904   0.49240   0.64582   0.00000  Uiso   1.00
C744   C     0.62448   0.47381   0.99630   0.00000  Uiso   1.00
C745   C     0.60698   0.48266   0.58674   0.00000  Uiso   1.00
C746   C     0.36678   0.55493   0.94419   0.00000  Uiso   1.00
C747   C     0.39042   0.56288   0.50083   0.00000  Uiso   1.00
C748   C     0.44439   0.54422   0.52422   0.00000  Uiso   1.00
H749   H     0.35739   0.46812   0.56970   0.00000  Uiso   1.00
H750   H     0.60212   0.66386   0.75584   0.00000  Uiso   1.00
H751   H     0.51027   0.54963   0.77848   0.00000  Uiso   1.00
H752   H     0.58310   0.50000   0.89447   0.00000  Uiso   1.00
H753   H     0.65316   0.46476   0.96981   0.00000  Uiso   1.00
H754   H     0.65654   0.56599   0.92698   0.00000  Uiso   1.00
H755   H     0.46038   0.54839   0.56839   0.00000  Uiso   1.00
H756   H     0.36525   0.58037   0.52691   0.00000  Uiso   1.00
H757   H     0.49418   0.54075   0.86196   0.00000  Uiso   1.00
H758   H     0.39769   0.33612   0.74366   0.00000  Uiso   1.00
N759   N     0.47827   0.48556   0.73542   0.00000  Uiso   1.00
N760   N     0.52173   0.51444   0.76457   0.00000  Uiso   1.00
O761   O     0.63102   0.57963   0.75357   0.00000  Uiso   1.00
O762   O     0.39075   0.57038   0.74423   0.00000  Uiso   1.00
O763   O     0.64823   0.50691   0.83380   0.00000  Uiso   1.00
O764   O     0.40796   0.49766   0.82446   0.00000  Uiso   1.00
O765   O     0.60925   0.42962   0.75577   0.00000  Uiso   1.00
O766   O     0.36898   0.42037   0.74642   0.00000  Uiso   1.00
O767   O     0.59204   0.50234   0.67554   0.00000  Uiso   1.00
O768   O     0.35177   0.49309   0.66620   0.00000  Uiso   1.00
Zn769  Zn    0.60453   0.50618   0.75623   0.00000  Uiso   1.00
Zn770  Zn    0.39547   0.49382   0.74376   0.00000  Uiso   1.00
C771   C     0.48880   0.43294   0.72085   0.00000  Uiso   1.00
H772   H     0.44789   0.41282   0.69495   0.00000  Uiso   1.00
H773   H     0.52073   0.43283   0.69575   0.00000  Uiso   1.00
H774   H     0.50257   0.41132   0.75835   0.00000  Uiso   1.00
C775   C     0.50390   0.44910   0.58530   0.00000  Uiso   1.00
C776   C     0.46188   0.41210   0.54085   0.00000  Uiso   1.00
C777   C     0.42958   0.37046   0.56635   0.00000  Uiso   1.00
H778   H     0.46093   0.34470   0.58994   0.00000  Uiso   1.00
H779   H     0.40526   0.38890   0.59415   0.00000  Uiso   1.00
H780   H     0.39785   0.34615   0.53327   0.00000  Uiso   1.00
H781   H     0.42878   0.43432   0.51441   0.00000  Uiso   1.00
H782   H     0.48690   0.39222   0.51448   0.00000  Uiso   1.00
H783   H     0.52977   0.42305   0.61375   0.00000  Uiso   1.00
H784   H     0.47902   0.47301   0.60840   0.00000  Uiso   1.00
C785   C     0.68129   0.59808   0.74854   0.00000  Uiso   1.00
C786   C     0.81152   0.52320   0.99014   0.00000  Uiso   1.00
C787   C     0.79269   0.52690   0.93336   0.00000  Uiso   1.00
C788   C     0.86479   0.50081   0.51033   0.00000  Uiso   1.00
C789   C     0.90309   0.49224   0.97544   0.00000  Uiso   1.00
C790   C     0.88748   0.50486   0.92132   0.00000  Uiso   1.00
C791   C     0.83448   0.52502   0.90160   0.00000  Uiso   1.00
C792   C     0.88034   0.48354   0.56321   0.00000  Uiso   1.00
C793   C     0.97851   0.47388   0.55278   0.00000  Uiso   1.00
C794   C     0.73270   0.53210   0.91059   0.00000  Uiso   1.00
C795   C     0.68888   0.65261   0.74766   0.00000  Uiso   1.00
C796   C     0.70544   0.51208   0.85333   0.00000  Uiso   1.00
C797   C     0.97762   0.34737   0.75187   0.00000  Uiso   1.00
C798   C     0.98532   0.40192   0.75129   0.00000  Uiso   1.00
C799   C     0.96238   0.49240   0.64582   0.00000  Uiso   1.00
C800   C     0.95781   0.47381   0.99630   0.00000  Uiso   1.00
C801   C     0.94031   0.48266   0.58674   0.00000  Uiso   1.00
C802   C     0.70011   0.55493   0.94419   0.00000  Uiso   1.00
C803   C     0.72375   0.56288   0.50083   0.00000  Uiso   1.00
C804   C     0.77772   0.54422   0.52422   0.00000  Uiso   1.00
H805   H     0.69072   0.46812   0.56970   0.00000  Uiso   1.00
H806   H     0.93546   0.66386   0.75584   0.00000  Uiso   1.00
H807   H     0.84360   0.54963   0.77848   0.00000  Uiso   1.00
H808   H     0.91643   0.50000   0.89447   0.00000  Uiso   1.00
H809   H     0.98649   0.46476   0.96981   0.00000  Uiso   1.00
H810   H     0.98987   0.56599   0.92698   0.00000  Uiso   1.00
H811   H     0.79371   0.54839   0.56839   0.00000  Uiso   1.00
H812   H     0.69859   0.58037   0.52691   0.00000  Uiso   1.00
H813   H     0.82752   0.54075   0.86196   0.00000  Uiso   1.00
H814   H     0.73102   0.33612   0.74366   0.00000  Uiso   1.00
N815   N     0.81160   0.48556   0.73542   0.00000  Uiso   1.00
N816   N     0.85507   0.51444   0.76457   0.00000  Uiso   1.00
O817   O     0.96435   0.57963   0.75357   0.00000  Uiso   1.00
O818   O     0.72408   0.57038   0.74423   0.00000  Uiso   1.00
O819   O     0.98157   0.50691   0.83380   0.00000  Uiso   1.00
O820   O     0.74130   0.49766   0.82446   0.00000  Uiso   1.00
O821   O     0.94258   0.42962   0.75577   0.00000  Uiso   1.00
O822   O     0.70231   0.42037   0.74642   0.00000  Uiso   1.00
O823   O     0.92537   0.50234   0.67554   0.00000  Uiso   1.00
O824   O     0.68510   0.49309   0.66620   0.00000  Uiso   1.00
Zn825  Zn    0.93786   0.50618   0.75623   0.00000  Uiso   1.00
Zn826  Zn    0.72881   0.49382   0.74376   0.00000  Uiso   1.00
C827   C     0.82213   0.43294   0.72085   0.00000  Uiso   1.00
H828   H     0.78122   0.41282   0.69495   0.00000  Uiso   1.00
H829   H     0.85406   0.43283   0.69575   0.00000  Uiso   1.00
H830   H     0.83590   0.41132   0.75835   0.00000  Uiso   1.00
C831   C     0.83723   0.44910   0.58530   0.00000  Uiso   1.00
C832   C     0.79521   0.41210   0.54085   0.00000  Uiso   1.00
C833   C     0.76291   0.37046   0.56635   0.00000  Uiso   1.00
H834   H     0.79426   0.34470   0.58994   0.00000  Uiso   1.00
H835   H     0.73860   0.38890   0.59415   0.00000  Uiso   1.00
H836   H     0.73118   0.34615   0.53327   0.00000  Uiso   1.00
H837   H     0.76211   0.43432   0.51441   0.00000  Uiso   1.00
H838   H     0.82023   0.39222   0.51448   0.00000  Uiso   1.00
H839   H     0.86310   0.42305   0.61375   0.00000  Uiso   1.00
H840   H     0.81235   0.47301   0.60840   0.00000  Uiso   1.00
C841   C     0.01462   0.93141   0.74854   0.00000  Uiso   1.00
C842   C     0.14485   0.85653   0.99014   0.00000  Uiso   1.00
C843   C     0.12602   0.86023   0.93336   0.00000  Uiso   1.00
C844   C     0.19812   0.83415   0.51033   0.00000  Uiso   1.00
C845   C     0.23642   0.82558   0.97544   0.00000  Uiso   1.00
C846   C     0.22081   0.83820   0.92132   0.00000  Uiso   1.00
C847   C     0.16781   0.85835   0.90160   0.00000  Uiso   1.00
C848   C     0.21367   0.81687   0.56321   0.00000  Uiso   1.00
C849   C     0.31185   0.80721   0.55278   0.00000  Uiso   1.00
C850   C     0.06604   0.86544   0.91059   0.00000  Uiso   1.00
C851   C     0.02221   0.98595   0.74766   0.00000  Uiso   1.00
C852   C     0.03878   0.84541   0.85333   0.00000  Uiso   1.00
C853   C     0.31095   0.68071   0.75187   0.00000  Uiso   1.00
C854   C     0.31865   0.73526   0.75129   0.00000  Uiso   1.00
C855   C     0.29571   0.82573   0.64582   0.00000  Uiso   1.00
C856   C     0.29114   0.80714   0.99630   0.00000  Uiso   1.00
C857   C     0.27365   0.81600   0.58674   0.00000  Uiso   1.00
C858   C     0.03345   0.88826   0.94419   0.00000  Uiso   1.00
C859   C     0.05709   0.89622   0.50083   0.00000  Uiso   1.00
C860   C     0.11105   0.87755   0.52422   0.00000  Uiso   1.00
H861   H     0.02406   0.80146   0.56970   0.00000  Uiso   1.00
H862   H     0.26879   0.99719   0.75584   0.00000  Uiso   1.00
H863   H     0.17693   0.88296   0.77848   0.00000  Uiso   1.00
H864   H     0.24977   0.83333   0.89447   0.00000  Uiso   1.00
H865   H     0.31982   0.79809   0.96981   0.00000  Uiso   1.00
H866   H     0.32321   0.89932   0.92698   0.00000  Uiso   1.00
H867   H     0.12705   0.88173   0.56839   0.00000  Uiso   1.00
H868   H     0.03192   0.91370   0.52691   0.00000  Uiso   1.00
H869   H     0.16085   0.87408   0.86196   0.00000  Uiso   1.00
H870   H     0.06436   0.66946   0.74366   0.00000  Uiso   1.00
N871   N     0.14493   0.81890   0.73542   0.00000  Uiso   1.00
N872   N     0.18840   0.84777   0.76457   0.00000  Uiso   1.00
O873   O     0.29769   0.91296   0.75357   0.00000  Uiso   1.00
O874   O     0.05742   0.90371   0.74423   0.00000  Uiso   1.00
O875   O     0.31490   0.84024   0.83380   0.00000  Uiso   1.00
O876   O     0.07463   0.83099   0.82446   0.00000  Uiso   1.00
O877   O     0.27592   0.76296   0.75577   0.00000  Uiso   1.00
O878   O     0.03565   0.75371   0.74642   0.00000  Uiso   1.00
O879   O     0.25870   0.83567   0.67554   0.00000  Uiso   1.00
O880   O     0.01843   0.82642   0.66620   0.00000  Uiso   1.00
Zn881  Zn    0.27119   0.83951   0.75623   0.00000  Uiso   1.00
Zn882  Zn    0.06214   0.82716   0.74376   0.00000  Uiso   1.00
C883   C     0.15546   0.76627   0.72085   0.00000  Uiso   1.00
H884   H     0.11456   0.74615   0.69495   0.00000  Uiso   1.00
H885   H     0.18739   0.76616   0.69575   0.00000  Uiso   1.00
H886   H     0.16923   0.74465   0.75835   0.00000  Uiso   1.00
C887   C     0.17056   0.78244   0.58530   0.00000  Uiso   1.00
C888   C     0.12855   0.74543   0.54085   0.00000  Uiso   1.00
C889   C     0.09624   0.70379   0.56635   0.00000  Uiso   1.00
H890   H     0.12759   0.67803   0.58994   0.00000  Uiso   1.00
H891   H     0.07193   0.72224   0.59415   0.00000  Uiso   1.00
H892   H     0.06451   0.67949   0.53327   0.00000  Uiso   1.00
H893   H     0.09545   0.76765   0.51441   0.00000  Uiso   1.00
H894   H     0.15357   0.72556   0.51448   0.00000  Uiso   1.00
H895   H     0.19644   0.75638   0.61375   0.00000  Uiso   1.00
H896   H     0.14568   0.80634   0.60840   0.00000  Uiso   1.00
C897   C     0.34796   0.93141   0.74854   0.00000  Uiso   1.00
C898   C     0.47819   0.85653   0.99014   0.00000  Uiso   1.00
C899   C     0.45936   0.86023   0.93336   0.00000  Uiso   1.00
C900   C     0.53145   0.83415   0.51033   0.00000  Uiso   1.00
C901   C     0.56975   0.82558   0.97544   0.00000  Uiso   1.00
C902   C     0.55414   0.83820   0.92132   0.00000  Uiso   1.00
C903   C     0.50114   0.85835   0.90160   0.00000  Uiso   1.00
C904   C     0.54700   0.81687   0.56321   0.00000  Uiso   1.00
C905   C     0.64518   0.80721   0.55278   0.00000  Uiso   1.00
C906   C     0.39937   0.86544   0.91059   0.00000  Uiso   1.00
C907   C     0.35555   0.98595   0.74766   0.00000  Uiso   1.00
C908   C     0.37211   0.84541   0.85333   0.00000  Uiso   1.00
C909   C     0.64428   0.68071   0.75187   0.00000  Uiso   1.00
C910   C     0.65198   0.73526   0.75129   0.00000  Uiso   1.00
C911   C     0.62904   0.82573   0.64582   0.00000  Uiso   1.00
C912   C     0.62448   0.80714   0.99630   0.00000  Uiso   1.00
C913   C     0.60698   0.81600   0.58674   0.00000  Uiso   1.00
C914   C     0.36678   0.88826   0.94419   0.00000  Uiso   1.00
C915   C     0.39042   0.89622   0.50083   0.00000  Uiso   1.00
C916   C     0.44439   0.87755   0.52422   0.00000  Uiso   1.00
H917   H     0.35739   0.80146   0.56970   0.00000  Uiso   1.00
H918   H     0.60212   0.99719   0.75584   0.00000  Uiso   1.00
H919   H     0.51027   0.88296   0.77848   0.00000  Uiso   1.00
H920   H     0.58310   0.83333   0.89447   0.00000  Uiso   1.00
H921   H     0.65316   0.79809   0.96981   0.00000  Uiso   1.00
H922   H     0.65654   0.89932   0.92698   0.00000  Uiso   1.00
H923   H     0.46038   0.88173   0.56839   0.00000  Uiso   1.00
H924   H     0.36525   0.91370   0.52691   0.00000  Uiso   1.00
H925   H     0.49418   0.87408   0.86196   0.00000  Uiso   1.00
H926   H     0.39769   0.66946   0.74366   0.00000  Uiso   1.00
N927   N     0.47827   0.81890   0.73542   0.00000  Uiso   1.00
N928   N     0.52173   0.84777   0.76457   0.00000  Uiso   1.00
O929   O     0.63102   0.91296   0.75357   0.00000  Uiso   1.00
O930   O     0.39075   0.90371   0.74423   0.00000  Uiso   1.00
O931   O     0.64823   0.84024   0.83380   0.00000  Uiso   1.00
O932   O     0.40796   0.83099   0.82446   0.00000  Uiso   1.00
O933   O     0.60925   0.76296   0.75577   0.00000  Uiso   1.00
O934   O     0.36898   0.75371   0.74642   0.00000  Uiso   1.00
O935   O     0.59204   0.83567   0.67554   0.00000  Uiso   1.00
O936   O     0.35177   0.82642   0.66620   0.00000  Uiso   1.00
Zn937  Zn    0.60453   0.83951   0.75623   0.00000  Uiso   1.00
Zn938  Zn    0.39547   0.82716   0.74376   0.00000  Uiso   1.00
C939   C     0.48880   0.76627   0.72085   0.00000  Uiso   1.00
H940   H     0.44789   0.74615   0.69495   0.00000  Uiso   1.00
H941   H     0.52073   0.76616   0.69575   0.00000  Uiso   1.00
H942   H     0.50257   0.74465   0.75835   0.00000  Uiso   1.00
C943   C     0.50390   0.78244   0.58530   0.00000  Uiso   1.00
C944   C     0.46188   0.74543   0.54085   0.00000  Uiso   1.00
C945   C     0.42958   0.70379   0.56635   0.00000  Uiso   1.00
H946   H     0.46093   0.67803   0.58994   0.00000  Uiso   1.00
H947   H     0.40526   0.72224   0.59415   0.00000  Uiso   1.00
H948   H     0.39785   0.67949   0.53327   0.00000  Uiso   1.00
H949   H     0.42878   0.76765   0.51441   0.00000  Uiso   1.00
H950   H     0.48690   0.72556   0.51448   0.00000  Uiso   1.00
H951   H     0.52977   0.75638   0.61375   0.00000  Uiso   1.00
H952   H     0.47902   0.80634   0.60840   0.00000  Uiso   1.00
C953   C     0.68129   0.93141   0.74854   0.00000  Uiso   1.00
C954   C     0.81152   0.85653   0.99014   0.00000  Uiso   1.00
C955   C     0.79269   0.86023   0.93336   0.00000  Uiso   1.00
C956   C     0.86479   0.83415   0.51033   0.00000  Uiso   1.00
C957   C     0.90309   0.82558   0.97544   0.00000  Uiso   1.00
C958   C     0.88748   0.83820   0.92132   0.00000  Uiso   1.00
C959   C     0.83448   0.85835   0.90160   0.00000  Uiso   1.00
C960   C     0.88034   0.81687   0.56321   0.00000  Uiso   1.00
C961   C     0.97851   0.80721   0.55278   0.00000  Uiso   1.00
C962   C     0.73270   0.86544   0.91059   0.00000  Uiso   1.00
C963   C     0.68888   0.98595   0.74766   0.00000  Uiso   1.00
C964   C     0.70544   0.84541   0.85333   0.00000  Uiso   1.00
C965   C     0.97762   0.68071   0.75187   0.00000  Uiso   1.00
C966   C     0.98532   0.73526   0.75129   0.00000  Uiso   1.00
C967   C     0.96238   0.82573   0.64582   0.00000  Uiso   1.00
C968   C     0.95781   0.80714   0.99630   0.00000  Uiso   1.00
C969   C     0.94031   0.81600   0.58674   0.00000  Uiso   1.00
C970   C     0.70011   0.88826   0.94419   0.00000  Uiso   1.00
C971   C     0.72375   0.89622   0.50083   0.00000  Uiso   1.00
C972   C     0.77772   0.87755   0.52422   0.00000  Uiso   1.00
H973   H     0.69072   0.80146   0.56970   0.00000  Uiso   1.00
H974   H     0.93546   0.99719   0.75584   0.00000  Uiso   1.00
H975   H     0.84360   0.88296   0.77848   0.00000  Uiso   1.00
H976   H     0.91643   0.83333   0.89447   0.00000  Uiso   1.00
H977   H     0.98649   0.79809   0.96981   0.00000  Uiso   1.00
H978   H     0.98987   0.89932   0.92698   0.00000  Uiso   1.00
H979   H     0.79371   0.88173   0.56839   0.00000  Uiso   1.00
H980   H     0.69859   0.91370   0.52691   0.00000  Uiso   1.00
H981   H     0.82752   0.87408   0.86196   0.00000  Uiso   1.00
H982   H     0.73102   0.66946   0.74366   0.00000  Uiso   1.00
N983   N     0.81160   0.81890   0.73542   0.00000  Uiso   1.00
N984   N     0.85507   0.84777   0.76457   0.00000  Uiso   1.00
O985   O     0.96435   0.91296   0.75357   0.00000  Uiso   1.00
O986   O     0.72408   0.90371   0.74423   0.00000  Uiso   1.00
O987   O     0.98157   0.84024   0.83380   0.00000  Uiso   1.00
O988   O     0.74130   0.83099   0.82446   0.00000  Uiso   1.00
O989   O     0.94258   0.76296   0.75577   0.00000  Uiso   1.00
O990   O     0.70231   0.75371   0.74642   0.00000  Uiso   1.00
O991   O     0.92537   0.83567   0.67554   0.00000  Uiso   1.00
O992   O     0.68510   0.82642   0.66620   0.00000  Uiso   1.00
Zn993  Zn    0.93786   0.83951   0.75623   0.00000  Uiso   1.00
Zn994  Zn    0.72881   0.82716   0.74376   0.00000  Uiso   1.00
C995   C     0.82213   0.76627   0.72085   0.00000  Uiso   1.00
H996   H     0.78122   0.74615   0.69495   0.00000  Uiso   1.00
H997   H     0.85406   0.76616   0.69575   0.00000  Uiso   1.00
H998   H     0.83590   0.74465   0.75835   0.00000  Uiso   1.00
C999   C     0.83723   0.78244   0.58530   0.00000  Uiso   1.00
C1000  C     0.79521   0.74543   0.54085   0.00000  Uiso   1.00
C1001  C     0.76291   0.70379   0.56635   0.00000  Uiso   1.00
H1002  H     0.79426   0.67803   0.58994   0.00000  Uiso   1.00
H1003  H     0.73860   0.72224   0.59415   0.00000  Uiso   1.00
H1004  H     0.73118   0.67949   0.53327   0.00000  Uiso   1.00
H1005  H     0.76211   0.76765   0.51441   0.00000  Uiso   1.00
H1006  H     0.82023   0.72556   0.51448   0.00000  Uiso   1.00
H1007  H     0.86310   0.75638   0.61375   0.00000  Uiso   1.00
H1008  H     0.81235   0.80634   0.60840   0.00000  Uiso   1.00
loop_
_geom_bond_atom_site_label_1
_geom_bond_atom_site_label_2
_geom_bond_distance
_geom_bond_site_symmetry_2
_ccdc_geom_bond_type
C1     O34     1.295   .     A
C1     C11     1.403   .     S
C1     O145    1.286   1_455 S
C2     C3      1.399   .     A
C2     C508    1.411   .     S
C2     C524    1.411   .     S
C3     C10     1.414   .     A
C3     C7      1.409   .     A
C4     C8      1.395   .     A
C4     C506    1.411   1_554 S
C4     C509    1.419   1_554 S
C5     C6      1.382   .     A
C5     C16     1.397   .     A
C5     C508    1.419   .     S
C6     C7      1.377   .     A
C6     H24     1.076   .     S
C7     H29     1.074   .     S
C8     C17     1.402   .     A
C8     C47     1.525   .     S
C9     C17     1.400   .     A
C9     C520    1.386   1_554 S
C9     H77     1.081   .     S
C10    C18     1.401   .     A
C10    C12     1.479   .     S
C11    C293    1.336   1_455 S
C11    H198    1.088   .     S
C12    O36     1.297   .     A
C12    O147    1.319   1_455 S
C13    C14     1.403   .     S
C13    C403    1.336   1_545 S
C13    H358    1.088   1_545 S
C14    O37     1.295   .     A
C14    O94     1.286   .     S
C15    O39     1.305   .     A
C15    C17     1.453   .     S
C15    O96     1.300   .     S
C16    H25     1.083   .     S
C16    C513    1.386   .     S
C18    C523    1.398   .     S
C18    H138    1.080   1_455 S
C19    H28     1.082   .     S
C19    C20     1.398   .     A
C19    C522    1.398   1_554 S
C20    H27     1.081   .     S
C20    C506    1.411   1_554 S
H21    C121    1.081   1_455 S
H22    C181    1.088   .     S
H23    N32     1.028   .     S
H26    C74     1.080   .     S
H30    C347    1.088   1_545 S
N31    C43     1.435   .     S
N31    Zn42    2.038   .     S
N31    N32     1.276   .     D
N32    Zn41    2.038   .     S
O33    Zn41    1.959   .     S
O33    C57     1.286   .     S
O34    Zn42    1.978   .     S
O35    Zn41    1.975   .     S
O35    C68     1.319   .     S
O36    Zn42    1.973   .     S
O37    Zn41    1.978   .     S
O38    Zn42    1.959   .     S
O38    C126    1.286   1_455 S
O39    Zn41    1.973   .     S
O40    Zn42    1.975   .     S
O40    C127    1.300   1_455 S
C43    H45     1.091   .     S
C43    H44     1.107   .     S
C43    H46     1.111   .     S
C47    C48     1.542   .     S
C47    H55     1.108   .     S
C47    H56     1.109   .     S
C48    H54     1.112   .     S
C48    C49     1.527   .     S
C48    H53     1.109   .     S
C49    H52     1.110   .     S
C49    H50     1.111   .     S
C49    H51     1.110   .     S
C57    O90     1.295   .     A
C57    C67     1.403   .     S
C58    C59     1.399   .     A
C58    C564    1.411   .     S
C58    C580    1.411   .     S
C59    C66     1.414   .     A
C59    C63     1.409   .     A
C60    C64     1.395   .     A
C60    C562    1.411   1_554 S
C60    C565    1.419   1_554 S
C61    C62     1.382   .     A
C61    C72     1.397   .     A
C61    C564    1.419   .     S
C62    C63     1.377   .     A
C62    H80     1.076   .     S
C63    H85     1.074   .     S
C64    C73     1.402   .     A
C64    C103    1.525   .     S
C65    C73     1.400   .     A
C65    C576    1.386   1_554 S
C65    H133    1.081   .     S
C66    C74     1.401   .     A
C66    C68     1.479   .     S
C67    C181    1.336   .     S
C67    H254    1.088   .     S
C68    O92     1.297   .     A
C69    C70     1.403   .     S
C69    C459    1.336   1_545 S
C69    H414    1.088   1_545 S
C70    O93     1.295   .     A
C70    O150    1.286   .     S
C71    O95     1.305   .     A
C71    C73     1.453   .     S
C71    O152    1.300   .     S
C72    H81     1.083   .     S
C72    C569    1.386   .     S
C74    C579    1.398   .     S
C75    H84     1.082   .     S
C75    C76     1.398   .     A
C75    C578    1.398   1_554 S
C76    H83     1.081   .     S
C76    C562    1.411   1_554 S
H78    C237    1.088   .     S
H79    N88     1.028   .     S
H82    C130    1.080   .     S
H86    C403    1.088   1_545 S
N87    C99     1.435   .     S
N87    Zn98    2.038   .     S
N87    N88     1.276   .     D
N88    Zn97    2.038   .     S
O89    Zn97    1.959   .     S
O89    C113    1.286   .     S
O90    Zn98    1.978   .     S
O91    Zn97    1.975   .     S
O91    C124    1.319   .     S
O92    Zn98    1.973   .     S
O93    Zn97    1.978   .     S
O94    Zn98    1.959   .     S
O95    Zn97    1.973   .     S
O96    Zn98    1.975   .     S
C99    H101    1.091   .     S
C99    H100    1.107   .     S
C99    H102    1.111   .     S
C103   C104    1.542   .     S
C103   H111    1.108   .     S
C103   H112    1.109   .     S
C104   H110    1.112   .     S
C104   C105    1.527   .     S
C104   H109    1.109   .     S
C105   H108    1.110   .     S
C105   H106    1.111   .     S
C105   H107    1.110   .     S
C113   O146    1.295   .     A
C113   C123    1.403   .     S
C114   C115    1.399   .     A
C114   C620    1.411   .     S
C114   C636    1.411   .     S
C115   C122    1.414   .     A
C115   C119    1.409   .     A
C116   C120    1.395   .     A
C116   C618    1.411   1_554 S
C116   C621    1.419   1_554 S
C117   C118    1.382   .     A
C117   C128    1.397   .     A
C117   C620    1.419   .     S
C118   C119    1.377   .     A
C118   H136    1.076   .     S
C119   H141    1.074   .     S
C120   C129    1.402   .     A
C120   C159    1.525   .     S
C121   C129    1.400   .     A
C121   C632    1.386   1_554 S
C121   H21     1.081   1_655 S
C122   C130    1.401   .     A
C122   C124    1.479   .     S
C123   C237    1.336   .     S
C123   H310    1.088   .     S
C124   O148    1.297   .     A
C125   C126    1.403   .     S
C125   C347    1.336   1_645 S
C125   H470    1.088   1_545 S
C126   O149    1.295   .     A
C126   O38     1.286   1_655 S
C127   O151    1.305   .     A
C127   C129    1.453   .     S
C127   O40     1.300   1_655 S
C128   H137    1.083   .     S
C128   C625    1.386   .     S
C130   C635    1.398   .     S
C131   H140    1.082   .     S
C131   C132    1.398   .     A
C131   C634    1.398   1_554 S
C132   H139    1.081   .     S
C132   C618    1.411   1_554 S
H134   C293    1.088   .     S
H135   N144    1.028   .     S
H138   C18     1.080   1_655 S
H142   C459    1.088   1_545 S
N143   C155    1.435   .     S
N143   Zn154   2.038   .     S
N143   N144    1.276   .     D
N144   Zn153   2.038   .     S
O145   Zn153   1.959   .     S
O145   C1      1.286   1_655 S
O146   Zn154   1.978   .     S
O147   Zn153   1.975   .     S
O147   C12     1.319   1_655 S
O148   Zn154   1.973   .     S
O149   Zn153   1.978   .     S
O150   Zn154   1.959   .     S
O151   Zn153   1.973   .     S
O152   Zn154   1.975   .     S
C155   H157    1.091   .     S
C155   H156    1.107   .     S
C155   H158    1.111   .     S
C159   C160    1.542   .     S
C159   H167    1.108   .     S
C159   H168    1.109   .     S
C160   H166    1.112   .     S
C160   C161    1.527   .     S
C160   H165    1.109   .     S
C161   H164    1.110   .     S
C161   H162    1.111   .     S
C161   H163    1.110   .     S
C169   O202    1.295   .     A
C169   C179    1.403   .     S
C169   O313    1.286   1_455 S
C170   C171    1.399   .     A
C170   C676    1.411   .     S
C170   C692    1.411   .     S
C171   C178    1.414   .     A
C171   C175    1.409   .     A
C172   C176    1.395   .     A
C172   C674    1.411   1_554 S
C172   C677    1.419   1_554 S
C173   C174    1.382   .     A
C173   C184    1.397   .     A
C173   C676    1.419   .     S
C174   C175    1.377   .     A
C174   H192    1.076   .     S
C175   H197    1.074   .     S
C176   C185    1.402   .     A
C176   C215    1.525   .     S
C177   C185    1.400   .     A
C177   C688    1.386   1_554 S
C177   H245    1.081   .     S
C178   C186    1.401   .     A
C178   C180    1.479   .     S
C179   C461    1.336   1_455 S
C179   H366    1.088   .     S
C180   O204    1.297   .     A
C180   O315    1.319   1_455 S
C181   C182    1.403   .     S
C182   O205    1.295   .     A
C182   O262    1.286   .     S
C183   O207    1.305   .     A
C183   C185    1.453   .     S
C183   O264    1.300   .     S
C184   H193    1.083   .     S
C184   C681    1.386   .     S
C186   C691    1.398   .     S
C186   H306    1.080   1_455 S
C187   H196    1.082   .     S
C187   C188    1.398   .     A
C187   C690    1.398   1_554 S
C188   H195    1.081   .     S
C188   C674    1.411   1_554 S
H189   C289    1.081   1_455 S
H190   C349    1.088   .     S
H191   N200    1.028   .     S
H194   C242    1.080   .     S
N199   C211    1.435   .     S
N199   Zn210   2.038   .     S
N199   N200    1.276   .     D
N200   Zn209   2.038   .     S
O201   Zn209   1.959   .     S
O201   C225    1.286   .     S
O202   Zn210   1.978   .     S
O203   Zn209   1.975   .     S
O203   C236    1.319   .     S
O204   Zn210   1.973   .     S
O205   Zn209   1.978   .     S
O206   Zn210   1.959   .     S
O206   C294    1.286   1_455 S
O207   Zn209   1.973   .     S
O208   Zn210   1.975   .     S
O208   C295    1.300   1_455 S
C211   H213    1.091   .     S
C211   H212    1.107   .     S
C211   H214    1.111   .     S
C215   C216    1.542   .     S
C215   H223    1.108   .     S
C215   H224    1.109   .     S
C216   H222    1.112   .     S
C216   C217    1.527   .     S
C216   H221    1.109   .     S
C217   H220    1.110   .     S
C217   H218    1.111   .     S
C217   H219    1.110   .     S
C225   O258    1.295   .     A
C225   C235    1.403   .     S
C226   C227    1.399   .     A
C226   C732    1.411   .     S
C226   C748    1.411   .     S
C227   C234    1.414   .     A
C227   C231    1.409   .     A
C228   C232    1.395   .     A
C228   C730    1.411   1_554 S
C228   C733    1.419   1_554 S
C229   C230    1.382   .     A
C229   C240    1.397   .     A
C229   C732    1.419   .     S
C230   C231    1.377   .     A
C230   H248    1.076   .     S
C231   H253    1.074   .     S
C232   C241    1.402   .     A
C232   C271    1.525   .     S
C233   C241    1.400   .     A
C233   C744    1.386   1_554 S
C233   H301    1.081   .     S
C234   C242    1.401   .     A
C234   C236    1.479   .     S
C235   C349    1.336   .     S
C235   H422    1.088   .     S
C236   O260    1.297   .     A
C237   C238    1.403   .     S
C238   O261    1.295   .     A
C238   O318    1.286   .     S
C239   O263    1.305   .     A
C239   C241    1.453   .     S
C239   O320    1.300   .     S
C240   H249    1.083   .     S
C240   C737    1.386   .     S
C242   C747    1.398   .     S
C243   H252    1.082   .     S
C243   C244    1.398   .     A
C243   C746    1.398   1_554 S
C244   H251    1.081   .     S
C244   C730    1.411   1_554 S
H246   C405    1.088   .     S
H247   N256    1.028   .     S
H250   C298    1.080   .     S
N255   C267    1.435   .     S
N255   Zn266   2.038   .     S
N255   N256    1.276   .     D
N256   Zn265   2.038   .     S
O257   Zn265   1.959   .     S
O257   C281    1.286   .     S
O258   Zn266   1.978   .     S
O259   Zn265   1.975   .     S
O259   C292    1.319   .     S
O260   Zn266   1.973   .     S
O261   Zn265   1.978   .     S
O262   Zn266   1.959   .     S
O263   Zn265   1.973   .     S
O264   Zn266   1.975   .     S
C267   H269    1.091   .     S
C267   H268    1.107   .     S
C267   H270    1.111   .     S
C271   C272    1.542   .     S
C271   H279    1.108   .     S
C271   H280    1.109   .     S
C272   H278    1.112   .     S
C272   C273    1.527   .     S
C272   H277    1.109   .     S
C273   H276    1.110   .     S
C273   H274    1.111   .     S
C273   H275    1.110   .     S
C281   O314    1.295   .     A
C281   C291    1.403   .     S
C282   C283    1.399   .     A
C282   C788    1.411   .     S
C282   C804    1.411   .     S
C283   C290    1.414   .     A
C283   C287    1.409   .     A
C284   C288    1.395   .     A
C284   C786    1.411   1_554 S
C284   C789    1.419   1_554 S
C285   C286    1.382   .     A
C285   C296    1.397   .     A
C285   C788    1.419   .     S
C286   C287    1.377   .     A
C286   H304    1.076   .     S
C287   H309    1.074   .     S
C288   C297    1.402   .     A
C288   C327    1.525   .     S
C289   C297    1.400   .     A
C289   C800    1.386   1_554 S
C289   H189    1.081   1_655 S
C290   C298    1.401   .     A
C290   C292    1.479   .     S
C291   C405    1.336   .     S
C291   H478    1.088   .     S
C292   O316    1.297   .     A
C293   C294    1.403   .     S
C293   C11     1.336   1_655 S
C294   O317    1.295   .     A
C294   O206    1.286   1_655 S
C295   O319    1.305   .     A
C295   C297    1.453   .     S
C295   O208    1.300   1_655 S
C296   H305    1.083   .     S
C296   C793    1.386   .     S
C298   C803    1.398   .     S
C299   H308    1.082   .     S
C299   C300    1.398   .     A
C299   C802    1.398   1_554 S
C300   H307    1.081   .     S
C300   C786    1.411   1_554 S
H302   C461    1.088   .     S
H303   N312    1.028   .     S
H306   C186    1.080   1_655 S
N311   C323    1.435   .     S
N311   Zn322   2.038   .     S
N311   N312    1.276   .     D
N312   Zn321   2.038   .     S
O313   Zn321   1.959   .     S
O313   C169    1.286   1_655 S
O314   Zn322   1.978   .     S
O315   Zn321   1.975   .     S
O315   C180    1.319   1_655 S
O316   Zn322   1.973   .     S
O317   Zn321   1.978   .     S
O318   Zn322   1.959   .     S
O319   Zn321   1.973   .     S
O320   Zn322   1.975   .     S
C323   H325    1.091   .     S
C323   H324    1.107   .     S
C323   H326    1.111   .     S
C327   C328    1.542   .     S
C327   H335    1.108   .     S
C327   H336    1.109   .     S
C328   H334    1.112   .     S
C328   C329    1.527   .     S
C328   H333    1.109   .     S
C329   H332    1.110   .     S
C329   H330    1.111   .     S
C329   H331    1.110   .     S
C337   O370    1.295   .     A
C337   C347    1.403   .     S
C337   O481    1.286   1_455 S
C338   C339    1.399   .     A
C338   C844    1.411   .     S
C338   C860    1.411   .     S
C339   C346    1.414   .     A
C339   C343    1.409   .     A
C340   C344    1.395   .     A
C340   C842    1.411   1_554 S
C340   C845    1.419   1_554 S
C341   C342    1.382   .     A
C341   C352    1.397   .     A
C341   C844    1.419   .     S
C342   C343    1.377   .     A
C342   H360    1.076   .     S
C343   H365    1.074   .     S
C344   C353    1.402   .     A
C344   C383    1.525   .     S
C345   C353    1.400   .     A
C345   C856    1.386   1_554 S
C345   H413    1.081   .     S
C346   C354    1.401   .     A
C346   C348    1.479   .     S
C347   C125    1.336   1_465 S
C347   H30     1.088   1_565 S
C348   O372    1.297   .     A
C348   O483    1.319   1_455 S
C349   C350    1.403   .     S
C350   O373    1.295   .     A
C350   O430    1.286   .     S
C351   O375    1.305   .     A
C351   C353    1.453   .     S
C351   O432    1.300   .     S
C352   H361    1.083   .     S
C352   C849    1.386   .     S
C354   C859    1.398   .     S
C354   H474    1.080   1_455 S
C355   H364    1.082   .     S
C355   C356    1.398   .     A
C355   C858    1.398   1_554 S
C356   H363    1.081   .     S
C356   C842    1.411   1_554 S
H357   C457    1.081   1_455 S
H358   C13     1.088   1_565 S
H359   N368    1.028   .     S
H362   C410    1.080   .     S
N367   C379    1.435   .     S
N367   Zn378   2.038   .     S
N367   N368    1.276   .     D
N368   Zn377   2.038   .     S
O369   Zn377   1.959   .     S
O369   C393    1.286   .     S
O370   Zn378   1.978   .     S
O371   Zn377   1.975   .     S
O371   C404    1.319   .     S
O372   Zn378   1.973   .     S
O373   Zn377   1.978   .     S
O374   Zn378   1.959   .     S
O374   C462    1.286   1_455 S
O375   Zn377   1.973   .     S
O376   Zn378   1.975   .     S
O376   C463    1.300   1_455 S
C379   H381    1.091   .     S
C379   H380    1.107   .     S
C379   H382    1.111   .     S
C383   C384    1.542   .     S
C383   H391    1.108   .     S
C383   H392    1.109   .     S
C384   H390    1.112   .     S
C384   C385    1.527   .     S
C384   H389    1.109   .     S
C385   H388    1.110   .     S
C385   H386    1.111   .     S
C385   H387    1.110   .     S
C393   O426    1.295   .     A
C393   C403    1.403   .     S
C394   C395    1.399   .     A
C394   C900    1.411   .     S
C394   C916    1.411   .     S
C395   C402    1.414   .     A
C395   C399    1.409   .     A
C396   C400    1.395   .     A
C396   C898    1.411   1_554 S
C396   C901    1.419   1_554 S
C397   C398    1.382   .     A
C397   C408    1.397   .     A
C397   C900    1.419   .     S
C398   C399    1.377   .     A
C398   H416    1.076   .     S
C399   H421    1.074   .     S
C400   C409    1.402   .     A
C400   C439    1.525   .     S
C401   C409    1.400   .     A
C401   C912    1.386   1_554 S
C401   H469    1.081   .     S
C402   C410    1.401   .     A
C402   C404    1.479   .     S
C403   C13     1.336   1_565 S
C403   H86     1.088   1_565 S
C404   O428    1.297   .     A
C405   C406    1.403   .     S
C406   O429    1.295   .     A
C406   O486    1.286   .     S
C407   O431    1.305   .     A
C407   C409    1.453   .     S
C407   O488    1.300   .     S
C408   H417    1.083   .     S
C408   C905    1.386   .     S
C410   C915    1.398   .     S
C411   H420    1.082   .     S
C411   C412    1.398   .     A
C411   C914    1.398   1_554 S
C412   H419    1.081   .     S
C412   C898    1.411   1_554 S
H414   C69     1.088   1_565 S
H415   N424    1.028   .     S
H418   C466    1.080   .     S
N423   C435    1.435   .     S
N423   Zn434   2.038   .     S
N423   N424    1.276   .     D
N424   Zn433   2.038   .     S
O425   Zn433   1.959   .     S
O425   C449    1.286   .     S
O426   Zn434   1.978   .     S
O427   Zn433   1.975   .     S
O427   C460    1.319   .     S
O428   Zn434   1.973   .     S
O429   Zn433   1.978   .     S
O430   Zn434   1.959   .     S
O431   Zn433   1.973   .     S
O432   Zn434   1.975   .     S
C435   H437    1.091   .     S
C435   H436    1.107   .     S
C435   H438    1.111   .     S
C439   C440    1.542   .     S
C439   H447    1.108   .     S
C439   H448    1.109   .     S
C440   H446    1.112   .     S
C440   C441    1.527   .     S
C440   H445    1.109   .     S
C441   H444    1.110   .     S
C441   H442    1.111   .     S
C441   H443    1.110   .     S
C449   O482    1.295   .     A
C449   C459    1.403   .     S
C450   C451    1.399   .     A
C450   C956    1.411   .     S
C450   C972    1.411   .     S
C451   C458    1.414   .     A
C451   C455    1.409   .     A
C452   C456    1.395   .     A
C452   C954    1.411   1_554 S
C452   C957    1.419   1_554 S
C453   C454    1.382   .     A
C453   C464    1.397   .     A
C453   C956    1.419   .     S
C454   C455    1.377   .     A
C454   H472    1.076   .     S
C455   H477    1.074   .     S
C456   C465    1.402   .     A
C456   C495    1.525   .     S
C457   C465    1.400   .     A
C457   C968    1.386   1_554 S
C457   H357    1.081   1_655 S
C458   C466    1.401   .     A
C458   C460    1.479   .     S
C459   C69     1.336   1_565 S
C459   H142    1.088   1_565 S
C460   O484    1.297   .     A
C461   C462    1.403   .     S
C461   C179    1.336   1_655 S
C462   O485    1.295   .     A
C462   O374    1.286   1_655 S
C463   O487    1.305   .     A
C463   C465    1.453   .     S
C463   O376    1.300   1_655 S
C464   H473    1.083   .     S
C464   C961    1.386   .     S
C466   C971    1.398   .     S
C467   H476    1.082   .     S
C467   C468    1.398   .     A
C467   C970    1.398   1_554 S
C468   H475    1.081   .     S
C468   C954    1.411   1_554 S
H470   C125    1.088   1_565 S
H471   N480    1.028   .     S
H474   C354    1.080   1_655 S
N479   C491    1.435   .     S
N479   Zn490   2.038   .     S
N479   N480    1.276   .     D
N480   Zn489   2.038   .     S
O481   Zn489   1.959   .     S
O481   C337    1.286   1_655 S
O482   Zn490   1.978   .     S
O483   Zn489   1.975   .     S
O483   C348    1.319   1_655 S
O484   Zn490   1.973   .     S
O485   Zn489   1.978   .     S
O486   Zn490   1.959   .     S
O487   Zn489   1.973   .     S
O488   Zn490   1.975   .     S
C491   H493    1.091   .     S
C491   H492    1.107   .     S
C491   H494    1.111   .     S
C495   C496    1.542   .     S
C495   H503    1.108   .     S
C495   H504    1.109   .     S
C496   H502    1.112   .     S
C496   C497    1.527   .     S
C496   H501    1.109   .     S
C497   H500    1.110   .     S
C497   H498    1.111   .     S
C497   H499    1.110   .     S
C505   O538    1.295   .     A
C505   C515    1.403   .     S
C505   O649    1.286   1_455 S
C506   C507    1.399   .     A
C506   C4      1.411   1_556 S
C506   C20     1.411   1_556 S
C507   C514    1.414   .     A
C507   C511    1.409   .     A
C508   C512    1.395   .     A
C509   C510    1.382   .     A
C509   C520    1.397   .     A
C509   C4      1.419   1_556 S
C510   C511    1.377   .     A
C510   H528    1.076   .     S
C511   H533    1.074   .     S
C512   C521    1.402   .     A
C512   C551    1.525   .     S
C513   C521    1.400   .     A
C513   H581    1.081   .     S
C514   C522    1.401   .     A
C514   C516    1.479   .     S
C515   C797    1.336   1_455 S
C515   H702    1.088   .     S
C516   O540    1.297   .     A
C516   O651    1.319   1_455 S
C517   C518    1.403   .     S
C517   C907    1.336   1_545 S
C517   H862    1.088   1_545 S
C518   O541    1.295   .     A
C518   O598    1.286   .     S
C519   O543    1.305   .     A
C519   C521    1.453   .     S
C519   O600    1.300   .     S
C520   H529    1.083   .     S
C520   C9      1.386   1_556 S
C522   C19     1.398   1_556 S
C522   H642    1.080   1_455 S
C523   H532    1.082   .     S
C523   C524    1.398   .     A
C524   H531    1.081   .     S
H525   C625    1.081   1_455 S
H526   C685    1.088   .     S
H527   N536    1.028   .     S
H530   C578    1.080   .     S
H534   C851    1.088   1_545 S
N535   C547    1.435   .     S
N535   Zn546   2.038   .     S
N535   N536    1.276   .     D
N536   Zn545   2.038   .     S
O537   Zn545   1.959   .     S
O537   C561    1.286   .     S
O538   Zn546   1.978   .     S
O539   Zn545   1.975   .     S
O539   C572    1.319   .     S
O540   Zn546   1.973   .     S
O541   Zn545   1.978   .     S
O542   Zn546   1.959   .     S
O542   C630    1.286   1_455 S
O543   Zn545   1.973   .     S
O544   Zn546   1.975   .     S
O544   C631    1.300   1_455 S
C547   H549    1.091   .     S
C547   H548    1.107   .     S
C547   H550    1.111   .     S
C551   C552    1.542   .     S
C551   H559    1.108   .     S
C551   H560    1.109   .     S
C552   H558    1.112   .     S
C552   C553    1.527   .     S
C552   H557    1.109   .     S
C553   H556    1.110   .     S
C553   H554    1.111   .     S
C553   H555    1.110   .     S
C561   O594    1.295   .     A
C561   C571    1.403   .     S
C562   C563    1.399   .     A
C562   C60     1.411   1_556 S
C562   C76     1.411   1_556 S
C563   C570    1.414   .     A
C563   C567    1.409   .     A
C564   C568    1.395   .     A
C565   C566    1.382   .     A
C565   C576    1.397   .     A
C565   C60     1.419   1_556 S
C566   C567    1.377   .     A
C566   H584    1.076   .     S
C567   H589    1.074   .     S
C568   C577    1.402   .     A
C568   C607    1.525   .     S
C569   C577    1.400   .     A
C569   H637    1.081   .     S
C570   C578    1.401   .     A
C570   C572    1.479   .     S
C571   C685    1.336   .     S
C571   H758    1.088   .     S
C572   O596    1.297   .     A
C573   C574    1.403   .     S
C573   C963    1.336   1_545 S
C573   H918    1.088   1_545 S
C574   O597    1.295   .     A
C574   O654    1.286   .     S
C575   O599    1.305   .     A
C575   C577    1.453   .     S
C575   O656    1.300   .     S
C576   H585    1.083   .     S
C576   C65     1.386   1_556 S
C578   C75     1.398   1_556 S
C579   H588    1.082   .     S
C579   C580    1.398   .     A
C580   H587    1.081   .     S
H582   C741    1.088   .     S
H583   N592    1.028   .     S
H586   C634    1.080   .     S
H590   C907    1.088   1_545 S
N591   C603    1.435   .     S
N591   Zn602   2.038   .     S
N591   N592    1.276   .     D
N592   Zn601   2.038   .     S
O593   Zn601   1.959   .     S
O593   C617    1.286   .     S
O594   Zn602   1.978   .     S
O595   Zn601   1.975   .     S
O595   C628    1.319   .     S
O596   Zn602   1.973   .     S
O597   Zn601   1.978   .     S
O598   Zn602   1.959   .     S
O599   Zn601   1.973   .     S
O600   Zn602   1.975   .     S
C603   H605    1.091   .     S
C603   H604    1.107   .     S
C603   H606    1.111   .     S
C607   C608    1.542   .     S
C607   H615    1.108   .     S
C607   H616    1.109   .     S
C608   H614    1.112   .     S
C608   C609    1.527   .     S
C608   H613    1.109   .     S
C609   H612    1.110   .     S
C609   H610    1.111   .     S
C609   H611    1.110   .     S
C617   O650    1.295   .     A
C617   C627    1.403   .     S
C618   C619    1.399   .     A
C618   C116    1.411   1_556 S
C618   C132    1.411   1_556 S
C619   C626    1.414   .     A
C619   C623    1.409   .     A
C620   C624    1.395   .     A
C621   C622    1.382   .     A
C621   C632    1.397   .     A
C621   C116    1.419   1_556 S
C622   C623    1.377   .     A
C622   H640    1.076   .     S
C623   H645    1.074   .     S
C624   C633    1.402   .     A
C624   C663    1.525   .     S
C625   C633    1.400   .     A
C625   H525    1.081   1_655 S
C626   C634    1.401   .     A
C626   C628    1.479   .     S
C627   C741    1.336   .     S
C627   H814    1.088   .     S
C628   O652    1.297   .     A
C629   C630    1.403   .     S
C629   C851    1.336   1_645 S
C629   H974    1.088   1_545 S
C630   O653    1.295   .     A
C630   O542    1.286   1_655 S
C631   O655    1.305   .     A
C631   C633    1.453   .     S
C631   O544    1.300   1_655 S
C632   H641    1.083   .     S
C632   C121    1.386   1_556 S
C634   C131    1.398   1_556 S
C635   H644    1.082   .     S
C635   C636    1.398   .     A
C636   H643    1.081   .     S
H638   C797    1.088   .     S
H639   N648    1.028   .     S
H642   C522    1.080   1_655 S
H646   C963    1.088   1_545 S
N647   C659    1.435   .     S
N647   Zn658   2.038   .     S
N647   N648    1.276   .     D
N648   Zn657   2.038   .     S
O649   Zn657   1.959   .     S
O649   C505    1.286   1_655 S
O650   Zn658   1.978   .     S
O651   Zn657   1.975   .     S
O651   C516    1.319   1_655 S
O652   Zn658   1.973   .     S
O653   Zn657   1.978   .     S
O654   Zn658   1.959   .     S
O655   Zn657   1.973   .     S
O656   Zn658   1.975   .     S
C659   H661    1.091   .     S
C659   H660    1.107   .     S
C659   H662    1.111   .     S
C663   C664    1.542   .     S
C663   H671    1.108   .     S
C663   H672    1.109   .     S
C664   H670    1.112   .     S
C664   C665    1.527   .     S
C664   H669    1.109   .     S
C665   H668    1.110   .     S
C665   H666    1.111   .     S
C665   H667    1.110   .     S
C673   O706    1.295   .     A
C673   C683    1.403   .     S
C673   O817    1.286   1_455 S
C674   C675    1.399   .     A
C674   C172    1.411   1_556 S
C674   C188    1.411   1_556 S
C675   C682    1.414   .     A
C675   C679    1.409   .     A
C676   C680    1.395   .     A
C677   C678    1.382   .     A
C677   C688    1.397   .     A
C677   C172    1.419   1_556 S
C678   C679    1.377   .     A
C678   H696    1.076   .     S
C679   H701    1.074   .     S
C680   C689    1.402   .     A
C680   C719    1.525   .     S
C681   C689    1.400   .     A
C681   H749    1.081   .     S
C682   C690    1.401   .     A
C682   C684    1.479   .     S
C683   C965    1.336   1_455 S
C683   H870    1.088   .     S
C684   O708    1.297   .     A
C684   O819    1.319   1_455 S
C685   C686    1.403   .     S
C686   O709    1.295   .     A
C686   O766    1.286   .     S
C687   O711    1.305   .     A
C687   C689    1.453   .     S
C687   O768    1.300   .     S
C688   H697    1.083   .     S
C688   C177    1.386   1_556 S
C690   C187    1.398   1_556 S
C690   H810    1.080   1_455 S
C691   H700    1.082   .     S
C691   C692    1.398   .     A
C692   H699    1.081   .     S
H693   C793    1.081   1_455 S
H694   C853    1.088   .     S
H695   N704    1.028   .     S
H698   C746    1.080   .     S
N703   C715    1.435   .     S
N703   Zn714   2.038   .     S
N703   N704    1.276   .     D
N704   Zn713   2.038   .     S
O705   Zn713   1.959   .     S
O705   C729    1.286   .     S
O706   Zn714   1.978   .     S
O707   Zn713   1.975   .     S
O707   C740    1.319   .     S
O708   Zn714   1.973   .     S
O709   Zn713   1.978   .     S
O710   Zn714   1.959   .     S
O710   C798    1.286   1_455 S
O711   Zn713   1.973   .     S
O712   Zn714   1.975   .     S
O712   C799    1.300   1_455 S
C715   H717    1.091   .     S
C715   H716    1.107   .     S
C715   H718    1.111   .     S
C719   C720    1.542   .     S
C719   H727    1.108   .     S
C719   H728    1.109   .     S
C720   H726    1.112   .     S
C720   C721    1.527   .     S
C720   H725    1.109   .     S
C721   H724    1.110   .     S
C721   H722    1.111   .     S
C721   H723    1.110   .     S
C729   O762    1.295   .     A
C729   C739    1.403   .     S
C730   C731    1.399   .     A
C730   C228    1.411   1_556 S
C730   C244    1.411   1_556 S
C731   C738    1.414   .     A
C731   C735    1.409   .     A
C732   C736    1.395   .     A
C733   C734    1.382   .     A
C733   C744    1.397   .     A
C733   C228    1.419   1_556 S
C734   C735    1.377   .     A
C734   H752    1.076   .     S
C735   H757    1.074   .     S
C736   C745    1.402   .     A
C736   C775    1.525   .     S
C737   C745    1.400   .     A
C737   H805    1.081   .     S
C738   C746    1.401   .     A
C738   C740    1.479   .     S
C739   C853    1.336   .     S
C739   H926    1.088   .     S
C740   O764    1.297   .     A
C741   C742    1.403   .     S
C742   O765    1.295   .     A
C742   O822    1.286   .     S
C743   O767    1.305   .     A
C743   C745    1.453   .     S
C743   O824    1.300   .     S
C744   H753    1.083   .     S
C744   C233    1.386   1_556 S
C746   C243    1.398   1_556 S
C747   H756    1.082   .     S
C747   C748    1.398   .     A
C748   H755    1.081   .     S
H750   C909    1.088   .     S
H751   N760    1.028   .     S
H754   C802    1.080   .     S
N759   C771    1.435   .     S
N759   Zn770   2.038   .     S
N759   N760    1.276   .     D
N760   Zn769   2.038   .     S
O761   Zn769   1.959   .     S
O761   C785    1.286   .     S
O762   Zn770   1.978   .     S
O763   Zn769   1.975   .     S
O763   C796    1.319   .     S
O764   Zn770   1.973   .     S
O765   Zn769   1.978   .     S
O766   Zn770   1.959   .     S
O767   Zn769   1.973   .     S
O768   Zn770   1.975   .     S
C771   H773    1.091   .     S
C771   H772    1.107   .     S
C771   H774    1.111   .     S
C775   C776    1.542   .     S
C775   H783    1.108   .     S
C775   H784    1.109   .     S
C776   H782    1.112   .     S
C776   C777    1.527   .     S
C776   H781    1.109   .     S
C777   H780    1.110   .     S
C777   H778    1.111   .     S
C777   H779    1.110   .     S
C785   O818    1.295   .     A
C785   C795    1.403   .     S
C786   C787    1.399   .     A
C786   C284    1.411   1_556 S
C786   C300    1.411   1_556 S
C787   C794    1.414   .     A
C787   C791    1.409   .     A
C788   C792    1.395   .     A
C789   C790    1.382   .     A
C789   C800    1.397   .     A
C789   C284    1.419   1_556 S
C790   C791    1.377   .     A
C790   H808    1.076   .     S
C791   H813    1.074   .     S
C792   C801    1.402   .     A
C792   C831    1.525   .     S
C793   C801    1.400   .     A
C793   H693    1.081   1_655 S
C794   C802    1.401   .     A
C794   C796    1.479   .     S
C795   C909    1.336   .     S
C795   H982    1.088   .     S
C796   O820    1.297   .     A
C797   C798    1.403   .     S
C797   C515    1.336   1_655 S
C798   O821    1.295   .     A
C798   O710    1.286   1_655 S
C799   O823    1.305   .     A
C799   C801    1.453   .     S
C799   O712    1.300   1_655 S
C800   H809    1.083   .     S
C800   C289    1.386   1_556 S
C802   C299    1.398   1_556 S
C803   H812    1.082   .     S
C803   C804    1.398   .     A
C804   H811    1.081   .     S
H806   C965    1.088   .     S
H807   N816    1.028   .     S
H810   C690    1.080   1_655 S
N815   C827    1.435   .     S
N815   Zn826   2.038   .     S
N815   N816    1.276   .     D
N816   Zn825   2.038   .     S
O817   Zn825   1.959   .     S
O817   C673    1.286   1_655 S
O818   Zn826   1.978   .     S
O819   Zn825   1.975   .     S
O819   C684    1.319   1_655 S
O820   Zn826   1.973   .     S
O821   Zn825   1.978   .     S
O822   Zn826   1.959   .     S
O823   Zn825   1.973   .     S
O824   Zn826   1.975   .     S
C827   H829    1.091   .     S
C827   H828    1.107   .     S
C827   H830    1.111   .     S
C831   C832    1.542   .     S
C831   H839    1.108   .     S
C831   H840    1.109   .     S
C832   H838    1.112   .     S
C832   C833    1.527   .     S
C832   H837    1.109   .     S
C833   H836    1.110   .     S
C833   H834    1.111   .     S
C833   H835    1.110   .     S
C841   O874    1.295   .     A
C841   C851    1.403   .     S
C841   O985    1.286   1_455 S
C842   C843    1.399   .     A
C842   C340    1.411   1_556 S
C842   C356    1.411   1_556 S
C843   C850    1.414   .     A
C843   C847    1.409   .     A
C844   C848    1.395   .     A
C845   C846    1.382   .     A
C845   C856    1.397   .     A
C845   C340    1.419   1_556 S
C846   C847    1.377   .     A
C846   H864    1.076   .     S
C847   H869    1.074   .     S
C848   C857    1.402   .     A
C848   C887    1.525   .     S
C849   C857    1.400   .     A
C849   H917    1.081   .     S
C850   C858    1.401   .     A
C850   C852    1.479   .     S
C851   C629    1.336   1_465 S
C851   H534    1.088   1_565 S
C852   O876    1.297   .     A
C852   O987    1.319   1_455 S
C853   C854    1.403   .     S
C854   O877    1.295   .     A
C854   O934    1.286   .     S
C855   O879    1.305   .     A
C855   C857    1.453   .     S
C855   O936    1.300   .     S
C856   H865    1.083   .     S
C856   C345    1.386   1_556 S
C858   C355    1.398   1_556 S
C858   H978    1.080   1_455 S
C859   H868    1.082   .     S
C859   C860    1.398   .     A
C860   H867    1.081   .     S
H861   C961    1.081   1_455 S
H862   C517    1.088   1_565 S
H863   N872    1.028   .     S
H866   C914    1.080   .     S
N871   C883    1.435   .     S
N871   Zn882   2.038   .     S
N871   N872    1.276   .     D
N872   Zn881   2.038   .     S
O873   Zn881   1.959   .     S
O873   C897    1.286   .     S
O874   Zn882   1.978   .     S
O875   Zn881   1.975   .     S
O875   C908    1.319   .     S
O876   Zn882   1.973   .     S
O877   Zn881   1.978   .     S
O878   Zn882   1.959   .     S
O878   C966    1.286   1_455 S
O879   Zn881   1.973   .     S
O880   Zn882   1.975   .     S
O880   C967    1.300   1_455 S
C883   H885    1.091   .     S
C883   H884    1.107   .     S
C883   H886    1.111   .     S
C887   C888    1.542   .     S
C887   H895    1.108   .     S
C887   H896    1.109   .     S
C888   H894    1.112   .     S
C888   C889    1.527   .     S
C888   H893    1.109   .     S
C889   H892    1.110   .     S
C889   H890    1.111   .     S
C889   H891    1.110   .     S
C897   O930    1.295   .     A
C897   C907    1.403   .     S
C898   C899    1.399   .     A
C898   C396    1.411   1_556 S
C898   C412    1.411   1_556 S
C899   C906    1.414   .     A
C899   C903    1.409   .     A
C900   C904    1.395   .     A
C901   C902    1.382   .     A
C901   C912    1.397   .     A
C901   C396    1.419   1_556 S
C902   C903    1.377   .     A
C902   H920    1.076   .     S
C903   H925    1.074   .     S
C904   C913    1.402   .     A
C904   C943    1.525   .     S
C905   C913    1.400   .     A
C905   H973    1.081   .     S
C906   C914    1.401   .     A
C906   C908    1.479   .     S
C907   C517    1.336   1_565 S
C907   H590    1.088   1_565 S
C908   O932    1.297   .     A
C909   C910    1.403   .     S
C910   O933    1.295   .     A
C910   O990    1.286   .     S
C911   O935    1.305   .     A
C911   C913    1.453   .     S
C911   O992    1.300   .     S
C912   H921    1.083   .     S
C912   C401    1.386   1_556 S
C914   C411    1.398   1_556 S
C915   H924    1.082   .     S
C915   C916    1.398   .     A
C916   H923    1.081   .     S
H918   C573    1.088   1_565 S
H919   N928    1.028   .     S
H922   C970    1.080   .     S
N927   C939    1.435   .     S
N927   Zn938   2.038   .     S
N927   N928    1.276   .     D
N928   Zn937   2.038   .     S
O929   Zn937   1.959   .     S
O929   C953    1.286   .     S
O930   Zn938   1.978   .     S
O931   Zn937   1.975   .     S
O931   C964    1.319   .     S
O932   Zn938   1.973   .     S
O933   Zn937   1.978   .     S
O934   Zn938   1.959   .     S
O935   Zn937   1.973   .     S
O936   Zn938   1.975   .     S
C939   H941    1.091   .     S
C939   H940    1.107   .     S
C939   H942    1.111   .     S
C943   C944    1.542   .     S
C943   H951    1.108   .     S
C943   H952    1.109   .     S
C944   H950    1.112   .     S
C944   C945    1.527   .     S
C944   H949    1.109   .     S
C945   H948    1.110   .     S
C945   H946    1.111   .     S
C945   H947    1.110   .     S
C953   O986    1.295   .     A
C953   C963    1.403   .     S
C954   C955    1.399   .     A
C954   C452    1.411   1_556 S
C954   C468    1.411   1_556 S
C955   C962    1.414   .     A
C955   C959    1.409   .     A
C956   C960    1.395   .     A
C957   C958    1.382   .     A
C957   C968    1.397   .     A
C957   C452    1.419   1_556 S
C958   C959    1.377   .     A
C958   H976    1.076   .     S
C959   H981    1.074   .     S
C960   C969    1.402   .     A
C960   C999    1.525   .     S
C961   C969    1.400   .     A
C961   H861    1.081   1_655 S
C962   C970    1.401   .     A
C962   C964    1.479   .     S
C963   C573    1.336   1_565 S
C963   H646    1.088   1_565 S
C964   O988    1.297   .     A
C965   C966    1.403   .     S
C965   C683    1.336   1_655 S
C966   O989    1.295   .     A
C966   O878    1.286   1_655 S
C967   O991    1.305   .     A
C967   C969    1.453   .     S
C967   O880    1.300   1_655 S
C968   H977    1.083   .     S
C968   C457    1.386   1_556 S
C970   C467    1.398   1_556 S
C971   H980    1.082   .     S
C971   C972    1.398   .     A
C972   H979    1.081   .     S
H974   C629    1.088   1_565 S
H975   N984    1.028   .     S
H978   C858    1.080   1_655 S
N983   C995    1.435   .     S
N983   Zn994   2.038   .     S
N983   N984    1.276   .     D
N984   Zn993   2.038   .     S
O985   Zn993   1.959   .     S
O985   C841    1.286   1_655 S
O986   Zn994   1.978   .     S
O987   Zn993   1.975   .     S
O987   C852    1.319   1_655 S
O988   Zn994   1.973   .     S
O989   Zn993   1.978   .     S
O990   Zn994   1.959   .     S
O991   Zn993   1.973   .     S
O992   Zn994   1.975   .     S
C995   H997    1.091   .     S
C995   H996    1.107   .     S
C995   H998    1.111   .     S
C999   C1000   1.542   .     S
C999   H1007   1.108   .     S
C999   H1008   1.109   .     S
C1000  H1006   1.112   .     S
C1000  C1001   1.527   .     S
C1000  H1005   1.109   .     S
C1001  H1004   1.110   .     S
C1001  H1002   1.111   .     S
C1001  H1003   1.110   .     S
