data_str_m3_o10_o17_pcu_sym.42
_audit_creation_date              2020-01-03
_audit_creation_method            'Materials Studio'
_symmetry_space_group_name_H-M    'P1'
_symmetry_Int_Tables_number       1
_symmetry_cell_setting            triclinic
loop_
_symmetry_equiv_pos_as_xyz
  x,y,z
_cell_length_a                    23.3169
_cell_length_b                    25.6399
_cell_length_c                    29.7451
_cell_angle_alpha                 91.1865
_cell_angle_beta                  85.8208
_cell_angle_gamma                 93.6219
loop_
_atom_site_label
_atom_site_type_symbol
_atom_site_fract_x
_atom_site_fract_y
_atom_site_fract_z
_atom_site_U_iso_or_equiv
_atom_site_adp_type
_atom_site_occupancy
C1     C     0.18191   0.26490   0.24884   0.00000  Uiso   1.00
C2     C     0.20102   0.20513   0.40541   0.00000  Uiso   1.00
C3     C     0.16473   0.16734   0.11604   0.00000  Uiso   1.00
C4     C     0.16861   0.16600   0.38396   0.00000  Uiso   1.00
C5     C     0.19777   0.20609   0.09235   0.00000  Uiso   1.00
C6     C     0.13556   0.12725   0.40765   0.00000  Uiso   1.00
C7     C     0.19810   0.20656   0.04588   0.00000  Uiso   1.00
C8     C     0.13523   0.12677   0.45412   0.00000  Uiso   1.00
C9     C     0.16612   0.16671   0.02341   0.00000  Uiso   1.00
C10    C     0.16721   0.16662   0.47659   0.00000  Uiso   1.00
C11    C     0.13339   0.12683   0.04785   0.00000  Uiso   1.00
C12    C     0.15142   0.06844   0.25116   0.00000  Uiso   1.00
C13    C     0.19995   0.20650   0.45215   0.00000  Uiso   1.00
C14    C     0.22982   0.24621   0.02176   0.00000  Uiso   1.00
C15    C     0.10352   0.08712   0.47824   0.00000  Uiso   1.00
C16    C     0.23447   0.33332   0.45663   0.00000  Uiso   1.00
C17    C     0.26601   0.04101   0.42615   0.00000  Uiso   1.00
C18    C     0.09886   0.00001   0.04337   0.00000  Uiso   1.00
C19    C     0.06732   0.29232   0.07385   0.00000  Uiso   1.00
C20    C     0.22996   0.24720   0.47485   0.00000  Uiso   1.00
C21    C     0.10337   0.08613   0.02515   0.00000  Uiso   1.00
C22    C     0.18996   0.31940   0.24817   0.00000  Uiso   1.00
C23    C     0.14337   0.01393   0.25183   0.00000  Uiso   1.00
C24    C     0.16736   0.16664   0.33641   0.00000  Uiso   1.00
C25    C     0.16598   0.16669   0.16359   0.00000  Uiso   1.00
C26    C     0.13231   0.12820   0.09459   0.00000  Uiso   1.00
H27    H     0.10779   0.09834   0.11448   0.00000  Uiso   1.00
H28    H     0.32877   0.20587   0.28406   0.00000  Uiso   1.00
H29    H     0.23523   0.01471   0.49206   0.00000  Uiso   1.00
H30    H     0.18896   0.32835   0.44727   0.00000  Uiso   1.00
H31    H     0.26421   0.02846   0.39029   0.00000  Uiso   1.00
H32    H     0.24559   0.07883   0.43120   0.00000  Uiso   1.00
H33    H     0.31173   0.04661   0.43427   0.00000  Uiso   1.00
H34    H     0.14437   0.00498   0.05273   0.00000  Uiso   1.00
H35    H     0.09809   0.31862   0.00794   0.00000  Uiso   1.00
H36    H     0.06914   0.30487   0.10971   0.00000  Uiso   1.00
H37    H     0.02160   0.28673   0.06573   0.00000  Uiso   1.00
H38    H     0.22554   0.23499   0.38552   0.00000  Uiso   1.00
H39    H     0.08775   0.25450   0.06880   0.00000  Uiso   1.00
H40    H     0.22253   0.23602   0.11028   0.00000  Uiso   1.00
H41    H     0.11080   0.09731   0.38972   0.00000  Uiso   1.00
H42    H     0.25439   0.27651   0.03929   0.00000  Uiso   1.00
H43    H     0.07894   0.05682   0.46071   0.00000  Uiso   1.00
H44    H     0.23397   0.00306   0.24468   0.00000  Uiso   1.00
H45    H     0.09936   0.33027   0.25532   0.00000  Uiso   1.00
H46    H     0.00456   0.12746   0.21594   0.00000  Uiso   1.00
N47    N     0.31678   0.15265   0.23783   0.00000  Uiso   1.00
N48    N     0.01656   0.18068   0.26217   0.00000  Uiso   1.00
O49    O     0.12975   0.24619   0.25299   0.00000  Uiso   1.00
O50    O     0.07108   0.04736   0.04907   0.00000  Uiso   1.00
O51    O     0.20358   0.08714   0.24702   0.00000  Uiso   1.00
O52    O     0.22613   0.23721   0.24519   0.00000  Uiso   1.00
O53    O     0.10720   0.09613   0.25481   0.00000  Uiso   1.00
O54    O     0.11847   0.17117   0.31997   0.00000  Uiso   1.00
O55    O     0.21486   0.16216   0.18003   0.00000  Uiso   1.00
O56    O     0.21485   0.16219   0.31218   0.00000  Uiso   1.00
O57    O     0.11848   0.17115   0.18783   0.00000  Uiso   1.00
O58    O     0.26226   0.28597   0.45094   0.00000  Uiso   1.00
Zn59   Zn    0.10231   0.17266   0.25521   0.00000  Uiso   1.00
Zn60   Zn    0.23102   0.16067   0.24479   0.00000  Uiso   1.00
C61    C     0.51524   0.26490   0.24884   0.00000  Uiso   1.00
C62    C     0.53436   0.20513   0.40541   0.00000  Uiso   1.00
C63    C     0.49806   0.16734   0.11604   0.00000  Uiso   1.00
C64    C     0.50194   0.16600   0.38396   0.00000  Uiso   1.00
C65    C     0.53111   0.20609   0.09235   0.00000  Uiso   1.00
C66    C     0.46889   0.12725   0.40765   0.00000  Uiso   1.00
C67    C     0.53143   0.20656   0.04588   0.00000  Uiso   1.00
C68    C     0.46857   0.12677   0.45412   0.00000  Uiso   1.00
C69    C     0.49946   0.16671   0.02341   0.00000  Uiso   1.00
C70    C     0.50054   0.16662   0.47659   0.00000  Uiso   1.00
C71    C     0.46672   0.12683   0.04785   0.00000  Uiso   1.00
C72    C     0.48476   0.06844   0.25116   0.00000  Uiso   1.00
C73    C     0.53328   0.20650   0.45215   0.00000  Uiso   1.00
C74    C     0.56315   0.24621   0.02176   0.00000  Uiso   1.00
C75    C     0.43685   0.08712   0.47824   0.00000  Uiso   1.00
C76    C     0.56780   0.33332   0.45663   0.00000  Uiso   1.00
C77    C     0.59934   0.04101   0.42615   0.00000  Uiso   1.00
C78    C     0.43220   0.00001   0.04337   0.00000  Uiso   1.00
C79    C     0.40066   0.29232   0.07385   0.00000  Uiso   1.00
C80    C     0.56330   0.24720   0.47485   0.00000  Uiso   1.00
C81    C     0.43671   0.08613   0.02515   0.00000  Uiso   1.00
C82    C     0.52330   0.31940   0.24817   0.00000  Uiso   1.00
C83    C     0.47671   0.01393   0.25183   0.00000  Uiso   1.00
C84    C     0.50069   0.16664   0.33641   0.00000  Uiso   1.00
C85    C     0.49931   0.16669   0.16359   0.00000  Uiso   1.00
C86    C     0.46564   0.12820   0.09459   0.00000  Uiso   1.00
H87    H     0.44113   0.09834   0.11448   0.00000  Uiso   1.00
H88    H     0.66210   0.20587   0.28406   0.00000  Uiso   1.00
H89    H     0.56857   0.01471   0.49206   0.00000  Uiso   1.00
H90    H     0.52230   0.32835   0.44727   0.00000  Uiso   1.00
H91    H     0.59754   0.02846   0.39029   0.00000  Uiso   1.00
H92    H     0.57892   0.07883   0.43120   0.00000  Uiso   1.00
H93    H     0.64507   0.04661   0.43427   0.00000  Uiso   1.00
H94    H     0.47770   0.00498   0.05273   0.00000  Uiso   1.00
H95    H     0.43143   0.31862   0.00794   0.00000  Uiso   1.00
H96    H     0.40247   0.30487   0.10971   0.00000  Uiso   1.00
H97    H     0.35493   0.28673   0.06573   0.00000  Uiso   1.00
H98    H     0.55887   0.23499   0.38552   0.00000  Uiso   1.00
H99    H     0.42108   0.25450   0.06880   0.00000  Uiso   1.00
H100   H     0.55586   0.23602   0.11028   0.00000  Uiso   1.00
H101   H     0.44414   0.09731   0.38972   0.00000  Uiso   1.00
H102   H     0.58773   0.27651   0.03929   0.00000  Uiso   1.00
H103   H     0.41227   0.05682   0.46071   0.00000  Uiso   1.00
H104   H     0.56731   0.00306   0.24468   0.00000  Uiso   1.00
H105   H     0.43269   0.33027   0.25532   0.00000  Uiso   1.00
H106   H     0.33790   0.12746   0.21594   0.00000  Uiso   1.00
N107   N     0.65011   0.15265   0.23783   0.00000  Uiso   1.00
N108   N     0.34989   0.18068   0.26217   0.00000  Uiso   1.00
O109   O     0.46308   0.24619   0.25299   0.00000  Uiso   1.00
O110   O     0.40441   0.04736   0.04907   0.00000  Uiso   1.00
O111   O     0.53692   0.08714   0.24702   0.00000  Uiso   1.00
O112   O     0.55946   0.23721   0.24519   0.00000  Uiso   1.00
O113   O     0.44054   0.09613   0.25481   0.00000  Uiso   1.00
O114   O     0.45181   0.17117   0.31997   0.00000  Uiso   1.00
O115   O     0.54819   0.16216   0.18003   0.00000  Uiso   1.00
O116   O     0.54819   0.16219   0.31218   0.00000  Uiso   1.00
O117   O     0.45181   0.17115   0.18783   0.00000  Uiso   1.00
O118   O     0.59559   0.28597   0.45094   0.00000  Uiso   1.00
Zn119  Zn    0.43565   0.17266   0.25521   0.00000  Uiso   1.00
Zn120  Zn    0.56435   0.16067   0.24479   0.00000  Uiso   1.00
C121   C     0.84858   0.26490   0.24884   0.00000  Uiso   1.00
C122   C     0.86769   0.20513   0.40541   0.00000  Uiso   1.00
C123   C     0.83139   0.16734   0.11604   0.00000  Uiso   1.00
C124   C     0.83527   0.16600   0.38396   0.00000  Uiso   1.00
C125   C     0.86444   0.20609   0.09235   0.00000  Uiso   1.00
C126   C     0.80223   0.12725   0.40765   0.00000  Uiso   1.00
C127   C     0.86477   0.20656   0.04588   0.00000  Uiso   1.00
C128   C     0.80190   0.12677   0.45412   0.00000  Uiso   1.00
C129   C     0.83279   0.16671   0.02341   0.00000  Uiso   1.00
C130   C     0.83388   0.16662   0.47659   0.00000  Uiso   1.00
C131   C     0.80005   0.12683   0.04785   0.00000  Uiso   1.00
C132   C     0.81809   0.06844   0.25116   0.00000  Uiso   1.00
C133   C     0.86661   0.20650   0.45215   0.00000  Uiso   1.00
C134   C     0.89648   0.24621   0.02176   0.00000  Uiso   1.00
C135   C     0.77018   0.08712   0.47824   0.00000  Uiso   1.00
C136   C     0.90114   0.33332   0.45663   0.00000  Uiso   1.00
C137   C     0.93268   0.04101   0.42615   0.00000  Uiso   1.00
C138   C     0.76553   0.00001   0.04337   0.00000  Uiso   1.00
C139   C     0.73399   0.29232   0.07385   0.00000  Uiso   1.00
C140   C     0.89663   0.24720   0.47485   0.00000  Uiso   1.00
C141   C     0.77004   0.08613   0.02515   0.00000  Uiso   1.00
C142   C     0.85663   0.31940   0.24817   0.00000  Uiso   1.00
C143   C     0.81004   0.01393   0.25183   0.00000  Uiso   1.00
C144   C     0.83402   0.16664   0.33641   0.00000  Uiso   1.00
C145   C     0.83264   0.16669   0.16359   0.00000  Uiso   1.00
C146   C     0.79898   0.12820   0.09459   0.00000  Uiso   1.00
H147   H     0.77446   0.09834   0.11448   0.00000  Uiso   1.00
H148   H     0.99544   0.20587   0.28406   0.00000  Uiso   1.00
H149   H     0.90190   0.01471   0.49206   0.00000  Uiso   1.00
H150   H     0.85563   0.32835   0.44727   0.00000  Uiso   1.00
H151   H     0.93087   0.02846   0.39029   0.00000  Uiso   1.00
H152   H     0.91225   0.07883   0.43120   0.00000  Uiso   1.00
H153   H     0.97840   0.04661   0.43427   0.00000  Uiso   1.00
H154   H     0.81104   0.00498   0.05273   0.00000  Uiso   1.00
H155   H     0.76476   0.31862   0.00794   0.00000  Uiso   1.00
H156   H     0.73580   0.30487   0.10971   0.00000  Uiso   1.00
H157   H     0.68827   0.28673   0.06573   0.00000  Uiso   1.00
H158   H     0.89221   0.23499   0.38552   0.00000  Uiso   1.00
H159   H     0.75441   0.25450   0.06880   0.00000  Uiso   1.00
H160   H     0.88920   0.23602   0.11028   0.00000  Uiso   1.00
H161   H     0.77747   0.09731   0.38972   0.00000  Uiso   1.00
H162   H     0.92106   0.27651   0.03929   0.00000  Uiso   1.00
H163   H     0.74561   0.05682   0.46071   0.00000  Uiso   1.00
H164   H     0.90064   0.00306   0.24468   0.00000  Uiso   1.00
H165   H     0.76603   0.33027   0.25532   0.00000  Uiso   1.00
H166   H     0.67123   0.12746   0.21594   0.00000  Uiso   1.00
N167   N     0.98344   0.15265   0.23783   0.00000  Uiso   1.00
N168   N     0.68322   0.18068   0.26217   0.00000  Uiso   1.00
O169   O     0.79642   0.24619   0.25299   0.00000  Uiso   1.00
O170   O     0.73774   0.04736   0.04907   0.00000  Uiso   1.00
O171   O     0.87025   0.08714   0.24702   0.00000  Uiso   1.00
O172   O     0.89280   0.23721   0.24519   0.00000  Uiso   1.00
O173   O     0.77387   0.09613   0.25481   0.00000  Uiso   1.00
O174   O     0.78514   0.17117   0.31997   0.00000  Uiso   1.00
O175   O     0.88153   0.16216   0.18003   0.00000  Uiso   1.00
O176   O     0.88152   0.16219   0.31218   0.00000  Uiso   1.00
O177   O     0.78515   0.17115   0.18783   0.00000  Uiso   1.00
O178   O     0.92892   0.28597   0.45094   0.00000  Uiso   1.00
Zn179  Zn    0.76898   0.17266   0.25521   0.00000  Uiso   1.00
Zn180  Zn    0.89769   0.16067   0.24479   0.00000  Uiso   1.00
C181   C     0.18191   0.59823   0.24884   0.00000  Uiso   1.00
C182   C     0.20102   0.53846   0.40541   0.00000  Uiso   1.00
C183   C     0.16473   0.50067   0.11604   0.00000  Uiso   1.00
C184   C     0.16861   0.49933   0.38396   0.00000  Uiso   1.00
C185   C     0.19777   0.53942   0.09235   0.00000  Uiso   1.00
C186   C     0.13556   0.46058   0.40765   0.00000  Uiso   1.00
C187   C     0.19810   0.53990   0.04588   0.00000  Uiso   1.00
C188   C     0.13523   0.46010   0.45412   0.00000  Uiso   1.00
C189   C     0.16612   0.50005   0.02341   0.00000  Uiso   1.00
C190   C     0.16721   0.49995   0.47659   0.00000  Uiso   1.00
C191   C     0.13339   0.46016   0.04785   0.00000  Uiso   1.00
C192   C     0.15142   0.40177   0.25116   0.00000  Uiso   1.00
C193   C     0.19995   0.53984   0.45215   0.00000  Uiso   1.00
C194   C     0.22982   0.57955   0.02176   0.00000  Uiso   1.00
C195   C     0.10352   0.42045   0.47824   0.00000  Uiso   1.00
C196   C     0.23447   0.66665   0.45663   0.00000  Uiso   1.00
C197   C     0.26601   0.37435   0.42615   0.00000  Uiso   1.00
C198   C     0.09886   0.33334   0.04337   0.00000  Uiso   1.00
C199   C     0.06732   0.62565   0.07385   0.00000  Uiso   1.00
C200   C     0.22996   0.58053   0.47485   0.00000  Uiso   1.00
C201   C     0.10337   0.41947   0.02515   0.00000  Uiso   1.00
C202   C     0.18996   0.65273   0.24817   0.00000  Uiso   1.00
C203   C     0.14337   0.34727   0.25183   0.00000  Uiso   1.00
C204   C     0.16736   0.49997   0.33641   0.00000  Uiso   1.00
C205   C     0.16598   0.50003   0.16359   0.00000  Uiso   1.00
C206   C     0.13231   0.46154   0.09459   0.00000  Uiso   1.00
H207   H     0.10779   0.43168   0.11448   0.00000  Uiso   1.00
H208   H     0.32877   0.53921   0.28406   0.00000  Uiso   1.00
H209   H     0.23523   0.34804   0.49206   0.00000  Uiso   1.00
H210   H     0.18896   0.66168   0.44727   0.00000  Uiso   1.00
H211   H     0.26421   0.36179   0.39029   0.00000  Uiso   1.00
H212   H     0.24559   0.41217   0.43120   0.00000  Uiso   1.00
H213   H     0.31173   0.37994   0.43427   0.00000  Uiso   1.00
H214   H     0.14437   0.33831   0.05273   0.00000  Uiso   1.00
H215   H     0.09809   0.65196   0.00794   0.00000  Uiso   1.00
H216   H     0.06914   0.63821   0.10971   0.00000  Uiso   1.00
H217   H     0.02160   0.62006   0.06573   0.00000  Uiso   1.00
H218   H     0.22554   0.56832   0.38552   0.00000  Uiso   1.00
H219   H     0.08775   0.58783   0.06880   0.00000  Uiso   1.00
H220   H     0.22253   0.56935   0.11028   0.00000  Uiso   1.00
H221   H     0.11080   0.43065   0.38972   0.00000  Uiso   1.00
H222   H     0.25439   0.60985   0.03929   0.00000  Uiso   1.00
H223   H     0.07894   0.39015   0.46071   0.00000  Uiso   1.00
H224   H     0.23397   0.33640   0.24468   0.00000  Uiso   1.00
H225   H     0.09936   0.66360   0.25532   0.00000  Uiso   1.00
H226   H     0.00456   0.46079   0.21594   0.00000  Uiso   1.00
N227   N     0.31678   0.48598   0.23783   0.00000  Uiso   1.00
N228   N     0.01656   0.51402   0.26217   0.00000  Uiso   1.00
O229   O     0.12975   0.57952   0.25299   0.00000  Uiso   1.00
O230   O     0.07108   0.38070   0.04907   0.00000  Uiso   1.00
O231   O     0.20358   0.42048   0.24702   0.00000  Uiso   1.00
O232   O     0.22613   0.57054   0.24519   0.00000  Uiso   1.00
O233   O     0.10720   0.42946   0.25481   0.00000  Uiso   1.00
O234   O     0.11847   0.50450   0.31997   0.00000  Uiso   1.00
O235   O     0.21486   0.49550   0.18003   0.00000  Uiso   1.00
O236   O     0.21485   0.49552   0.31218   0.00000  Uiso   1.00
O237   O     0.11848   0.50448   0.18783   0.00000  Uiso   1.00
O238   O     0.26226   0.61930   0.45094   0.00000  Uiso   1.00
Zn239  Zn    0.10231   0.50600   0.25521   0.00000  Uiso   1.00
Zn240  Zn    0.23102   0.49400   0.24479   0.00000  Uiso   1.00
C241   C     0.51524   0.59823   0.24884   0.00000  Uiso   1.00
C242   C     0.53436   0.53846   0.40541   0.00000  Uiso   1.00
C243   C     0.49806   0.50067   0.11604   0.00000  Uiso   1.00
C244   C     0.50194   0.49933   0.38396   0.00000  Uiso   1.00
C245   C     0.53111   0.53942   0.09235   0.00000  Uiso   1.00
C246   C     0.46889   0.46058   0.40765   0.00000  Uiso   1.00
C247   C     0.53143   0.53990   0.04588   0.00000  Uiso   1.00
C248   C     0.46857   0.46010   0.45412   0.00000  Uiso   1.00
C249   C     0.49946   0.50005   0.02341   0.00000  Uiso   1.00
C250   C     0.50054   0.49995   0.47659   0.00000  Uiso   1.00
C251   C     0.46672   0.46016   0.04785   0.00000  Uiso   1.00
C252   C     0.48476   0.40177   0.25116   0.00000  Uiso   1.00
C253   C     0.53328   0.53984   0.45215   0.00000  Uiso   1.00
C254   C     0.56315   0.57955   0.02176   0.00000  Uiso   1.00
C255   C     0.43685   0.42045   0.47824   0.00000  Uiso   1.00
C256   C     0.56780   0.66665   0.45663   0.00000  Uiso   1.00
C257   C     0.59934   0.37435   0.42615   0.00000  Uiso   1.00
C258   C     0.43220   0.33334   0.04337   0.00000  Uiso   1.00
C259   C     0.40066   0.62565   0.07385   0.00000  Uiso   1.00
C260   C     0.56330   0.58053   0.47485   0.00000  Uiso   1.00
C261   C     0.43671   0.41947   0.02515   0.00000  Uiso   1.00
C262   C     0.52330   0.65273   0.24817   0.00000  Uiso   1.00
C263   C     0.47671   0.34727   0.25183   0.00000  Uiso   1.00
C264   C     0.50069   0.49997   0.33641   0.00000  Uiso   1.00
C265   C     0.49931   0.50003   0.16359   0.00000  Uiso   1.00
C266   C     0.46564   0.46154   0.09459   0.00000  Uiso   1.00
H267   H     0.44113   0.43168   0.11448   0.00000  Uiso   1.00
H268   H     0.66210   0.53921   0.28406   0.00000  Uiso   1.00
H269   H     0.56857   0.34804   0.49206   0.00000  Uiso   1.00
H270   H     0.52230   0.66168   0.44727   0.00000  Uiso   1.00
H271   H     0.59754   0.36179   0.39029   0.00000  Uiso   1.00
H272   H     0.57892   0.41217   0.43120   0.00000  Uiso   1.00
H273   H     0.64507   0.37994   0.43427   0.00000  Uiso   1.00
H274   H     0.47770   0.33831   0.05273   0.00000  Uiso   1.00
H275   H     0.43143   0.65196   0.00794   0.00000  Uiso   1.00
H276   H     0.40247   0.63821   0.10971   0.00000  Uiso   1.00
H277   H     0.35493   0.62006   0.06573   0.00000  Uiso   1.00
H278   H     0.55887   0.56832   0.38552   0.00000  Uiso   1.00
H279   H     0.42108   0.58783   0.06880   0.00000  Uiso   1.00
H280   H     0.55586   0.56935   0.11028   0.00000  Uiso   1.00
H281   H     0.44414   0.43065   0.38972   0.00000  Uiso   1.00
H282   H     0.58773   0.60985   0.03929   0.00000  Uiso   1.00
H283   H     0.41227   0.39015   0.46071   0.00000  Uiso   1.00
H284   H     0.56731   0.33640   0.24468   0.00000  Uiso   1.00
H285   H     0.43269   0.66360   0.25532   0.00000  Uiso   1.00
H286   H     0.33790   0.46079   0.21594   0.00000  Uiso   1.00
N287   N     0.65011   0.48598   0.23783   0.00000  Uiso   1.00
N288   N     0.34989   0.51402   0.26217   0.00000  Uiso   1.00
O289   O     0.46308   0.57952   0.25299   0.00000  Uiso   1.00
O290   O     0.40441   0.38070   0.04907   0.00000  Uiso   1.00
O291   O     0.53692   0.42048   0.24702   0.00000  Uiso   1.00
O292   O     0.55946   0.57054   0.24519   0.00000  Uiso   1.00
O293   O     0.44054   0.42946   0.25481   0.00000  Uiso   1.00
O294   O     0.45181   0.50450   0.31997   0.00000  Uiso   1.00
O295   O     0.54819   0.49550   0.18003   0.00000  Uiso   1.00
O296   O     0.54819   0.49552   0.31218   0.00000  Uiso   1.00
O297   O     0.45181   0.50448   0.18783   0.00000  Uiso   1.00
O298   O     0.59559   0.61930   0.45094   0.00000  Uiso   1.00
Zn299  Zn    0.43565   0.50600   0.25521   0.00000  Uiso   1.00
Zn300  Zn    0.56435   0.49400   0.24479   0.00000  Uiso   1.00
C301   C     0.84858   0.59823   0.24884   0.00000  Uiso   1.00
C302   C     0.86769   0.53846   0.40541   0.00000  Uiso   1.00
C303   C     0.83139   0.50067   0.11604   0.00000  Uiso   1.00
C304   C     0.83527   0.49933   0.38396   0.00000  Uiso   1.00
C305   C     0.86444   0.53942   0.09235   0.00000  Uiso   1.00
C306   C     0.80223   0.46058   0.40765   0.00000  Uiso   1.00
C307   C     0.86477   0.53990   0.04588   0.00000  Uiso   1.00
C308   C     0.80190   0.46010   0.45412   0.00000  Uiso   1.00
C309   C     0.83279   0.50005   0.02341   0.00000  Uiso   1.00
C310   C     0.83388   0.49995   0.47659   0.00000  Uiso   1.00
C311   C     0.80005   0.46016   0.04785   0.00000  Uiso   1.00
C312   C     0.81809   0.40177   0.25116   0.00000  Uiso   1.00
C313   C     0.86661   0.53984   0.45215   0.00000  Uiso   1.00
C314   C     0.89648   0.57955   0.02176   0.00000  Uiso   1.00
C315   C     0.77018   0.42045   0.47824   0.00000  Uiso   1.00
C316   C     0.90114   0.66665   0.45663   0.00000  Uiso   1.00
C317   C     0.93268   0.37435   0.42615   0.00000  Uiso   1.00
C318   C     0.76553   0.33334   0.04337   0.00000  Uiso   1.00
C319   C     0.73399   0.62565   0.07385   0.00000  Uiso   1.00
C320   C     0.89663   0.58053   0.47485   0.00000  Uiso   1.00
C321   C     0.77004   0.41947   0.02515   0.00000  Uiso   1.00
C322   C     0.85663   0.65273   0.24817   0.00000  Uiso   1.00
C323   C     0.81004   0.34727   0.25183   0.00000  Uiso   1.00
C324   C     0.83402   0.49997   0.33641   0.00000  Uiso   1.00
C325   C     0.83264   0.50003   0.16359   0.00000  Uiso   1.00
C326   C     0.79898   0.46154   0.09459   0.00000  Uiso   1.00
H327   H     0.77446   0.43168   0.11448   0.00000  Uiso   1.00
H328   H     0.99544   0.53921   0.28406   0.00000  Uiso   1.00
H329   H     0.90190   0.34804   0.49206   0.00000  Uiso   1.00
H330   H     0.85563   0.66168   0.44727   0.00000  Uiso   1.00
H331   H     0.93087   0.36179   0.39029   0.00000  Uiso   1.00
H332   H     0.91225   0.41217   0.43120   0.00000  Uiso   1.00
H333   H     0.97840   0.37994   0.43427   0.00000  Uiso   1.00
H334   H     0.81104   0.33831   0.05273   0.00000  Uiso   1.00
H335   H     0.76476   0.65196   0.00794   0.00000  Uiso   1.00
H336   H     0.73580   0.63821   0.10971   0.00000  Uiso   1.00
H337   H     0.68827   0.62006   0.06573   0.00000  Uiso   1.00
H338   H     0.89221   0.56832   0.38552   0.00000  Uiso   1.00
H339   H     0.75441   0.58783   0.06880   0.00000  Uiso   1.00
H340   H     0.88920   0.56935   0.11028   0.00000  Uiso   1.00
H341   H     0.77747   0.43065   0.38972   0.00000  Uiso   1.00
H342   H     0.92106   0.60985   0.03929   0.00000  Uiso   1.00
H343   H     0.74561   0.39015   0.46071   0.00000  Uiso   1.00
H344   H     0.90064   0.33640   0.24468   0.00000  Uiso   1.00
H345   H     0.76603   0.66360   0.25532   0.00000  Uiso   1.00
H346   H     0.67123   0.46079   0.21594   0.00000  Uiso   1.00
N347   N     0.98344   0.48598   0.23783   0.00000  Uiso   1.00
N348   N     0.68322   0.51402   0.26217   0.00000  Uiso   1.00
O349   O     0.79642   0.57952   0.25299   0.00000  Uiso   1.00
O350   O     0.73774   0.38070   0.04907   0.00000  Uiso   1.00
O351   O     0.87025   0.42048   0.24702   0.00000  Uiso   1.00
O352   O     0.89280   0.57054   0.24519   0.00000  Uiso   1.00
O353   O     0.77387   0.42946   0.25481   0.00000  Uiso   1.00
O354   O     0.78514   0.50450   0.31997   0.00000  Uiso   1.00
O355   O     0.88153   0.49550   0.18003   0.00000  Uiso   1.00
O356   O     0.88152   0.49552   0.31218   0.00000  Uiso   1.00
O357   O     0.78515   0.50448   0.18783   0.00000  Uiso   1.00
O358   O     0.92892   0.61930   0.45094   0.00000  Uiso   1.00
Zn359  Zn    0.76898   0.50600   0.25521   0.00000  Uiso   1.00
Zn360  Zn    0.89769   0.49400   0.24479   0.00000  Uiso   1.00
C361   C     0.18191   0.93156   0.24884   0.00000  Uiso   1.00
C362   C     0.20102   0.87180   0.40541   0.00000  Uiso   1.00
C363   C     0.16473   0.83400   0.11604   0.00000  Uiso   1.00
C364   C     0.16861   0.83266   0.38396   0.00000  Uiso   1.00
C365   C     0.19777   0.87275   0.09235   0.00000  Uiso   1.00
C366   C     0.13556   0.79391   0.40765   0.00000  Uiso   1.00
C367   C     0.19810   0.87323   0.04588   0.00000  Uiso   1.00
C368   C     0.13523   0.79344   0.45412   0.00000  Uiso   1.00
C369   C     0.16612   0.83338   0.02341   0.00000  Uiso   1.00
C370   C     0.16721   0.83329   0.47659   0.00000  Uiso   1.00
C371   C     0.13339   0.79350   0.04785   0.00000  Uiso   1.00
C372   C     0.15142   0.73510   0.25116   0.00000  Uiso   1.00
C373   C     0.19995   0.87317   0.45215   0.00000  Uiso   1.00
C374   C     0.22982   0.91288   0.02176   0.00000  Uiso   1.00
C375   C     0.10352   0.75379   0.47824   0.00000  Uiso   1.00
C376   C     0.23447   0.99999   0.45663   0.00000  Uiso   1.00
C377   C     0.26601   0.70768   0.42615   0.00000  Uiso   1.00
C378   C     0.09886   0.66668   0.04337   0.00000  Uiso   1.00
C379   C     0.06732   0.95899   0.07385   0.00000  Uiso   1.00
C380   C     0.22996   0.91387   0.47485   0.00000  Uiso   1.00
C381   C     0.10337   0.75280   0.02515   0.00000  Uiso   1.00
C382   C     0.18996   0.98607   0.24817   0.00000  Uiso   1.00
C383   C     0.14337   0.68060   0.25183   0.00000  Uiso   1.00
C384   C     0.16736   0.83331   0.33641   0.00000  Uiso   1.00
C385   C     0.16598   0.83336   0.16359   0.00000  Uiso   1.00
C386   C     0.13231   0.79487   0.09459   0.00000  Uiso   1.00
H387   H     0.10779   0.76501   0.11448   0.00000  Uiso   1.00
H388   H     0.32877   0.87254   0.28406   0.00000  Uiso   1.00
H389   H     0.23523   0.68138   0.49206   0.00000  Uiso   1.00
H390   H     0.18896   0.99502   0.44727   0.00000  Uiso   1.00
H391   H     0.26421   0.69513   0.39029   0.00000  Uiso   1.00
H392   H     0.24559   0.74550   0.43120   0.00000  Uiso   1.00
H393   H     0.31173   0.71327   0.43427   0.00000  Uiso   1.00
H394   H     0.14437   0.67165   0.05273   0.00000  Uiso   1.00
H395   H     0.09809   0.98529   0.00794   0.00000  Uiso   1.00
H396   H     0.06914   0.97154   0.10971   0.00000  Uiso   1.00
H397   H     0.02160   0.95339   0.06573   0.00000  Uiso   1.00
H398   H     0.22554   0.90166   0.38552   0.00000  Uiso   1.00
H399   H     0.08775   0.92117   0.06880   0.00000  Uiso   1.00
H400   H     0.22253   0.90269   0.11028   0.00000  Uiso   1.00
H401   H     0.11080   0.76398   0.38972   0.00000  Uiso   1.00
H402   H     0.25439   0.94318   0.03929   0.00000  Uiso   1.00
H403   H     0.07894   0.72348   0.46071   0.00000  Uiso   1.00
H404   H     0.23397   0.66973   0.24468   0.00000  Uiso   1.00
H405   H     0.09936   0.99694   0.25532   0.00000  Uiso   1.00
H406   H     0.00456   0.79413   0.21594   0.00000  Uiso   1.00
N407   N     0.31678   0.81932   0.23783   0.00000  Uiso   1.00
N408   N     0.01656   0.84735   0.26217   0.00000  Uiso   1.00
O409   O     0.12975   0.91286   0.25299   0.00000  Uiso   1.00
O410   O     0.07108   0.71403   0.04907   0.00000  Uiso   1.00
O411   O     0.20358   0.75381   0.24702   0.00000  Uiso   1.00
O412   O     0.22613   0.90387   0.24519   0.00000  Uiso   1.00
O413   O     0.10720   0.76279   0.25481   0.00000  Uiso   1.00
O414   O     0.11847   0.83784   0.31997   0.00000  Uiso   1.00
O415   O     0.21486   0.82883   0.18003   0.00000  Uiso   1.00
O416   O     0.21485   0.82885   0.31218   0.00000  Uiso   1.00
O417   O     0.11848   0.83781   0.18783   0.00000  Uiso   1.00
O418   O     0.26226   0.95264   0.45094   0.00000  Uiso   1.00
Zn419  Zn    0.10231   0.83933   0.25521   0.00000  Uiso   1.00
Zn420  Zn    0.23102   0.82734   0.24479   0.00000  Uiso   1.00
C421   C     0.51524   0.93156   0.24884   0.00000  Uiso   1.00
C422   C     0.53436   0.87180   0.40541   0.00000  Uiso   1.00
C423   C     0.49806   0.83400   0.11604   0.00000  Uiso   1.00
C424   C     0.50194   0.83266   0.38396   0.00000  Uiso   1.00
C425   C     0.53111   0.87275   0.09235   0.00000  Uiso   1.00
C426   C     0.46889   0.79391   0.40765   0.00000  Uiso   1.00
C427   C     0.53143   0.87323   0.04588   0.00000  Uiso   1.00
C428   C     0.46857   0.79344   0.45412   0.00000  Uiso   1.00
C429   C     0.49946   0.83338   0.02341   0.00000  Uiso   1.00
C430   C     0.50054   0.83329   0.47659   0.00000  Uiso   1.00
C431   C     0.46672   0.79350   0.04785   0.00000  Uiso   1.00
C432   C     0.48476   0.73510   0.25116   0.00000  Uiso   1.00
C433   C     0.53328   0.87317   0.45215   0.00000  Uiso   1.00
C434   C     0.56315   0.91288   0.02176   0.00000  Uiso   1.00
C435   C     0.43685   0.75379   0.47824   0.00000  Uiso   1.00
C436   C     0.56780   0.99999   0.45663   0.00000  Uiso   1.00
C437   C     0.59934   0.70768   0.42615   0.00000  Uiso   1.00
C438   C     0.43220   0.66668   0.04337   0.00000  Uiso   1.00
C439   C     0.40066   0.95899   0.07385   0.00000  Uiso   1.00
C440   C     0.56330   0.91387   0.47485   0.00000  Uiso   1.00
C441   C     0.43671   0.75280   0.02515   0.00000  Uiso   1.00
C442   C     0.52330   0.98607   0.24817   0.00000  Uiso   1.00
C443   C     0.47671   0.68060   0.25183   0.00000  Uiso   1.00
C444   C     0.50069   0.83331   0.33641   0.00000  Uiso   1.00
C445   C     0.49931   0.83336   0.16359   0.00000  Uiso   1.00
C446   C     0.46564   0.79487   0.09459   0.00000  Uiso   1.00
H447   H     0.44113   0.76501   0.11448   0.00000  Uiso   1.00
H448   H     0.66210   0.87254   0.28406   0.00000  Uiso   1.00
H449   H     0.56857   0.68138   0.49206   0.00000  Uiso   1.00
H450   H     0.52230   0.99502   0.44727   0.00000  Uiso   1.00
H451   H     0.59754   0.69513   0.39029   0.00000  Uiso   1.00
H452   H     0.57892   0.74550   0.43120   0.00000  Uiso   1.00
H453   H     0.64507   0.71327   0.43427   0.00000  Uiso   1.00
H454   H     0.47770   0.67165   0.05273   0.00000  Uiso   1.00
H455   H     0.43143   0.98529   0.00794   0.00000  Uiso   1.00
H456   H     0.40247   0.97154   0.10971   0.00000  Uiso   1.00
H457   H     0.35493   0.95339   0.06573   0.00000  Uiso   1.00
H458   H     0.55887   0.90166   0.38552   0.00000  Uiso   1.00
H459   H     0.42108   0.92117   0.06880   0.00000  Uiso   1.00
H460   H     0.55586   0.90269   0.11028   0.00000  Uiso   1.00
H461   H     0.44414   0.76398   0.38972   0.00000  Uiso   1.00
H462   H     0.58773   0.94318   0.03929   0.00000  Uiso   1.00
H463   H     0.41227   0.72348   0.46071   0.00000  Uiso   1.00
H464   H     0.56731   0.66973   0.24468   0.00000  Uiso   1.00
H465   H     0.43269   0.99694   0.25532   0.00000  Uiso   1.00
H466   H     0.33790   0.79413   0.21594   0.00000  Uiso   1.00
N467   N     0.65011   0.81932   0.23783   0.00000  Uiso   1.00
N468   N     0.34989   0.84735   0.26217   0.00000  Uiso   1.00
O469   O     0.46308   0.91286   0.25299   0.00000  Uiso   1.00
O470   O     0.40441   0.71403   0.04907   0.00000  Uiso   1.00
O471   O     0.53692   0.75381   0.24702   0.00000  Uiso   1.00
O472   O     0.55946   0.90387   0.24519   0.00000  Uiso   1.00
O473   O     0.44054   0.76279   0.25481   0.00000  Uiso   1.00
O474   O     0.45181   0.83784   0.31997   0.00000  Uiso   1.00
O475   O     0.54819   0.82883   0.18003   0.00000  Uiso   1.00
O476   O     0.54819   0.82885   0.31218   0.00000  Uiso   1.00
O477   O     0.45181   0.83781   0.18783   0.00000  Uiso   1.00
O478   O     0.59559   0.95264   0.45094   0.00000  Uiso   1.00
Zn479  Zn    0.43565   0.83933   0.25521   0.00000  Uiso   1.00
Zn480  Zn    0.56435   0.82734   0.24479   0.00000  Uiso   1.00
C481   C     0.84858   0.93156   0.24884   0.00000  Uiso   1.00
C482   C     0.86769   0.87180   0.40541   0.00000  Uiso   1.00
C483   C     0.83139   0.83400   0.11604   0.00000  Uiso   1.00
C484   C     0.83527   0.83266   0.38396   0.00000  Uiso   1.00
C485   C     0.86444   0.87275   0.09235   0.00000  Uiso   1.00
C486   C     0.80223   0.79391   0.40765   0.00000  Uiso   1.00
C487   C     0.86477   0.87323   0.04588   0.00000  Uiso   1.00
C488   C     0.80190   0.79344   0.45412   0.00000  Uiso   1.00
C489   C     0.83279   0.83338   0.02341   0.00000  Uiso   1.00
C490   C     0.83388   0.83329   0.47659   0.00000  Uiso   1.00
C491   C     0.80005   0.79350   0.04785   0.00000  Uiso   1.00
C492   C     0.81809   0.73510   0.25116   0.00000  Uiso   1.00
C493   C     0.86661   0.87317   0.45215   0.00000  Uiso   1.00
C494   C     0.89648   0.91288   0.02176   0.00000  Uiso   1.00
C495   C     0.77018   0.75379   0.47824   0.00000  Uiso   1.00
C496   C     0.90114   0.99999   0.45663   0.00000  Uiso   1.00
C497   C     0.93268   0.70768   0.42615   0.00000  Uiso   1.00
C498   C     0.76553   0.66668   0.04337   0.00000  Uiso   1.00
C499   C     0.73399   0.95899   0.07385   0.00000  Uiso   1.00
C500   C     0.89663   0.91387   0.47485   0.00000  Uiso   1.00
C501   C     0.77004   0.75280   0.02515   0.00000  Uiso   1.00
C502   C     0.85663   0.98607   0.24817   0.00000  Uiso   1.00
C503   C     0.81004   0.68060   0.25183   0.00000  Uiso   1.00
C504   C     0.83402   0.83331   0.33641   0.00000  Uiso   1.00
C505   C     0.83264   0.83336   0.16359   0.00000  Uiso   1.00
C506   C     0.79898   0.79487   0.09459   0.00000  Uiso   1.00
H507   H     0.77446   0.76501   0.11448   0.00000  Uiso   1.00
H508   H     0.99544   0.87254   0.28406   0.00000  Uiso   1.00
H509   H     0.90190   0.68138   0.49206   0.00000  Uiso   1.00
H510   H     0.85563   0.99502   0.44727   0.00000  Uiso   1.00
H511   H     0.93087   0.69513   0.39029   0.00000  Uiso   1.00
H512   H     0.91225   0.74550   0.43120   0.00000  Uiso   1.00
H513   H     0.97840   0.71327   0.43427   0.00000  Uiso   1.00
H514   H     0.81104   0.67165   0.05273   0.00000  Uiso   1.00
H515   H     0.76476   0.98529   0.00794   0.00000  Uiso   1.00
H516   H     0.73580   0.97154   0.10971   0.00000  Uiso   1.00
H517   H     0.68827   0.95339   0.06573   0.00000  Uiso   1.00
H518   H     0.89221   0.90166   0.38552   0.00000  Uiso   1.00
H519   H     0.75441   0.92117   0.06880   0.00000  Uiso   1.00
H520   H     0.88920   0.90269   0.11028   0.00000  Uiso   1.00
H521   H     0.77747   0.76398   0.38972   0.00000  Uiso   1.00
H522   H     0.92106   0.94318   0.03929   0.00000  Uiso   1.00
H523   H     0.74561   0.72348   0.46071   0.00000  Uiso   1.00
H524   H     0.90064   0.66973   0.24468   0.00000  Uiso   1.00
H525   H     0.76603   0.99694   0.25532   0.00000  Uiso   1.00
H526   H     0.67123   0.79413   0.21594   0.00000  Uiso   1.00
N527   N     0.98344   0.81932   0.23783   0.00000  Uiso   1.00
N528   N     0.68322   0.84735   0.26217   0.00000  Uiso   1.00
O529   O     0.79642   0.91286   0.25299   0.00000  Uiso   1.00
O530   O     0.73774   0.71403   0.04907   0.00000  Uiso   1.00
O531   O     0.87025   0.75381   0.24702   0.00000  Uiso   1.00
O532   O     0.89280   0.90387   0.24519   0.00000  Uiso   1.00
O533   O     0.77387   0.76279   0.25481   0.00000  Uiso   1.00
O534   O     0.78514   0.83784   0.31997   0.00000  Uiso   1.00
O535   O     0.88153   0.82883   0.18003   0.00000  Uiso   1.00
O536   O     0.88152   0.82885   0.31218   0.00000  Uiso   1.00
O537   O     0.78515   0.83781   0.18783   0.00000  Uiso   1.00
O538   O     0.92892   0.95264   0.45094   0.00000  Uiso   1.00
Zn539  Zn    0.76898   0.83933   0.25521   0.00000  Uiso   1.00
Zn540  Zn    0.89769   0.82734   0.24479   0.00000  Uiso   1.00
C541   C     0.18191   0.26490   0.74884   0.00000  Uiso   1.00
C542   C     0.20102   0.20513   0.90541   0.00000  Uiso   1.00
C543   C     0.16473   0.16734   0.61604   0.00000  Uiso   1.00
C544   C     0.16861   0.16600   0.88396   0.00000  Uiso   1.00
C545   C     0.19777   0.20609   0.59235   0.00000  Uiso   1.00
C546   C     0.13556   0.12725   0.90765   0.00000  Uiso   1.00
C547   C     0.19810   0.20656   0.54588   0.00000  Uiso   1.00
C548   C     0.13523   0.12677   0.95412   0.00000  Uiso   1.00
C549   C     0.16612   0.16671   0.52341   0.00000  Uiso   1.00
C550   C     0.16721   0.16662   0.97659   0.00000  Uiso   1.00
C551   C     0.13339   0.12683   0.54785   0.00000  Uiso   1.00
C552   C     0.15142   0.06844   0.75116   0.00000  Uiso   1.00
C553   C     0.19995   0.20650   0.95215   0.00000  Uiso   1.00
C554   C     0.22982   0.24621   0.52176   0.00000  Uiso   1.00
C555   C     0.10352   0.08712   0.97824   0.00000  Uiso   1.00
C556   C     0.23447   0.33332   0.95663   0.00000  Uiso   1.00
C557   C     0.26601   0.04101   0.92615   0.00000  Uiso   1.00
C558   C     0.09886   0.00001   0.54337   0.00000  Uiso   1.00
C559   C     0.06732   0.29232   0.57385   0.00000  Uiso   1.00
C560   C     0.22996   0.24720   0.97485   0.00000  Uiso   1.00
C561   C     0.10337   0.08613   0.52515   0.00000  Uiso   1.00
C562   C     0.18996   0.31940   0.74817   0.00000  Uiso   1.00
C563   C     0.14337   0.01393   0.75183   0.00000  Uiso   1.00
C564   C     0.16736   0.16664   0.83641   0.00000  Uiso   1.00
C565   C     0.16598   0.16669   0.66359   0.00000  Uiso   1.00
C566   C     0.13231   0.12820   0.59459   0.00000  Uiso   1.00
H567   H     0.10779   0.09834   0.61448   0.00000  Uiso   1.00
H568   H     0.32877   0.20587   0.78406   0.00000  Uiso   1.00
H569   H     0.23523   0.01471   0.99206   0.00000  Uiso   1.00
H570   H     0.18896   0.32835   0.94727   0.00000  Uiso   1.00
H571   H     0.26421   0.02846   0.89029   0.00000  Uiso   1.00
H572   H     0.24559   0.07883   0.93120   0.00000  Uiso   1.00
H573   H     0.31173   0.04661   0.93427   0.00000  Uiso   1.00
H574   H     0.14437   0.00498   0.55273   0.00000  Uiso   1.00
H575   H     0.09809   0.31862   0.50794   0.00000  Uiso   1.00
H576   H     0.06914   0.30487   0.60971   0.00000  Uiso   1.00
H577   H     0.02160   0.28673   0.56573   0.00000  Uiso   1.00
H578   H     0.22554   0.23499   0.88552   0.00000  Uiso   1.00
H579   H     0.08775   0.25450   0.56880   0.00000  Uiso   1.00
H580   H     0.22253   0.23602   0.61028   0.00000  Uiso   1.00
H581   H     0.11080   0.09731   0.88972   0.00000  Uiso   1.00
H582   H     0.25439   0.27651   0.53929   0.00000  Uiso   1.00
H583   H     0.07894   0.05682   0.96071   0.00000  Uiso   1.00
H584   H     0.23397   0.00306   0.74468   0.00000  Uiso   1.00
H585   H     0.09936   0.33027   0.75532   0.00000  Uiso   1.00
H586   H     0.00456   0.12746   0.71594   0.00000  Uiso   1.00
N587   N     0.31678   0.15265   0.73783   0.00000  Uiso   1.00
N588   N     0.01656   0.18068   0.76217   0.00000  Uiso   1.00
O589   O     0.12975   0.24619   0.75299   0.00000  Uiso   1.00
O590   O     0.07108   0.04736   0.54907   0.00000  Uiso   1.00
O591   O     0.20358   0.08714   0.74702   0.00000  Uiso   1.00
O592   O     0.22613   0.23721   0.74519   0.00000  Uiso   1.00
O593   O     0.10720   0.09613   0.75481   0.00000  Uiso   1.00
O594   O     0.11847   0.17117   0.81997   0.00000  Uiso   1.00
O595   O     0.21486   0.16216   0.68003   0.00000  Uiso   1.00
O596   O     0.21485   0.16219   0.81218   0.00000  Uiso   1.00
O597   O     0.11848   0.17115   0.68783   0.00000  Uiso   1.00
O598   O     0.26226   0.28597   0.95094   0.00000  Uiso   1.00
Zn599  Zn    0.10231   0.17266   0.75521   0.00000  Uiso   1.00
Zn600  Zn    0.23102   0.16067   0.74479   0.00000  Uiso   1.00
C601   C     0.51524   0.26490   0.74884   0.00000  Uiso   1.00
C602   C     0.53436   0.20513   0.90541   0.00000  Uiso   1.00
C603   C     0.49806   0.16734   0.61604   0.00000  Uiso   1.00
C604   C     0.50194   0.16600   0.88396   0.00000  Uiso   1.00
C605   C     0.53111   0.20609   0.59235   0.00000  Uiso   1.00
C606   C     0.46889   0.12725   0.90765   0.00000  Uiso   1.00
C607   C     0.53143   0.20656   0.54588   0.00000  Uiso   1.00
C608   C     0.46857   0.12677   0.95412   0.00000  Uiso   1.00
C609   C     0.49946   0.16671   0.52341   0.00000  Uiso   1.00
C610   C     0.50054   0.16662   0.97659   0.00000  Uiso   1.00
C611   C     0.46672   0.12683   0.54785   0.00000  Uiso   1.00
C612   C     0.48476   0.06844   0.75116   0.00000  Uiso   1.00
C613   C     0.53328   0.20650   0.95215   0.00000  Uiso   1.00
C614   C     0.56315   0.24621   0.52176   0.00000  Uiso   1.00
C615   C     0.43685   0.08712   0.97824   0.00000  Uiso   1.00
C616   C     0.56780   0.33332   0.95663   0.00000  Uiso   1.00
C617   C     0.59934   0.04101   0.92615   0.00000  Uiso   1.00
C618   C     0.43220   0.00001   0.54337   0.00000  Uiso   1.00
C619   C     0.40066   0.29232   0.57385   0.00000  Uiso   1.00
C620   C     0.56330   0.24720   0.97485   0.00000  Uiso   1.00
C621   C     0.43671   0.08613   0.52515   0.00000  Uiso   1.00
C622   C     0.52330   0.31940   0.74817   0.00000  Uiso   1.00
C623   C     0.47671   0.01393   0.75183   0.00000  Uiso   1.00
C624   C     0.50069   0.16664   0.83641   0.00000  Uiso   1.00
C625   C     0.49931   0.16669   0.66359   0.00000  Uiso   1.00
C626   C     0.46564   0.12820   0.59459   0.00000  Uiso   1.00
H627   H     0.44113   0.09834   0.61448   0.00000  Uiso   1.00
H628   H     0.66210   0.20587   0.78406   0.00000  Uiso   1.00
H629   H     0.56857   0.01471   0.99206   0.00000  Uiso   1.00
H630   H     0.52230   0.32835   0.94727   0.00000  Uiso   1.00
H631   H     0.59754   0.02846   0.89029   0.00000  Uiso   1.00
H632   H     0.57892   0.07883   0.93120   0.00000  Uiso   1.00
H633   H     0.64507   0.04661   0.93427   0.00000  Uiso   1.00
H634   H     0.47770   0.00498   0.55273   0.00000  Uiso   1.00
H635   H     0.43143   0.31862   0.50794   0.00000  Uiso   1.00
H636   H     0.40247   0.30487   0.60971   0.00000  Uiso   1.00
H637   H     0.35493   0.28673   0.56573   0.00000  Uiso   1.00
H638   H     0.55887   0.23499   0.88552   0.00000  Uiso   1.00
H639   H     0.42108   0.25450   0.56880   0.00000  Uiso   1.00
H640   H     0.55586   0.23602   0.61028   0.00000  Uiso   1.00
H641   H     0.44414   0.09731   0.88972   0.00000  Uiso   1.00
H642   H     0.58773   0.27651   0.53929   0.00000  Uiso   1.00
H643   H     0.41227   0.05682   0.96071   0.00000  Uiso   1.00
H644   H     0.56731   0.00306   0.74468   0.00000  Uiso   1.00
H645   H     0.43269   0.33027   0.75532   0.00000  Uiso   1.00
H646   H     0.33790   0.12746   0.71594   0.00000  Uiso   1.00
N647   N     0.65011   0.15265   0.73783   0.00000  Uiso   1.00
N648   N     0.34989   0.18068   0.76217   0.00000  Uiso   1.00
O649   O     0.46308   0.24619   0.75299   0.00000  Uiso   1.00
O650   O     0.40441   0.04736   0.54907   0.00000  Uiso   1.00
O651   O     0.53692   0.08714   0.74702   0.00000  Uiso   1.00
O652   O     0.55946   0.23721   0.74519   0.00000  Uiso   1.00
O653   O     0.44054   0.09613   0.75481   0.00000  Uiso   1.00
O654   O     0.45181   0.17117   0.81997   0.00000  Uiso   1.00
O655   O     0.54819   0.16216   0.68003   0.00000  Uiso   1.00
O656   O     0.54819   0.16219   0.81218   0.00000  Uiso   1.00
O657   O     0.45181   0.17115   0.68783   0.00000  Uiso   1.00
O658   O     0.59559   0.28597   0.95094   0.00000  Uiso   1.00
Zn659  Zn    0.43565   0.17266   0.75521   0.00000  Uiso   1.00
Zn660  Zn    0.56435   0.16067   0.74479   0.00000  Uiso   1.00
C661   C     0.84858   0.26490   0.74884   0.00000  Uiso   1.00
C662   C     0.86769   0.20513   0.90541   0.00000  Uiso   1.00
C663   C     0.83139   0.16734   0.61604   0.00000  Uiso   1.00
C664   C     0.83527   0.16600   0.88396   0.00000  Uiso   1.00
C665   C     0.86444   0.20609   0.59235   0.00000  Uiso   1.00
C666   C     0.80223   0.12725   0.90765   0.00000  Uiso   1.00
C667   C     0.86477   0.20656   0.54588   0.00000  Uiso   1.00
C668   C     0.80190   0.12677   0.95412   0.00000  Uiso   1.00
C669   C     0.83279   0.16671   0.52341   0.00000  Uiso   1.00
C670   C     0.83388   0.16662   0.97659   0.00000  Uiso   1.00
C671   C     0.80005   0.12683   0.54785   0.00000  Uiso   1.00
C672   C     0.81809   0.06844   0.75116   0.00000  Uiso   1.00
C673   C     0.86661   0.20650   0.95215   0.00000  Uiso   1.00
C674   C     0.89648   0.24621   0.52176   0.00000  Uiso   1.00
C675   C     0.77018   0.08712   0.97824   0.00000  Uiso   1.00
C676   C     0.90114   0.33332   0.95663   0.00000  Uiso   1.00
C677   C     0.93268   0.04101   0.92615   0.00000  Uiso   1.00
C678   C     0.76553   0.00001   0.54337   0.00000  Uiso   1.00
C679   C     0.73399   0.29232   0.57385   0.00000  Uiso   1.00
C680   C     0.89663   0.24720   0.97485   0.00000  Uiso   1.00
C681   C     0.77004   0.08613   0.52515   0.00000  Uiso   1.00
C682   C     0.85663   0.31940   0.74817   0.00000  Uiso   1.00
C683   C     0.81004   0.01393   0.75183   0.00000  Uiso   1.00
C684   C     0.83402   0.16664   0.83641   0.00000  Uiso   1.00
C685   C     0.83264   0.16669   0.66359   0.00000  Uiso   1.00
C686   C     0.79898   0.12820   0.59459   0.00000  Uiso   1.00
H687   H     0.77446   0.09834   0.61448   0.00000  Uiso   1.00
H688   H     0.99544   0.20587   0.78406   0.00000  Uiso   1.00
H689   H     0.90190   0.01471   0.99206   0.00000  Uiso   1.00
H690   H     0.85563   0.32835   0.94727   0.00000  Uiso   1.00
H691   H     0.93087   0.02846   0.89029   0.00000  Uiso   1.00
H692   H     0.91225   0.07883   0.93120   0.00000  Uiso   1.00
H693   H     0.97840   0.04661   0.93427   0.00000  Uiso   1.00
H694   H     0.81104   0.00498   0.55273   0.00000  Uiso   1.00
H695   H     0.76476   0.31862   0.50794   0.00000  Uiso   1.00
H696   H     0.73580   0.30487   0.60971   0.00000  Uiso   1.00
H697   H     0.68827   0.28673   0.56573   0.00000  Uiso   1.00
H698   H     0.89221   0.23499   0.88552   0.00000  Uiso   1.00
H699   H     0.75441   0.25450   0.56880   0.00000  Uiso   1.00
H700   H     0.88920   0.23602   0.61028   0.00000  Uiso   1.00
H701   H     0.77747   0.09731   0.88972   0.00000  Uiso   1.00
H702   H     0.92106   0.27651   0.53929   0.00000  Uiso   1.00
H703   H     0.74561   0.05682   0.96071   0.00000  Uiso   1.00
H704   H     0.90064   0.00306   0.74468   0.00000  Uiso   1.00
H705   H     0.76603   0.33027   0.75532   0.00000  Uiso   1.00
H706   H     0.67123   0.12746   0.71594   0.00000  Uiso   1.00
N707   N     0.98344   0.15265   0.73783   0.00000  Uiso   1.00
N708   N     0.68322   0.18068   0.76217   0.00000  Uiso   1.00
O709   O     0.79642   0.24619   0.75299   0.00000  Uiso   1.00
O710   O     0.73774   0.04736   0.54907   0.00000  Uiso   1.00
O711   O     0.87025   0.08714   0.74702   0.00000  Uiso   1.00
O712   O     0.89280   0.23721   0.74519   0.00000  Uiso   1.00
O713   O     0.77387   0.09613   0.75481   0.00000  Uiso   1.00
O714   O     0.78514   0.17117   0.81997   0.00000  Uiso   1.00
O715   O     0.88153   0.16216   0.68003   0.00000  Uiso   1.00
O716   O     0.88152   0.16219   0.81218   0.00000  Uiso   1.00
O717   O     0.78515   0.17115   0.68783   0.00000  Uiso   1.00
O718   O     0.92892   0.28597   0.95094   0.00000  Uiso   1.00
Zn719  Zn    0.76898   0.17266   0.75521   0.00000  Uiso   1.00
Zn720  Zn    0.89769   0.16067   0.74479   0.00000  Uiso   1.00
C721   C     0.18191   0.59823   0.74884   0.00000  Uiso   1.00
C722   C     0.20102   0.53846   0.90541   0.00000  Uiso   1.00
C723   C     0.16473   0.50067   0.61604   0.00000  Uiso   1.00
C724   C     0.16861   0.49933   0.88396   0.00000  Uiso   1.00
C725   C     0.19777   0.53942   0.59235   0.00000  Uiso   1.00
C726   C     0.13556   0.46058   0.90765   0.00000  Uiso   1.00
C727   C     0.19810   0.53990   0.54588   0.00000  Uiso   1.00
C728   C     0.13523   0.46010   0.95412   0.00000  Uiso   1.00
C729   C     0.16612   0.50005   0.52341   0.00000  Uiso   1.00
C730   C     0.16721   0.49995   0.97659   0.00000  Uiso   1.00
C731   C     0.13339   0.46016   0.54785   0.00000  Uiso   1.00
C732   C     0.15142   0.40177   0.75116   0.00000  Uiso   1.00
C733   C     0.19995   0.53984   0.95215   0.00000  Uiso   1.00
C734   C     0.22982   0.57955   0.52176   0.00000  Uiso   1.00
C735   C     0.10352   0.42045   0.97824   0.00000  Uiso   1.00
C736   C     0.23447   0.66665   0.95663   0.00000  Uiso   1.00
C737   C     0.26601   0.37435   0.92615   0.00000  Uiso   1.00
C738   C     0.09886   0.33334   0.54337   0.00000  Uiso   1.00
C739   C     0.06732   0.62565   0.57385   0.00000  Uiso   1.00
C740   C     0.22996   0.58053   0.97485   0.00000  Uiso   1.00
C741   C     0.10337   0.41947   0.52515   0.00000  Uiso   1.00
C742   C     0.18996   0.65273   0.74817   0.00000  Uiso   1.00
C743   C     0.14337   0.34727   0.75183   0.00000  Uiso   1.00
C744   C     0.16736   0.49997   0.83641   0.00000  Uiso   1.00
C745   C     0.16598   0.50003   0.66359   0.00000  Uiso   1.00
C746   C     0.13231   0.46154   0.59459   0.00000  Uiso   1.00
H747   H     0.10779   0.43168   0.61448   0.00000  Uiso   1.00
H748   H     0.32877   0.53921   0.78406   0.00000  Uiso   1.00
H749   H     0.23523   0.34804   0.99206   0.00000  Uiso   1.00
H750   H     0.18896   0.66168   0.94727   0.00000  Uiso   1.00
H751   H     0.26421   0.36179   0.89029   0.00000  Uiso   1.00
H752   H     0.24559   0.41217   0.93120   0.00000  Uiso   1.00
H753   H     0.31173   0.37994   0.93427   0.00000  Uiso   1.00
H754   H     0.14437   0.33831   0.55273   0.00000  Uiso   1.00
H755   H     0.09809   0.65196   0.50794   0.00000  Uiso   1.00
H756   H     0.06914   0.63821   0.60971   0.00000  Uiso   1.00
H757   H     0.02160   0.62006   0.56573   0.00000  Uiso   1.00
H758   H     0.22554   0.56832   0.88552   0.00000  Uiso   1.00
H759   H     0.08775   0.58783   0.56880   0.00000  Uiso   1.00
H760   H     0.22253   0.56935   0.61028   0.00000  Uiso   1.00
H761   H     0.11080   0.43065   0.88972   0.00000  Uiso   1.00
H762   H     0.25439   0.60985   0.53929   0.00000  Uiso   1.00
H763   H     0.07894   0.39015   0.96071   0.00000  Uiso   1.00
H764   H     0.23397   0.33640   0.74468   0.00000  Uiso   1.00
H765   H     0.09936   0.66360   0.75532   0.00000  Uiso   1.00
H766   H     0.00456   0.46079   0.71594   0.00000  Uiso   1.00
N767   N     0.31678   0.48598   0.73783   0.00000  Uiso   1.00
N768   N     0.01656   0.51402   0.76217   0.00000  Uiso   1.00
O769   O     0.12975   0.57952   0.75299   0.00000  Uiso   1.00
O770   O     0.07108   0.38070   0.54907   0.00000  Uiso   1.00
O771   O     0.20358   0.42048   0.74702   0.00000  Uiso   1.00
O772   O     0.22613   0.57054   0.74519   0.00000  Uiso   1.00
O773   O     0.10720   0.42946   0.75481   0.00000  Uiso   1.00
O774   O     0.11847   0.50450   0.81997   0.00000  Uiso   1.00
O775   O     0.21486   0.49550   0.68003   0.00000  Uiso   1.00
O776   O     0.21485   0.49552   0.81218   0.00000  Uiso   1.00
O777   O     0.11848   0.50448   0.68783   0.00000  Uiso   1.00
O778   O     0.26226   0.61930   0.95094   0.00000  Uiso   1.00
Zn779  Zn    0.10231   0.50600   0.75521   0.00000  Uiso   1.00
Zn780  Zn    0.23102   0.49400   0.74479   0.00000  Uiso   1.00
C781   C     0.51524   0.59823   0.74884   0.00000  Uiso   1.00
C782   C     0.53436   0.53846   0.90541   0.00000  Uiso   1.00
C783   C     0.49806   0.50067   0.61604   0.00000  Uiso   1.00
C784   C     0.50194   0.49933   0.88396   0.00000  Uiso   1.00
C785   C     0.53111   0.53942   0.59235   0.00000  Uiso   1.00
C786   C     0.46889   0.46058   0.90765   0.00000  Uiso   1.00
C787   C     0.53143   0.53990   0.54588   0.00000  Uiso   1.00
C788   C     0.46857   0.46010   0.95412   0.00000  Uiso   1.00
C789   C     0.49946   0.50005   0.52341   0.00000  Uiso   1.00
C790   C     0.50054   0.49995   0.97659   0.00000  Uiso   1.00
C791   C     0.46672   0.46016   0.54785   0.00000  Uiso   1.00
C792   C     0.48476   0.40177   0.75116   0.00000  Uiso   1.00
C793   C     0.53328   0.53984   0.95215   0.00000  Uiso   1.00
C794   C     0.56315   0.57955   0.52176   0.00000  Uiso   1.00
C795   C     0.43685   0.42045   0.97824   0.00000  Uiso   1.00
C796   C     0.56780   0.66665   0.95663   0.00000  Uiso   1.00
C797   C     0.59934   0.37435   0.92615   0.00000  Uiso   1.00
C798   C     0.43220   0.33334   0.54337   0.00000  Uiso   1.00
C799   C     0.40066   0.62565   0.57385   0.00000  Uiso   1.00
C800   C     0.56330   0.58053   0.97485   0.00000  Uiso   1.00
C801   C     0.43671   0.41947   0.52515   0.00000  Uiso   1.00
C802   C     0.52330   0.65273   0.74817   0.00000  Uiso   1.00
C803   C     0.47671   0.34727   0.75183   0.00000  Uiso   1.00
C804   C     0.50069   0.49997   0.83641   0.00000  Uiso   1.00
C805   C     0.49931   0.50003   0.66359   0.00000  Uiso   1.00
C806   C     0.46564   0.46154   0.59459   0.00000  Uiso   1.00
H807   H     0.44113   0.43168   0.61448   0.00000  Uiso   1.00
H808   H     0.66210   0.53921   0.78406   0.00000  Uiso   1.00
H809   H     0.56857   0.34804   0.99206   0.00000  Uiso   1.00
H810   H     0.52230   0.66168   0.94727   0.00000  Uiso   1.00
H811   H     0.59754   0.36179   0.89029   0.00000  Uiso   1.00
H812   H     0.57892   0.41217   0.93120   0.00000  Uiso   1.00
H813   H     0.64507   0.37994   0.93427   0.00000  Uiso   1.00
H814   H     0.47770   0.33831   0.55273   0.00000  Uiso   1.00
H815   H     0.43143   0.65196   0.50794   0.00000  Uiso   1.00
H816   H     0.40247   0.63821   0.60971   0.00000  Uiso   1.00
H817   H     0.35493   0.62006   0.56573   0.00000  Uiso   1.00
H818   H     0.55887   0.56832   0.88552   0.00000  Uiso   1.00
H819   H     0.42108   0.58783   0.56880   0.00000  Uiso   1.00
H820   H     0.55586   0.56935   0.61028   0.00000  Uiso   1.00
H821   H     0.44414   0.43065   0.88972   0.00000  Uiso   1.00
H822   H     0.58773   0.60985   0.53929   0.00000  Uiso   1.00
H823   H     0.41227   0.39015   0.96071   0.00000  Uiso   1.00
H824   H     0.56731   0.33640   0.74468   0.00000  Uiso   1.00
H825   H     0.43269   0.66360   0.75532   0.00000  Uiso   1.00
H826   H     0.33790   0.46079   0.71594   0.00000  Uiso   1.00
N827   N     0.65011   0.48598   0.73783   0.00000  Uiso   1.00
N828   N     0.34989   0.51402   0.76217   0.00000  Uiso   1.00
O829   O     0.46308   0.57952   0.75299   0.00000  Uiso   1.00
O830   O     0.40441   0.38070   0.54907   0.00000  Uiso   1.00
O831   O     0.53692   0.42048   0.74702   0.00000  Uiso   1.00
O832   O     0.55946   0.57054   0.74519   0.00000  Uiso   1.00
O833   O     0.44054   0.42946   0.75481   0.00000  Uiso   1.00
O834   O     0.45181   0.50450   0.81997   0.00000  Uiso   1.00
O835   O     0.54819   0.49550   0.68003   0.00000  Uiso   1.00
O836   O     0.54819   0.49552   0.81218   0.00000  Uiso   1.00
O837   O     0.45181   0.50448   0.68783   0.00000  Uiso   1.00
O838   O     0.59559   0.61930   0.95094   0.00000  Uiso   1.00
Zn839  Zn    0.43565   0.50600   0.75521   0.00000  Uiso   1.00
Zn840  Zn    0.56435   0.49400   0.74479   0.00000  Uiso   1.00
C841   C     0.84858   0.59823   0.74884   0.00000  Uiso   1.00
C842   C     0.86769   0.53846   0.90541   0.00000  Uiso   1.00
C843   C     0.83139   0.50067   0.61604   0.00000  Uiso   1.00
C844   C     0.83527   0.49933   0.88396   0.00000  Uiso   1.00
C845   C     0.86444   0.53942   0.59235   0.00000  Uiso   1.00
C846   C     0.80223   0.46058   0.90765   0.00000  Uiso   1.00
C847   C     0.86477   0.53990   0.54588   0.00000  Uiso   1.00
C848   C     0.80190   0.46010   0.95412   0.00000  Uiso   1.00
C849   C     0.83279   0.50005   0.52341   0.00000  Uiso   1.00
C850   C     0.83388   0.49995   0.97659   0.00000  Uiso   1.00
C851   C     0.80005   0.46016   0.54785   0.00000  Uiso   1.00
C852   C     0.81809   0.40177   0.75116   0.00000  Uiso   1.00
C853   C     0.86661   0.53984   0.95215   0.00000  Uiso   1.00
C854   C     0.89648   0.57955   0.52176   0.00000  Uiso   1.00
C855   C     0.77018   0.42045   0.97824   0.00000  Uiso   1.00
C856   C     0.90114   0.66665   0.95663   0.00000  Uiso   1.00
C857   C     0.93268   0.37435   0.92615   0.00000  Uiso   1.00
C858   C     0.76553   0.33334   0.54337   0.00000  Uiso   1.00
C859   C     0.73399   0.62565   0.57385   0.00000  Uiso   1.00
C860   C     0.89663   0.58053   0.97485   0.00000  Uiso   1.00
C861   C     0.77004   0.41947   0.52515   0.00000  Uiso   1.00
C862   C     0.85663   0.65273   0.74817   0.00000  Uiso   1.00
C863   C     0.81004   0.34727   0.75183   0.00000  Uiso   1.00
C864   C     0.83402   0.49997   0.83641   0.00000  Uiso   1.00
C865   C     0.83264   0.50003   0.66359   0.00000  Uiso   1.00
C866   C     0.79898   0.46154   0.59459   0.00000  Uiso   1.00
H867   H     0.77446   0.43168   0.61448   0.00000  Uiso   1.00
H868   H     0.99544   0.53921   0.78406   0.00000  Uiso   1.00
H869   H     0.90190   0.34804   0.99206   0.00000  Uiso   1.00
H870   H     0.85563   0.66168   0.94727   0.00000  Uiso   1.00
H871   H     0.93087   0.36179   0.89029   0.00000  Uiso   1.00
H872   H     0.91225   0.41217   0.93120   0.00000  Uiso   1.00
H873   H     0.97840   0.37994   0.93427   0.00000  Uiso   1.00
H874   H     0.81104   0.33831   0.55273   0.00000  Uiso   1.00
H875   H     0.76476   0.65196   0.50794   0.00000  Uiso   1.00
H876   H     0.73580   0.63821   0.60971   0.00000  Uiso   1.00
H877   H     0.68827   0.62006   0.56573   0.00000  Uiso   1.00
H878   H     0.89221   0.56832   0.88552   0.00000  Uiso   1.00
H879   H     0.75441   0.58783   0.56880   0.00000  Uiso   1.00
H880   H     0.88920   0.56935   0.61028   0.00000  Uiso   1.00
H881   H     0.77747   0.43065   0.88972   0.00000  Uiso   1.00
H882   H     0.92106   0.60985   0.53929   0.00000  Uiso   1.00
H883   H     0.74561   0.39015   0.96071   0.00000  Uiso   1.00
H884   H     0.90064   0.33640   0.74468   0.00000  Uiso   1.00
H885   H     0.76603   0.66360   0.75532   0.00000  Uiso   1.00
H886   H     0.67123   0.46079   0.71594   0.00000  Uiso   1.00
N887   N     0.98344   0.48598   0.73783   0.00000  Uiso   1.00
N888   N     0.68322   0.51402   0.76217   0.00000  Uiso   1.00
O889   O     0.79642   0.57952   0.75299   0.00000  Uiso   1.00
O890   O     0.73774   0.38070   0.54907   0.00000  Uiso   1.00
O891   O     0.87025   0.42048   0.74702   0.00000  Uiso   1.00
O892   O     0.89280   0.57054   0.74519   0.00000  Uiso   1.00
O893   O     0.77387   0.42946   0.75481   0.00000  Uiso   1.00
O894   O     0.78514   0.50450   0.81997   0.00000  Uiso   1.00
O895   O     0.88153   0.49550   0.68003   0.00000  Uiso   1.00
O896   O     0.88152   0.49552   0.81218   0.00000  Uiso   1.00
O897   O     0.78515   0.50448   0.68783   0.00000  Uiso   1.00
O898   O     0.92892   0.61930   0.95094   0.00000  Uiso   1.00
Zn899  Zn    0.76898   0.50600   0.75521   0.00000  Uiso   1.00
Zn900  Zn    0.89769   0.49400   0.74479   0.00000  Uiso   1.00
C901   C     0.18191   0.93156   0.74884   0.00000  Uiso   1.00
C902   C     0.20102   0.87180   0.90541   0.00000  Uiso   1.00
C903   C     0.16473   0.83400   0.61604   0.00000  Uiso   1.00
C904   C     0.16861   0.83266   0.88396   0.00000  Uiso   1.00
C905   C     0.19777   0.87275   0.59235   0.00000  Uiso   1.00
C906   C     0.13556   0.79391   0.90765   0.00000  Uiso   1.00
C907   C     0.19810   0.87323   0.54588   0.00000  Uiso   1.00
C908   C     0.13523   0.79344   0.95412   0.00000  Uiso   1.00
C909   C     0.16612   0.83338   0.52341   0.00000  Uiso   1.00
C910   C     0.16721   0.83329   0.97659   0.00000  Uiso   1.00
C911   C     0.13339   0.79350   0.54785   0.00000  Uiso   1.00
C912   C     0.15142   0.73510   0.75116   0.00000  Uiso   1.00
C913   C     0.19995   0.87317   0.95215   0.00000  Uiso   1.00
C914   C     0.22982   0.91288   0.52176   0.00000  Uiso   1.00
C915   C     0.10352   0.75379   0.97824   0.00000  Uiso   1.00
C916   C     0.23447   0.99999   0.95663   0.00000  Uiso   1.00
C917   C     0.26601   0.70768   0.92615   0.00000  Uiso   1.00
C918   C     0.09886   0.66668   0.54337   0.00000  Uiso   1.00
C919   C     0.06732   0.95899   0.57385   0.00000  Uiso   1.00
C920   C     0.22996   0.91387   0.97485   0.00000  Uiso   1.00
C921   C     0.10337   0.75280   0.52515   0.00000  Uiso   1.00
C922   C     0.18996   0.98607   0.74817   0.00000  Uiso   1.00
C923   C     0.14337   0.68060   0.75183   0.00000  Uiso   1.00
C924   C     0.16736   0.83331   0.83641   0.00000  Uiso   1.00
C925   C     0.16598   0.83336   0.66359   0.00000  Uiso   1.00
C926   C     0.13231   0.79487   0.59459   0.00000  Uiso   1.00
H927   H     0.10779   0.76501   0.61448   0.00000  Uiso   1.00
H928   H     0.32877   0.87254   0.78406   0.00000  Uiso   1.00
H929   H     0.23523   0.68138   0.99206   0.00000  Uiso   1.00
H930   H     0.18896   0.99502   0.94727   0.00000  Uiso   1.00
H931   H     0.26421   0.69513   0.89029   0.00000  Uiso   1.00
H932   H     0.24559   0.74550   0.93120   0.00000  Uiso   1.00
H933   H     0.31173   0.71327   0.93427   0.00000  Uiso   1.00
H934   H     0.14437   0.67165   0.55273   0.00000  Uiso   1.00
H935   H     0.09809   0.98529   0.50794   0.00000  Uiso   1.00
H936   H     0.06914   0.97154   0.60971   0.00000  Uiso   1.00
H937   H     0.02160   0.95339   0.56573   0.00000  Uiso   1.00
H938   H     0.22554   0.90166   0.88552   0.00000  Uiso   1.00
H939   H     0.08775   0.92117   0.56880   0.00000  Uiso   1.00
H940   H     0.22253   0.90269   0.61028   0.00000  Uiso   1.00
H941   H     0.11080   0.76398   0.88972   0.00000  Uiso   1.00
H942   H     0.25439   0.94318   0.53929   0.00000  Uiso   1.00
H943   H     0.07894   0.72348   0.96071   0.00000  Uiso   1.00
H944   H     0.23397   0.66973   0.74468   0.00000  Uiso   1.00
H945   H     0.09936   0.99694   0.75532   0.00000  Uiso   1.00
H946   H     0.00456   0.79413   0.71594   0.00000  Uiso   1.00
N947   N     0.31678   0.81932   0.73783   0.00000  Uiso   1.00
N948   N     0.01656   0.84735   0.76217   0.00000  Uiso   1.00
O949   O     0.12975   0.91286   0.75299   0.00000  Uiso   1.00
O950   O     0.07108   0.71403   0.54907   0.00000  Uiso   1.00
O951   O     0.20358   0.75381   0.74702   0.00000  Uiso   1.00
O952   O     0.22613   0.90387   0.74519   0.00000  Uiso   1.00
O953   O     0.10720   0.76279   0.75481   0.00000  Uiso   1.00
O954   O     0.11847   0.83784   0.81997   0.00000  Uiso   1.00
O955   O     0.21486   0.82883   0.68003   0.00000  Uiso   1.00
O956   O     0.21485   0.82885   0.81218   0.00000  Uiso   1.00
O957   O     0.11848   0.83781   0.68783   0.00000  Uiso   1.00
O958   O     0.26226   0.95264   0.95094   0.00000  Uiso   1.00
Zn959  Zn    0.10231   0.83933   0.75521   0.00000  Uiso   1.00
Zn960  Zn    0.23102   0.82734   0.74479   0.00000  Uiso   1.00
C961   C     0.51524   0.93156   0.74884   0.00000  Uiso   1.00
C962   C     0.53436   0.87180   0.90541   0.00000  Uiso   1.00
C963   C     0.49806   0.83400   0.61604   0.00000  Uiso   1.00
C964   C     0.50194   0.83266   0.88396   0.00000  Uiso   1.00
C965   C     0.53111   0.87275   0.59235   0.00000  Uiso   1.00
C966   C     0.46889   0.79391   0.90765   0.00000  Uiso   1.00
C967   C     0.53143   0.87323   0.54588   0.00000  Uiso   1.00
C968   C     0.46857   0.79344   0.95412   0.00000  Uiso   1.00
C969   C     0.49946   0.83338   0.52341   0.00000  Uiso   1.00
C970   C     0.50054   0.83329   0.97659   0.00000  Uiso   1.00
C971   C     0.46672   0.79350   0.54785   0.00000  Uiso   1.00
C972   C     0.48476   0.73510   0.75116   0.00000  Uiso   1.00
C973   C     0.53328   0.87317   0.95215   0.00000  Uiso   1.00
C974   C     0.56315   0.91288   0.52176   0.00000  Uiso   1.00
C975   C     0.43685   0.75379   0.97824   0.00000  Uiso   1.00
C976   C     0.56780   0.99999   0.95663   0.00000  Uiso   1.00
C977   C     0.59934   0.70768   0.92615   0.00000  Uiso   1.00
C978   C     0.43220   0.66668   0.54337   0.00000  Uiso   1.00
C979   C     0.40066   0.95899   0.57385   0.00000  Uiso   1.00
C980   C     0.56330   0.91387   0.97485   0.00000  Uiso   1.00
C981   C     0.43671   0.75280   0.52515   0.00000  Uiso   1.00
C982   C     0.52330   0.98607   0.74817   0.00000  Uiso   1.00
C983   C     0.47671   0.68060   0.75183   0.00000  Uiso   1.00
C984   C     0.50069   0.83331   0.83641   0.00000  Uiso   1.00
C985   C     0.49931   0.83336   0.66359   0.00000  Uiso   1.00
C986   C     0.46564   0.79487   0.59459   0.00000  Uiso   1.00
H987   H     0.44113   0.76501   0.61448   0.00000  Uiso   1.00
H988   H     0.66210   0.87254   0.78406   0.00000  Uiso   1.00
H989   H     0.56857   0.68138   0.99206   0.00000  Uiso   1.00
H990   H     0.52230   0.99502   0.94727   0.00000  Uiso   1.00
H991   H     0.59754   0.69513   0.89029   0.00000  Uiso   1.00
H992   H     0.57892   0.74550   0.93120   0.00000  Uiso   1.00
H993   H     0.64507   0.71327   0.93427   0.00000  Uiso   1.00
H994   H     0.47770   0.67165   0.55273   0.00000  Uiso   1.00
H995   H     0.43143   0.98529   0.50794   0.00000  Uiso   1.00
H996   H     0.40247   0.97154   0.60971   0.00000  Uiso   1.00
H997   H     0.35493   0.95339   0.56573   0.00000  Uiso   1.00
H998   H     0.55887   0.90166   0.88552   0.00000  Uiso   1.00
H999   H     0.42108   0.92117   0.56880   0.00000  Uiso   1.00
H1000  H     0.55586   0.90269   0.61028   0.00000  Uiso   1.00
H1001  H     0.44414   0.76398   0.88972   0.00000  Uiso   1.00
H1002  H     0.58773   0.94318   0.53929   0.00000  Uiso   1.00
H1003  H     0.41227   0.72348   0.96071   0.00000  Uiso   1.00
H1004  H     0.56731   0.66973   0.74468   0.00000  Uiso   1.00
H1005  H     0.43269   0.99694   0.75532   0.00000  Uiso   1.00
H1006  H     0.33790   0.79413   0.71594   0.00000  Uiso   1.00
N1007  N     0.65011   0.81932   0.73783   0.00000  Uiso   1.00
N1008  N     0.34989   0.84735   0.76217   0.00000  Uiso   1.00
O1009  O     0.46308   0.91286   0.75299   0.00000  Uiso   1.00
O1010  O     0.40441   0.71403   0.54907   0.00000  Uiso   1.00
O1011  O     0.53692   0.75381   0.74702   0.00000  Uiso   1.00
O1012  O     0.55946   0.90387   0.74519   0.00000  Uiso   1.00
O1013  O     0.44054   0.76279   0.75481   0.00000  Uiso   1.00
O1014  O     0.45181   0.83784   0.81997   0.00000  Uiso   1.00
O1015  O     0.54819   0.82883   0.68003   0.00000  Uiso   1.00
O1016  O     0.54819   0.82885   0.81218   0.00000  Uiso   1.00
O1017  O     0.45181   0.83781   0.68783   0.00000  Uiso   1.00
O1018  O     0.59559   0.95264   0.95094   0.00000  Uiso   1.00
Zn1019 Zn    0.43565   0.83933   0.75521   0.00000  Uiso   1.00
Zn1020 Zn    0.56435   0.82734   0.74479   0.00000  Uiso   1.00
C1021  C     0.84858   0.93156   0.74884   0.00000  Uiso   1.00
C1022  C     0.86769   0.87180   0.90541   0.00000  Uiso   1.00
C1023  C     0.83139   0.83400   0.61604   0.00000  Uiso   1.00
C1024  C     0.83527   0.83266   0.88396   0.00000  Uiso   1.00
C1025  C     0.86444   0.87275   0.59235   0.00000  Uiso   1.00
C1026  C     0.80223   0.79391   0.90765   0.00000  Uiso   1.00
C1027  C     0.86477   0.87323   0.54588   0.00000  Uiso   1.00
C1028  C     0.80190   0.79344   0.95412   0.00000  Uiso   1.00
C1029  C     0.83279   0.83338   0.52341   0.00000  Uiso   1.00
C1030  C     0.83388   0.83329   0.97659   0.00000  Uiso   1.00
C1031  C     0.80005   0.79350   0.54785   0.00000  Uiso   1.00
C1032  C     0.81809   0.73510   0.75116   0.00000  Uiso   1.00
C1033  C     0.86661   0.87317   0.95215   0.00000  Uiso   1.00
C1034  C     0.89648   0.91288   0.52176   0.00000  Uiso   1.00
C1035  C     0.77018   0.75379   0.97824   0.00000  Uiso   1.00
C1036  C     0.90114   0.99999   0.95663   0.00000  Uiso   1.00
C1037  C     0.93268   0.70768   0.92615   0.00000  Uiso   1.00
C1038  C     0.76553   0.66668   0.54337   0.00000  Uiso   1.00
C1039  C     0.73399   0.95899   0.57385   0.00000  Uiso   1.00
C1040  C     0.89663   0.91387   0.97485   0.00000  Uiso   1.00
C1041  C     0.77004   0.75280   0.52515   0.00000  Uiso   1.00
C1042  C     0.85663   0.98607   0.74817   0.00000  Uiso   1.00
C1043  C     0.81004   0.68060   0.75183   0.00000  Uiso   1.00
C1044  C     0.83402   0.83331   0.83641   0.00000  Uiso   1.00
C1045  C     0.83264   0.83336   0.66359   0.00000  Uiso   1.00
C1046  C     0.79898   0.79487   0.59459   0.00000  Uiso   1.00
H1047  H     0.77446   0.76501   0.61448   0.00000  Uiso   1.00
H1048  H     0.99544   0.87254   0.78406   0.00000  Uiso   1.00
H1049  H     0.90190   0.68138   0.99206   0.00000  Uiso   1.00
H1050  H     0.85563   0.99502   0.94727   0.00000  Uiso   1.00
H1051  H     0.93087   0.69513   0.89029   0.00000  Uiso   1.00
H1052  H     0.91225   0.74550   0.93120   0.00000  Uiso   1.00
H1053  H     0.97840   0.71327   0.93427   0.00000  Uiso   1.00
H1054  H     0.81104   0.67165   0.55273   0.00000  Uiso   1.00
H1055  H     0.76476   0.98529   0.50794   0.00000  Uiso   1.00
H1056  H     0.73580   0.97154   0.60971   0.00000  Uiso   1.00
H1057  H     0.68827   0.95339   0.56573   0.00000  Uiso   1.00
H1058  H     0.89221   0.90166   0.88552   0.00000  Uiso   1.00
H1059  H     0.75441   0.92117   0.56880   0.00000  Uiso   1.00
H1060  H     0.88920   0.90269   0.61028   0.00000  Uiso   1.00
H1061  H     0.77747   0.76398   0.88972   0.00000  Uiso   1.00
H1062  H     0.92106   0.94318   0.53929   0.00000  Uiso   1.00
H1063  H     0.74561   0.72348   0.96071   0.00000  Uiso   1.00
H1064  H     0.90064   0.66973   0.74468   0.00000  Uiso   1.00
H1065  H     0.76603   0.99694   0.75532   0.00000  Uiso   1.00
H1066  H     0.67123   0.79413   0.71594   0.00000  Uiso   1.00
N1067  N     0.98344   0.81932   0.73783   0.00000  Uiso   1.00
N1068  N     0.68322   0.84735   0.76217   0.00000  Uiso   1.00
O1069  O     0.79642   0.91286   0.75299   0.00000  Uiso   1.00
O1070  O     0.73774   0.71403   0.54907   0.00000  Uiso   1.00
O1071  O     0.87025   0.75381   0.74702   0.00000  Uiso   1.00
O1072  O     0.89280   0.90387   0.74519   0.00000  Uiso   1.00
O1073  O     0.77387   0.76279   0.75481   0.00000  Uiso   1.00
O1074  O     0.78514   0.83784   0.81997   0.00000  Uiso   1.00
O1075  O     0.88153   0.82883   0.68003   0.00000  Uiso   1.00
O1076  O     0.88152   0.82885   0.81218   0.00000  Uiso   1.00
O1077  O     0.78515   0.83781   0.68783   0.00000  Uiso   1.00
O1078  O     0.92892   0.95264   0.95094   0.00000  Uiso   1.00
Zn1079 Zn    0.76898   0.83933   0.75521   0.00000  Uiso   1.00
Zn1080 Zn    0.89769   0.82734   0.74479   0.00000  Uiso   1.00
loop_
_geom_bond_atom_site_label_1
_geom_bond_atom_site_label_2
_geom_bond_distance
_geom_bond_site_symmetry_2
_ccdc_geom_bond_type
C1     C22     1.399   .     S
C1     O52     1.285   .     A
C1     O49     1.277   .     A
C2     C4      1.390   .     A
C2     H38     1.085   .     S
C2     C13     1.388   .     A
C3     C26     1.390   .     A
C3     C25     1.417   .     S
C3     C5      1.389   .     A
C4     C24     1.417   .     S
C4     C6      1.389   .     A
C5     C7      1.382   .     A
C5     H40     1.086   .     S
C6     C8      1.382   .     A
C6     H41     1.086   .     S
C7     C9      1.412   .     A
C7     C14     1.397   .     A
C8     C15     1.397   .     A
C8     C10     1.412   .     A
C9     C11     1.417   .     A
C9     C550    1.391   1_554 S
C10    C13     1.417   .     A
C10    C549    1.391   .     S
C11    C26     1.388   .     A
C11    C21     1.408   .     A
C12    C23     1.399   .     S
C12    O51     1.277   .     A
C12    O53     1.285   .     A
C13    C20     1.408   .     A
C14    H42     1.084   .     S
C14    C560    1.396   1_554 S
C15    H43     1.084   .     S
C15    C561    1.396   .     S
C16    O58     1.413   .     S
C16    H30     1.115   .     S
C16    C197    1.521   .     S
C16    H209    1.113   .     S
C17    H33     1.110   .     S
C17    H31     1.111   .     S
C17    H32     1.110   .     S
C17    C376    1.521   1_545 S
C18    H34     1.115   .     S
C18    O50     1.413   .     S
C18    C379    1.521   1_545 S
C18    H395    1.113   1_545 S
C19    H36     1.111   .     S
C19    H39     1.110   .     S
C19    H37     1.110   .     S
C19    C198    1.521   .     S
C20    O58     1.385   .     S
C20    C554    1.396   .     S
C21    O50     1.385   .     S
C21    C555    1.396   1_554 S
C22    C203    1.334   .     S
C22    H224    1.088   .     S
C23    C382    1.334   1_545 S
C23    H405    1.088   1_545 S
C24    O56     1.287   .     A
C24    O54     1.285   .     A
C25    O57     1.287   .     A
C25    O55     1.285   .     A
C26    H27     1.085   .     S
H28    N108    1.029   .     S
H29    C376    1.113   1_545 S
H35    C198    1.113   .     S
H44    C382    1.088   1_545 S
H45    C203    1.088   .     S
H46    N167    1.029   1_455 S
N47    Zn60    2.018   .     S
N47    H106    1.029   .     S
N47    N108    1.275   .     S
N48    Zn59    2.018   .     S
N48    H148    1.029   1_455 S
N48    N167    1.275   1_455 S
O49    Zn59    1.953   .     S
O51    Zn60    1.953   .     S
O52    Zn60    1.973   .     S
O53    Zn59    1.973   .     S
O54    Zn59    1.991   .     S
O55    Zn60    1.991   .     S
O56    Zn60    2.012   .     S
O57    Zn59    2.012   .     S
C61    C82     1.399   .     S
C61    O112    1.285   .     A
C61    O109    1.277   .     A
C62    C64     1.390   .     A
C62    H98     1.085   .     S
C62    C73     1.388   .     A
C63    C86     1.390   .     A
C63    C85     1.417   .     S
C63    C65     1.389   .     A
C64    C84     1.417   .     S
C64    C66     1.389   .     A
C65    C67     1.382   .     A
C65    H100    1.086   .     S
C66    C68     1.382   .     A
C66    H101    1.086   .     S
C67    C69     1.412   .     A
C67    C74     1.397   .     A
C68    C75     1.397   .     A
C68    C70     1.412   .     A
C69    C71     1.417   .     A
C69    C610    1.391   1_554 S
C70    C73     1.417   .     A
C70    C609    1.391   .     S
C71    C86     1.388   .     A
C71    C81     1.408   .     A
C72    C83     1.399   .     S
C72    O111    1.277   .     A
C72    O113    1.285   .     A
C73    C80     1.408   .     A
C74    H102    1.084   .     S
C74    C620    1.396   1_554 S
C75    H103    1.084   .     S
C75    C621    1.396   .     S
C76    O118    1.413   .     S
C76    H90     1.115   .     S
C76    C257    1.521   .     S
C76    H269    1.113   .     S
C77    H93     1.110   .     S
C77    H91     1.111   .     S
C77    H92     1.110   .     S
C77    C436    1.521   1_545 S
C78    H94     1.115   .     S
C78    O110    1.413   .     S
C78    C439    1.521   1_545 S
C78    H455    1.113   1_545 S
C79    H96     1.111   .     S
C79    H99     1.110   .     S
C79    H97     1.110   .     S
C79    C258    1.521   .     S
C80    O118    1.385   .     S
C80    C614    1.396   .     S
C81    O110    1.385   .     S
C81    C615    1.396   1_554 S
C82    C263    1.334   .     S
C82    H284    1.088   .     S
C83    C442    1.334   1_545 S
C83    H465    1.088   1_545 S
C84    O116    1.287   .     A
C84    O114    1.285   .     A
C85    O117    1.287   .     A
C85    O115    1.285   .     A
C86    H87     1.085   .     S
H88    N168    1.029   .     S
H89    C436    1.113   1_545 S
H95    C258    1.113   .     S
H104   C442    1.088   1_545 S
H105   C263    1.088   .     S
N107   Zn120   2.018   .     S
N107   H166    1.029   .     S
N107   N168    1.275   .     S
N108   Zn119   2.018   .     S
O109   Zn119   1.953   .     S
O111   Zn120   1.953   .     S
O112   Zn120   1.973   .     S
O113   Zn119   1.973   .     S
O114   Zn119   1.991   .     S
O115   Zn120   1.991   .     S
O116   Zn120   2.012   .     S
O117   Zn119   2.012   .     S
C121   C142    1.399   .     S
C121   O172    1.285   .     A
C121   O169    1.277   .     A
C122   C124    1.390   .     A
C122   H158    1.085   .     S
C122   C133    1.388   .     A
C123   C146    1.390   .     A
C123   C145    1.417   .     S
C123   C125    1.389   .     A
C124   C144    1.417   .     S
C124   C126    1.389   .     A
C125   C127    1.382   .     A
C125   H160    1.086   .     S
C126   C128    1.382   .     A
C126   H161    1.086   .     S
C127   C129    1.412   .     A
C127   C134    1.397   .     A
C128   C135    1.397   .     A
C128   C130    1.412   .     A
C129   C131    1.417   .     A
C129   C670    1.391   1_554 S
C130   C133    1.417   .     A
C130   C669    1.391   .     S
C131   C146    1.388   .     A
C131   C141    1.408   .     A
C132   C143    1.399   .     S
C132   O171    1.277   .     A
C132   O173    1.285   .     A
C133   C140    1.408   .     A
C134   H162    1.084   .     S
C134   C680    1.396   1_554 S
C135   H163    1.084   .     S
C135   C681    1.396   .     S
C136   O178    1.413   .     S
C136   H150    1.115   .     S
C136   C317    1.521   .     S
C136   H329    1.113   .     S
C137   H153    1.110   .     S
C137   H151    1.111   .     S
C137   H152    1.110   .     S
C137   C496    1.521   1_545 S
C138   H154    1.115   .     S
C138   O170    1.413   .     S
C138   C499    1.521   1_545 S
C138   H515    1.113   1_545 S
C139   H156    1.111   .     S
C139   H159    1.110   .     S
C139   H157    1.110   .     S
C139   C318    1.521   .     S
C140   O178    1.385   .     S
C140   C674    1.396   .     S
C141   O170    1.385   .     S
C141   C675    1.396   1_554 S
C142   C323    1.334   .     S
C142   H344    1.088   .     S
C143   C502    1.334   1_545 S
C143   H525    1.088   1_545 S
C144   O176    1.287   .     A
C144   O174    1.285   .     A
C145   O177    1.287   .     A
C145   O175    1.285   .     A
C146   H147    1.085   .     S
H148   N48     1.029   1_655 S
H149   C496    1.113   1_545 S
H155   C318    1.113   .     S
H164   C502    1.088   1_545 S
H165   C323    1.088   .     S
N167   Zn180   2.018   .     S
N167   H46     1.029   1_655 S
N167   N48     1.275   1_655 S
N168   Zn179   2.018   .     S
O169   Zn179   1.953   .     S
O171   Zn180   1.953   .     S
O172   Zn180   1.973   .     S
O173   Zn179   1.973   .     S
O174   Zn179   1.991   .     S
O175   Zn180   1.991   .     S
O176   Zn180   2.012   .     S
O177   Zn179   2.012   .     S
C181   C202    1.399   .     S
C181   O232    1.285   .     A
C181   O229    1.277   .     A
C182   C184    1.390   .     A
C182   H218    1.085   .     S
C182   C193    1.388   .     A
C183   C206    1.390   .     A
C183   C205    1.417   .     S
C183   C185    1.389   .     A
C184   C204    1.417   .     S
C184   C186    1.389   .     A
C185   C187    1.382   .     A
C185   H220    1.086   .     S
C186   C188    1.382   .     A
C186   H221    1.086   .     S
C187   C189    1.412   .     A
C187   C194    1.397   .     A
C188   C195    1.397   .     A
C188   C190    1.412   .     A
C189   C191    1.417   .     A
C189   C730    1.391   1_554 S
C190   C193    1.417   .     A
C190   C729    1.391   .     S
C191   C206    1.388   .     A
C191   C201    1.408   .     A
C192   C203    1.399   .     S
C192   O231    1.277   .     A
C192   O233    1.285   .     A
C193   C200    1.408   .     A
C194   H222    1.084   .     S
C194   C740    1.396   1_554 S
C195   H223    1.084   .     S
C195   C741    1.396   .     S
C196   O238    1.413   .     S
C196   H210    1.115   .     S
C196   C377    1.521   .     S
C196   H389    1.113   .     S
C197   H213    1.110   .     S
C197   H211    1.111   .     S
C197   H212    1.110   .     S
C198   H214    1.115   .     S
C198   O230    1.413   .     S
C199   H216    1.111   .     S
C199   H219    1.110   .     S
C199   H217    1.110   .     S
C199   C378    1.521   .     S
C200   O238    1.385   .     S
C200   C734    1.396   .     S
C201   O230    1.385   .     S
C201   C735    1.396   1_554 S
C202   C383    1.334   .     S
C202   H404    1.088   .     S
C204   O236    1.287   .     A
C204   O234    1.285   .     A
C205   O237    1.287   .     A
C205   O235    1.285   .     A
C206   H207    1.085   .     S
H208   N288    1.029   .     S
H215   C378    1.113   .     S
H225   C383    1.088   .     S
H226   N347    1.029   1_455 S
N227   Zn240   2.018   .     S
N227   H286    1.029   .     S
N227   N288    1.275   .     S
N228   Zn239   2.018   .     S
N228   H328    1.029   1_455 S
N228   N347    1.275   1_455 S
O229   Zn239   1.953   .     S
O231   Zn240   1.953   .     S
O232   Zn240   1.973   .     S
O233   Zn239   1.973   .     S
O234   Zn239   1.991   .     S
O235   Zn240   1.991   .     S
O236   Zn240   2.012   .     S
O237   Zn239   2.012   .     S
C241   C262    1.399   .     S
C241   O292    1.285   .     A
C241   O289    1.277   .     A
C242   C244    1.390   .     A
C242   H278    1.085   .     S
C242   C253    1.388   .     A
C243   C266    1.390   .     A
C243   C265    1.417   .     S
C243   C245    1.389   .     A
C244   C264    1.417   .     S
C244   C246    1.389   .     A
C245   C247    1.382   .     A
C245   H280    1.086   .     S
C246   C248    1.382   .     A
C246   H281    1.086   .     S
C247   C249    1.412   .     A
C247   C254    1.397   .     A
C248   C255    1.397   .     A
C248   C250    1.412   .     A
C249   C251    1.417   .     A
C249   C790    1.391   1_554 S
C250   C253    1.417   .     A
C250   C789    1.391   .     S
C251   C266    1.388   .     A
C251   C261    1.408   .     A
C252   C263    1.399   .     S
C252   O291    1.277   .     A
C252   O293    1.285   .     A
C253   C260    1.408   .     A
C254   H282    1.084   .     S
C254   C800    1.396   1_554 S
C255   H283    1.084   .     S
C255   C801    1.396   .     S
C256   O298    1.413   .     S
C256   H270    1.115   .     S
C256   C437    1.521   .     S
C256   H449    1.113   .     S
C257   H273    1.110   .     S
C257   H271    1.111   .     S
C257   H272    1.110   .     S
C258   H274    1.115   .     S
C258   O290    1.413   .     S
C259   H276    1.111   .     S
C259   H279    1.110   .     S
C259   H277    1.110   .     S
C259   C438    1.521   .     S
C260   O298    1.385   .     S
C260   C794    1.396   .     S
C261   O290    1.385   .     S
C261   C795    1.396   1_554 S
C262   C443    1.334   .     S
C262   H464    1.088   .     S
C264   O296    1.287   .     A
C264   O294    1.285   .     A
C265   O297    1.287   .     A
C265   O295    1.285   .     A
C266   H267    1.085   .     S
H268   N348    1.029   .     S
H275   C438    1.113   .     S
H285   C443    1.088   .     S
N287   Zn300   2.018   .     S
N287   H346    1.029   .     S
N287   N348    1.275   .     S
N288   Zn299   2.018   .     S
O289   Zn299   1.953   .     S
O291   Zn300   1.953   .     S
O292   Zn300   1.973   .     S
O293   Zn299   1.973   .     S
O294   Zn299   1.991   .     S
O295   Zn300   1.991   .     S
O296   Zn300   2.012   .     S
O297   Zn299   2.012   .     S
C301   C322    1.399   .     S
C301   O352    1.285   .     A
C301   O349    1.277   .     A
C302   C304    1.390   .     A
C302   H338    1.085   .     S
C302   C313    1.388   .     A
C303   C326    1.390   .     A
C303   C325    1.417   .     S
C303   C305    1.389   .     A
C304   C324    1.417   .     S
C304   C306    1.389   .     A
C305   C307    1.382   .     A
C305   H340    1.086   .     S
C306   C308    1.382   .     A
C306   H341    1.086   .     S
C307   C309    1.412   .     A
C307   C314    1.397   .     A
C308   C315    1.397   .     A
C308   C310    1.412   .     A
C309   C311    1.417   .     A
C309   C850    1.391   1_554 S
C310   C313    1.417   .     A
C310   C849    1.391   .     S
C311   C326    1.388   .     A
C311   C321    1.408   .     A
C312   C323    1.399   .     S
C312   O351    1.277   .     A
C312   O353    1.285   .     A
C313   C320    1.408   .     A
C314   H342    1.084   .     S
C314   C860    1.396   1_554 S
C315   H343    1.084   .     S
C315   C861    1.396   .     S
C316   O358    1.413   .     S
C316   H330    1.115   .     S
C316   C497    1.521   .     S
C316   H509    1.113   .     S
C317   H333    1.110   .     S
C317   H331    1.111   .     S
C317   H332    1.110   .     S
C318   H334    1.115   .     S
C318   O350    1.413   .     S
C319   H336    1.111   .     S
C319   H339    1.110   .     S
C319   H337    1.110   .     S
C319   C498    1.521   .     S
C320   O358    1.385   .     S
C320   C854    1.396   .     S
C321   O350    1.385   .     S
C321   C855    1.396   1_554 S
C322   C503    1.334   .     S
C322   H524    1.088   .     S
C324   O356    1.287   .     A
C324   O354    1.285   .     A
C325   O357    1.287   .     A
C325   O355    1.285   .     A
C326   H327    1.085   .     S
H328   N228    1.029   1_655 S
H335   C498    1.113   .     S
H345   C503    1.088   .     S
N347   Zn360   2.018   .     S
N347   H226    1.029   1_655 S
N347   N228    1.275   1_655 S
N348   Zn359   2.018   .     S
O349   Zn359   1.953   .     S
O351   Zn360   1.953   .     S
O352   Zn360   1.973   .     S
O353   Zn359   1.973   .     S
O354   Zn359   1.991   .     S
O355   Zn360   1.991   .     S
O356   Zn360   2.012   .     S
O357   Zn359   2.012   .     S
C361   C382    1.399   .     S
C361   O412    1.285   .     A
C361   O409    1.277   .     A
C362   C364    1.390   .     A
C362   H398    1.085   .     S
C362   C373    1.388   .     A
C363   C386    1.390   .     A
C363   C385    1.417   .     S
C363   C365    1.389   .     A
C364   C384    1.417   .     S
C364   C366    1.389   .     A
C365   C367    1.382   .     A
C365   H400    1.086   .     S
C366   C368    1.382   .     A
C366   H401    1.086   .     S
C367   C369    1.412   .     A
C367   C374    1.397   .     A
C368   C375    1.397   .     A
C368   C370    1.412   .     A
C369   C371    1.417   .     A
C369   C910    1.391   1_554 S
C370   C373    1.417   .     A
C370   C909    1.391   .     S
C371   C386    1.388   .     A
C371   C381    1.408   .     A
C372   C383    1.399   .     S
C372   O411    1.277   .     A
C372   O413    1.285   .     A
C373   C380    1.408   .     A
C374   H402    1.084   .     S
C374   C920    1.396   1_554 S
C375   H403    1.084   .     S
C375   C921    1.396   .     S
C376   O418    1.413   .     S
C376   H390    1.115   .     S
C376   C17     1.521   1_565 S
C376   H29     1.113   1_565 S
C377   H393    1.110   .     S
C377   H391    1.111   .     S
C377   H392    1.110   .     S
C378   H394    1.115   .     S
C378   O410    1.413   .     S
C379   H396    1.111   .     S
C379   H399    1.110   .     S
C379   H397    1.110   .     S
C379   C18     1.521   1_565 S
C380   O418    1.385   .     S
C380   C914    1.396   .     S
C381   O410    1.385   .     S
C381   C915    1.396   1_554 S
C382   C23     1.334   1_565 S
C382   H44     1.088   1_565 S
C384   O416    1.287   .     A
C384   O414    1.285   .     A
C385   O417    1.287   .     A
C385   O415    1.285   .     A
C386   H387    1.085   .     S
H388   N468    1.029   .     S
H395   C18     1.113   1_565 S
H405   C23     1.088   1_565 S
H406   N527    1.029   1_455 S
N407   Zn420   2.018   .     S
N407   H466    1.029   .     S
N407   N468    1.275   .     S
N408   Zn419   2.018   .     S
N408   H508    1.029   1_455 S
N408   N527    1.275   1_455 S
O409   Zn419   1.953   .     S
O411   Zn420   1.953   .     S
O412   Zn420   1.973   .     S
O413   Zn419   1.973   .     S
O414   Zn419   1.991   .     S
O415   Zn420   1.991   .     S
O416   Zn420   2.012   .     S
O417   Zn419   2.012   .     S
C421   C442    1.399   .     S
C421   O472    1.285   .     A
C421   O469    1.277   .     A
C422   C424    1.390   .     A
C422   H458    1.085   .     S
C422   C433    1.388   .     A
C423   C446    1.390   .     A
C423   C445    1.417   .     S
C423   C425    1.389   .     A
C424   C444    1.417   .     S
C424   C426    1.389   .     A
C425   C427    1.382   .     A
C425   H460    1.086   .     S
C426   C428    1.382   .     A
C426   H461    1.086   .     S
C427   C429    1.412   .     A
C427   C434    1.397   .     A
C428   C435    1.397   .     A
C428   C430    1.412   .     A
C429   C431    1.417   .     A
C429   C970    1.391   1_554 S
C430   C433    1.417   .     A
C430   C969    1.391   .     S
C431   C446    1.388   .     A
C431   C441    1.408   .     A
C432   C443    1.399   .     S
C432   O471    1.277   .     A
C432   O473    1.285   .     A
C433   C440    1.408   .     A
C434   H462    1.084   .     S
C434   C980    1.396   1_554 S
C435   H463    1.084   .     S
C435   C981    1.396   .     S
C436   O478    1.413   .     S
C436   H450    1.115   .     S
C436   C77     1.521   1_565 S
C436   H89     1.113   1_565 S
C437   H453    1.110   .     S
C437   H451    1.111   .     S
C437   H452    1.110   .     S
C438   H454    1.115   .     S
C438   O470    1.413   .     S
C439   H456    1.111   .     S
C439   H459    1.110   .     S
C439   H457    1.110   .     S
C439   C78     1.521   1_565 S
C440   O478    1.385   .     S
C440   C974    1.396   .     S
C441   O470    1.385   .     S
C441   C975    1.396   1_554 S
C442   C83     1.334   1_565 S
C442   H104    1.088   1_565 S
C444   O476    1.287   .     A
C444   O474    1.285   .     A
C445   O477    1.287   .     A
C445   O475    1.285   .     A
C446   H447    1.085   .     S
H448   N528    1.029   .     S
H455   C78     1.113   1_565 S
H465   C83     1.088   1_565 S
N467   Zn480   2.018   .     S
N467   H526    1.029   .     S
N467   N528    1.275   .     S
N468   Zn479   2.018   .     S
O469   Zn479   1.953   .     S
O471   Zn480   1.953   .     S
O472   Zn480   1.973   .     S
O473   Zn479   1.973   .     S
O474   Zn479   1.991   .     S
O475   Zn480   1.991   .     S
O476   Zn480   2.012   .     S
O477   Zn479   2.012   .     S
C481   C502    1.399   .     S
C481   O532    1.285   .     A
C481   O529    1.277   .     A
C482   C484    1.390   .     A
C482   H518    1.085   .     S
C482   C493    1.388   .     A
C483   C506    1.390   .     A
C483   C505    1.417   .     S
C483   C485    1.389   .     A
C484   C504    1.417   .     S
C484   C486    1.389   .     A
C485   C487    1.382   .     A
C485   H520    1.086   .     S
C486   C488    1.382   .     A
C486   H521    1.086   .     S
C487   C489    1.412   .     A
C487   C494    1.397   .     A
C488   C495    1.397   .     A
C488   C490    1.412   .     A
C489   C491    1.417   .     A
C489   C1030   1.391   1_554 S
C490   C493    1.417   .     A
C490   C1029   1.391   .     S
C491   C506    1.388   .     A
C491   C501    1.408   .     A
C492   C503    1.399   .     S
C492   O531    1.277   .     A
C492   O533    1.285   .     A
C493   C500    1.408   .     A
C494   H522    1.084   .     S
C494   C1040   1.396   1_554 S
C495   H523    1.084   .     S
C495   C1041   1.396   .     S
C496   O538    1.413   .     S
C496   H510    1.115   .     S
C496   C137    1.521   1_565 S
C496   H149    1.113   1_565 S
C497   H513    1.110   .     S
C497   H511    1.111   .     S
C497   H512    1.110   .     S
C498   H514    1.115   .     S
C498   O530    1.413   .     S
C499   H516    1.111   .     S
C499   H519    1.110   .     S
C499   H517    1.110   .     S
C499   C138    1.521   1_565 S
C500   O538    1.385   .     S
C500   C1034   1.396   .     S
C501   O530    1.385   .     S
C501   C1035   1.396   1_554 S
C502   C143    1.334   1_565 S
C502   H164    1.088   1_565 S
C504   O536    1.287   .     A
C504   O534    1.285   .     A
C505   O537    1.287   .     A
C505   O535    1.285   .     A
C506   H507    1.085   .     S
H508   N408    1.029   1_655 S
H515   C138    1.113   1_565 S
H525   C143    1.088   1_565 S
N527   Zn540   2.018   .     S
N527   H406    1.029   1_655 S
N527   N408    1.275   1_655 S
N528   Zn539   2.018   .     S
O529   Zn539   1.953   .     S
O531   Zn540   1.953   .     S
O532   Zn540   1.973   .     S
O533   Zn539   1.973   .     S
O534   Zn539   1.991   .     S
O535   Zn540   1.991   .     S
O536   Zn540   2.012   .     S
O537   Zn539   2.012   .     S
C541   C562    1.399   .     S
C541   O592    1.285   .     A
C541   O589    1.277   .     A
C542   C544    1.390   .     A
C542   H578    1.085   .     S
C542   C553    1.388   .     A
C543   C566    1.390   .     A
C543   C565    1.417   .     S
C543   C545    1.389   .     A
C544   C564    1.417   .     S
C544   C546    1.389   .     A
C545   C547    1.382   .     A
C545   H580    1.086   .     S
C546   C548    1.382   .     A
C546   H581    1.086   .     S
C547   C549    1.412   .     A
C547   C554    1.397   .     A
C548   C555    1.397   .     A
C548   C550    1.412   .     A
C549   C551    1.417   .     A
C550   C553    1.417   .     A
C550   C9      1.391   1_556 S
C551   C566    1.388   .     A
C551   C561    1.408   .     A
C552   C563    1.399   .     S
C552   O591    1.277   .     A
C552   O593    1.285   .     A
C553   C560    1.408   .     A
C554   H582    1.084   .     S
C555   H583    1.084   .     S
C555   C21     1.396   1_556 S
C556   O598    1.413   .     S
C556   H570    1.115   .     S
C556   C737    1.521   .     S
C556   H749    1.113   .     S
C557   H573    1.110   .     S
C557   H571    1.111   .     S
C557   H572    1.110   .     S
C557   C916    1.521   1_545 S
C558   H574    1.115   .     S
C558   O590    1.413   .     S
C558   C919    1.521   1_545 S
C558   H935    1.113   1_545 S
C559   H576    1.111   .     S
C559   H579    1.110   .     S
C559   H577    1.110   .     S
C559   C738    1.521   .     S
C560   O598    1.385   .     S
C560   C14     1.396   1_556 S
C561   O590    1.385   .     S
C562   C743    1.334   .     S
C562   H764    1.088   .     S
C563   C922    1.334   1_545 S
C563   H945    1.088   1_545 S
C564   O596    1.287   .     A
C564   O594    1.285   .     A
C565   O597    1.287   .     A
C565   O595    1.285   .     A
C566   H567    1.085   .     S
H568   N648    1.029   .     S
H569   C916    1.113   1_545 S
H575   C738    1.113   .     S
H584   C922    1.088   1_545 S
H585   C743    1.088   .     S
H586   N707    1.029   1_455 S
N587   Zn600   2.018   .     S
N587   H646    1.029   .     S
N587   N648    1.275   .     S
N588   Zn599   2.018   .     S
N588   H688    1.029   1_455 S
N588   N707    1.275   1_455 S
O589   Zn599   1.953   .     S
O591   Zn600   1.953   .     S
O592   Zn600   1.973   .     S
O593   Zn599   1.973   .     S
O594   Zn599   1.991   .     S
O595   Zn600   1.991   .     S
O596   Zn600   2.012   .     S
O597   Zn599   2.012   .     S
C601   C622    1.399   .     S
C601   O652    1.285   .     A
C601   O649    1.277   .     A
C602   C604    1.390   .     A
C602   H638    1.085   .     S
C602   C613    1.388   .     A
C603   C626    1.390   .     A
C603   C625    1.417   .     S
C603   C605    1.389   .     A
C604   C624    1.417   .     S
C604   C606    1.389   .     A
C605   C607    1.382   .     A
C605   H640    1.086   .     S
C606   C608    1.382   .     A
C606   H641    1.086   .     S
C607   C609    1.412   .     A
C607   C614    1.397   .     A
C608   C615    1.397   .     A
C608   C610    1.412   .     A
C609   C611    1.417   .     A
C610   C613    1.417   .     A
C610   C69     1.391   1_556 S
C611   C626    1.388   .     A
C611   C621    1.408   .     A
C612   C623    1.399   .     S
C612   O651    1.277   .     A
C612   O653    1.285   .     A
C613   C620    1.408   .     A
C614   H642    1.084   .     S
C615   H643    1.084   .     S
C615   C81     1.396   1_556 S
C616   O658    1.413   .     S
C616   H630    1.115   .     S
C616   C797    1.521   .     S
C616   H809    1.113   .     S
C617   H633    1.110   .     S
C617   H631    1.111   .     S
C617   H632    1.110   .     S
C617   C976    1.521   1_545 S
C618   H634    1.115   .     S
C618   O650    1.413   .     S
C618   C979    1.521   1_545 S
C618   H995    1.113   1_545 S
C619   H636    1.111   .     S
C619   H639    1.110   .     S
C619   H637    1.110   .     S
C619   C798    1.521   .     S
C620   O658    1.385   .     S
C620   C74     1.396   1_556 S
C621   O650    1.385   .     S
C622   C803    1.334   .     S
C622   H824    1.088   .     S
C623   C982    1.334   1_545 S
C623   H1005   1.088   1_545 S
C624   O656    1.287   .     A
C624   O654    1.285   .     A
C625   O657    1.287   .     A
C625   O655    1.285   .     A
C626   H627    1.085   .     S
H628   N708    1.029   .     S
H629   C976    1.113   1_545 S
H635   C798    1.113   .     S
H644   C982    1.088   1_545 S
H645   C803    1.088   .     S
N647   Zn660   2.018   .     S
N647   H706    1.029   .     S
N647   N708    1.275   .     S
N648   Zn659   2.018   .     S
O649   Zn659   1.953   .     S
O651   Zn660   1.953   .     S
O652   Zn660   1.973   .     S
O653   Zn659   1.973   .     S
O654   Zn659   1.991   .     S
O655   Zn660   1.991   .     S
O656   Zn660   2.012   .     S
O657   Zn659   2.012   .     S
C661   C682    1.399   .     S
C661   O712    1.285   .     A
C661   O709    1.277   .     A
C662   C664    1.390   .     A
C662   H698    1.085   .     S
C662   C673    1.388   .     A
C663   C686    1.390   .     A
C663   C685    1.417   .     S
C663   C665    1.389   .     A
C664   C684    1.417   .     S
C664   C666    1.389   .     A
C665   C667    1.382   .     A
C665   H700    1.086   .     S
C666   C668    1.382   .     A
C666   H701    1.086   .     S
C667   C669    1.412   .     A
C667   C674    1.397   .     A
C668   C675    1.397   .     A
C668   C670    1.412   .     A
C669   C671    1.417   .     A
C670   C673    1.417   .     A
C670   C129    1.391   1_556 S
C671   C686    1.388   .     A
C671   C681    1.408   .     A
C672   C683    1.399   .     S
C672   O711    1.277   .     A
C672   O713    1.285   .     A
C673   C680    1.408   .     A
C674   H702    1.084   .     S
C675   H703    1.084   .     S
C675   C141    1.396   1_556 S
C676   O718    1.413   .     S
C676   H690    1.115   .     S
C676   C857    1.521   .     S
C676   H869    1.113   .     S
C677   H693    1.110   .     S
C677   H691    1.111   .     S
C677   H692    1.110   .     S
C677   C1036   1.521   1_545 S
C678   H694    1.115   .     S
C678   O710    1.413   .     S
C678   C1039   1.521   1_545 S
C678   H1055   1.113   1_545 S
C679   H696    1.111   .     S
C679   H699    1.110   .     S
C679   H697    1.110   .     S
C679   C858    1.521   .     S
C680   O718    1.385   .     S
C680   C134    1.396   1_556 S
C681   O710    1.385   .     S
C682   C863    1.334   .     S
C682   H884    1.088   .     S
C683   C1042   1.334   1_545 S
C683   H1065   1.088   1_545 S
C684   O716    1.287   .     A
C684   O714    1.285   .     A
C685   O717    1.287   .     A
C685   O715    1.285   .     A
C686   H687    1.085   .     S
H688   N588    1.029   1_655 S
H689   C1036   1.113   1_545 S
H695   C858    1.113   .     S
H704   C1042   1.088   1_545 S
H705   C863    1.088   .     S
N707   Zn720   2.018   .     S
N707   H586    1.029   1_655 S
N707   N588    1.275   1_655 S
N708   Zn719   2.018   .     S
O709   Zn719   1.953   .     S
O711   Zn720   1.953   .     S
O712   Zn720   1.973   .     S
O713   Zn719   1.973   .     S
O714   Zn719   1.991   .     S
O715   Zn720   1.991   .     S
O716   Zn720   2.012   .     S
O717   Zn719   2.012   .     S
C721   C742    1.399   .     S
C721   O772    1.285   .     A
C721   O769    1.277   .     A
C722   C724    1.390   .     A
C722   H758    1.085   .     S
C722   C733    1.388   .     A
C723   C746    1.390   .     A
C723   C745    1.417   .     S
C723   C725    1.389   .     A
C724   C744    1.417   .     S
C724   C726    1.389   .     A
C725   C727    1.382   .     A
C725   H760    1.086   .     S
C726   C728    1.382   .     A
C726   H761    1.086   .     S
C727   C729    1.412   .     A
C727   C734    1.397   .     A
C728   C735    1.397   .     A
C728   C730    1.412   .     A
C729   C731    1.417   .     A
C730   C733    1.417   .     A
C730   C189    1.391   1_556 S
C731   C746    1.388   .     A
C731   C741    1.408   .     A
C732   C743    1.399   .     S
C732   O771    1.277   .     A
C732   O773    1.285   .     A
C733   C740    1.408   .     A
C734   H762    1.084   .     S
C735   H763    1.084   .     S
C735   C201    1.396   1_556 S
C736   O778    1.413   .     S
C736   H750    1.115   .     S
C736   C917    1.521   .     S
C736   H929    1.113   .     S
C737   H753    1.110   .     S
C737   H751    1.111   .     S
C737   H752    1.110   .     S
C738   H754    1.115   .     S
C738   O770    1.413   .     S
C739   H756    1.111   .     S
C739   H759    1.110   .     S
C739   H757    1.110   .     S
C739   C918    1.521   .     S
C740   O778    1.385   .     S
C740   C194    1.396   1_556 S
C741   O770    1.385   .     S
C742   C923    1.334   .     S
C742   H944    1.088   .     S
C744   O776    1.287   .     A
C744   O774    1.285   .     A
C745   O777    1.287   .     A
C745   O775    1.285   .     A
C746   H747    1.085   .     S
H748   N828    1.029   .     S
H755   C918    1.113   .     S
H765   C923    1.088   .     S
H766   N887    1.029   1_455 S
N767   Zn780   2.018   .     S
N767   H826    1.029   .     S
N767   N828    1.275   .     S
N768   Zn779   2.018   .     S
N768   H868    1.029   1_455 S
N768   N887    1.275   1_455 S
O769   Zn779   1.953   .     S
O771   Zn780   1.953   .     S
O772   Zn780   1.973   .     S
O773   Zn779   1.973   .     S
O774   Zn779   1.991   .     S
O775   Zn780   1.991   .     S
O776   Zn780   2.012   .     S
O777   Zn779   2.012   .     S
C781   C802    1.399   .     S
C781   O832    1.285   .     A
C781   O829    1.277   .     A
C782   C784    1.390   .     A
C782   H818    1.085   .     S
C782   C793    1.388   .     A
C783   C806    1.390   .     A
C783   C805    1.417   .     S
C783   C785    1.389   .     A
C784   C804    1.417   .     S
C784   C786    1.389   .     A
C785   C787    1.382   .     A
C785   H820    1.086   .     S
C786   C788    1.382   .     A
C786   H821    1.086   .     S
C787   C789    1.412   .     A
C787   C794    1.397   .     A
C788   C795    1.397   .     A
C788   C790    1.412   .     A
C789   C791    1.417   .     A
C790   C793    1.417   .     A
C790   C249    1.391   1_556 S
C791   C806    1.388   .     A
C791   C801    1.408   .     A
C792   C803    1.399   .     S
C792   O831    1.277   .     A
C792   O833    1.285   .     A
C793   C800    1.408   .     A
C794   H822    1.084   .     S
C795   H823    1.084   .     S
C795   C261    1.396   1_556 S
C796   O838    1.413   .     S
C796   H810    1.115   .     S
C796   C977    1.521   .     S
C796   H989    1.113   .     S
C797   H813    1.110   .     S
C797   H811    1.111   .     S
C797   H812    1.110   .     S
C798   H814    1.115   .     S
C798   O830    1.413   .     S
C799   H816    1.111   .     S
C799   H819    1.110   .     S
C799   H817    1.110   .     S
C799   C978    1.521   .     S
C800   O838    1.385   .     S
C800   C254    1.396   1_556 S
C801   O830    1.385   .     S
C802   C983    1.334   .     S
C802   H1004   1.088   .     S
C804   O836    1.287   .     A
C804   O834    1.285   .     A
C805   O837    1.287   .     A
C805   O835    1.285   .     A
C806   H807    1.085   .     S
H808   N888    1.029   .     S
H815   C978    1.113   .     S
H825   C983    1.088   .     S
N827   Zn840   2.018   .     S
N827   H886    1.029   .     S
N827   N888    1.275   .     S
N828   Zn839   2.018   .     S
O829   Zn839   1.953   .     S
O831   Zn840   1.953   .     S
O832   Zn840   1.973   .     S
O833   Zn839   1.973   .     S
O834   Zn839   1.991   .     S
O835   Zn840   1.991   .     S
O836   Zn840   2.012   .     S
O837   Zn839   2.012   .     S
C841   C862    1.399   .     S
C841   O892    1.285   .     A
C841   O889    1.277   .     A
C842   C844    1.390   .     A
C842   H878    1.085   .     S
C842   C853    1.388   .     A
C843   C866    1.390   .     A
C843   C865    1.417   .     S
C843   C845    1.389   .     A
C844   C864    1.417   .     S
C844   C846    1.389   .     A
C845   C847    1.382   .     A
C845   H880    1.086   .     S
C846   C848    1.382   .     A
C846   H881    1.086   .     S
C847   C849    1.412   .     A
C847   C854    1.397   .     A
C848   C855    1.397   .     A
C848   C850    1.412   .     A
C849   C851    1.417   .     A
C850   C853    1.417   .     A
C850   C309    1.391   1_556 S
C851   C866    1.388   .     A
C851   C861    1.408   .     A
C852   C863    1.399   .     S
C852   O891    1.277   .     A
C852   O893    1.285   .     A
C853   C860    1.408   .     A
C854   H882    1.084   .     S
C855   H883    1.084   .     S
C855   C321    1.396   1_556 S
C856   O898    1.413   .     S
C856   H870    1.115   .     S
C856   C1037   1.521   .     S
C856   H1049   1.113   .     S
C857   H873    1.110   .     S
C857   H871    1.111   .     S
C857   H872    1.110   .     S
C858   H874    1.115   .     S
C858   O890    1.413   .     S
C859   H876    1.111   .     S
C859   H879    1.110   .     S
C859   H877    1.110   .     S
C859   C1038   1.521   .     S
C860   O898    1.385   .     S
C860   C314    1.396   1_556 S
C861   O890    1.385   .     S
C862   C1043   1.334   .     S
C862   H1064   1.088   .     S
C864   O896    1.287   .     A
C864   O894    1.285   .     A
C865   O897    1.287   .     A
C865   O895    1.285   .     A
C866   H867    1.085   .     S
H868   N768    1.029   1_655 S
H875   C1038   1.113   .     S
H885   C1043   1.088   .     S
N887   Zn900   2.018   .     S
N887   H766    1.029   1_655 S
N887   N768    1.275   1_655 S
N888   Zn899   2.018   .     S
O889   Zn899   1.953   .     S
O891   Zn900   1.953   .     S
O892   Zn900   1.973   .     S
O893   Zn899   1.973   .     S
O894   Zn899   1.991   .     S
O895   Zn900   1.991   .     S
O896   Zn900   2.012   .     S
O897   Zn899   2.012   .     S
C901   C922    1.399   .     S
C901   O952    1.285   .     A
C901   O949    1.277   .     A
C902   C904    1.390   .     A
C902   H938    1.085   .     S
C902   C913    1.388   .     A
C903   C926    1.390   .     A
C903   C925    1.417   .     S
C903   C905    1.389   .     A
C904   C924    1.417   .     S
C904   C906    1.389   .     A
C905   C907    1.382   .     A
C905   H940    1.086   .     S
C906   C908    1.382   .     A
C906   H941    1.086   .     S
C907   C909    1.412   .     A
C907   C914    1.397   .     A
C908   C915    1.397   .     A
C908   C910    1.412   .     A
C909   C911    1.417   .     A
C910   C913    1.417   .     A
C910   C369    1.391   1_556 S
C911   C926    1.388   .     A
C911   C921    1.408   .     A
C912   C923    1.399   .     S
C912   O951    1.277   .     A
C912   O953    1.285   .     A
C913   C920    1.408   .     A
C914   H942    1.084   .     S
C915   H943    1.084   .     S
C915   C381    1.396   1_556 S
C916   O958    1.413   .     S
C916   H930    1.115   .     S
C916   C557    1.521   1_565 S
C916   H569    1.113   1_565 S
C917   H933    1.110   .     S
C917   H931    1.111   .     S
C917   H932    1.110   .     S
C918   H934    1.115   .     S
C918   O950    1.413   .     S
C919   H936    1.111   .     S
C919   H939    1.110   .     S
C919   H937    1.110   .     S
C919   C558    1.521   1_565 S
C920   O958    1.385   .     S
C920   C374    1.396   1_556 S
C921   O950    1.385   .     S
C922   C563    1.334   1_565 S
C922   H584    1.088   1_565 S
C924   O956    1.287   .     A
C924   O954    1.285   .     A
C925   O957    1.287   .     A
C925   O955    1.285   .     A
C926   H927    1.085   .     S
H928   N1008   1.029   .     S
H935   C558    1.113   1_565 S
H945   C563    1.088   1_565 S
H946   N1067   1.029   1_455 S
N947   Zn960   2.018   .     S
N947   H1006   1.029   .     S
N947   N1008   1.275   .     S
N948   Zn959   2.018   .     S
N948   H1048   1.029   1_455 S
N948   N1067   1.275   1_455 S
O949   Zn959   1.953   .     S
O951   Zn960   1.953   .     S
O952   Zn960   1.973   .     S
O953   Zn959   1.973   .     S
O954   Zn959   1.991   .     S
O955   Zn960   1.991   .     S
O956   Zn960   2.012   .     S
O957   Zn959   2.012   .     S
C961   C982    1.399   .     S
C961   O1012   1.285   .     A
C961   O1009   1.277   .     A
C962   C964    1.390   .     A
C962   H998    1.085   .     S
C962   C973    1.388   .     A
C963   C986    1.390   .     A
C963   C985    1.417   .     S
C963   C965    1.389   .     A
C964   C984    1.417   .     S
C964   C966    1.389   .     A
C965   C967    1.382   .     A
C965   H1000   1.086   .     S
C966   C968    1.382   .     A
C966   H1001   1.086   .     S
C967   C969    1.412   .     A
C967   C974    1.397   .     A
C968   C975    1.397   .     A
C968   C970    1.412   .     A
C969   C971    1.417   .     A
C970   C973    1.417   .     A
C970   C429    1.391   1_556 S
C971   C986    1.388   .     A
C971   C981    1.408   .     A
C972   C983    1.399   .     S
C972   O1011   1.277   .     A
C972   O1013   1.285   .     A
C973   C980    1.408   .     A
C974   H1002   1.084   .     S
C975   H1003   1.084   .     S
C975   C441    1.396   1_556 S
C976   O1018   1.413   .     S
C976   H990    1.115   .     S
C976   C617    1.521   1_565 S
C976   H629    1.113   1_565 S
C977   H993    1.110   .     S
C977   H991    1.111   .     S
C977   H992    1.110   .     S
C978   H994    1.115   .     S
C978   O1010   1.413   .     S
C979   H996    1.111   .     S
C979   H999    1.110   .     S
C979   H997    1.110   .     S
C979   C618    1.521   1_565 S
C980   O1018   1.385   .     S
C980   C434    1.396   1_556 S
C981   O1010   1.385   .     S
C982   C623    1.334   1_565 S
C982   H644    1.088   1_565 S
C984   O1016   1.287   .     A
C984   O1014   1.285   .     A
C985   O1017   1.287   .     A
C985   O1015   1.285   .     A
C986   H987    1.085   .     S
H988   N1068   1.029   .     S
H995   C618    1.113   1_565 S
H1005  C623    1.088   1_565 S
N1007  Zn1020  2.018   .     S
N1007  H1066   1.029   .     S
N1007  N1068   1.275   .     S
N1008  Zn1019  2.018   .     S
O1009  Zn1019  1.953   .     S
O1011  Zn1020  1.953   .     S
O1012  Zn1020  1.973   .     S
O1013  Zn1019  1.973   .     S
O1014  Zn1019  1.991   .     S
O1015  Zn1020  1.991   .     S
O1016  Zn1020  2.012   .     S
O1017  Zn1019  2.012   .     S
C1021  C1042   1.399   .     S
C1021  O1072   1.285   .     A
C1021  O1069   1.277   .     A
C1022  C1024   1.390   .     A
C1022  H1058   1.085   .     S
C1022  C1033   1.388   .     A
C1023  C1046   1.390   .     A
C1023  C1045   1.417   .     S
C1023  C1025   1.389   .     A
C1024  C1044   1.417   .     S
C1024  C1026   1.389   .     A
C1025  C1027   1.382   .     A
C1025  H1060   1.086   .     S
C1026  C1028   1.382   .     A
C1026  H1061   1.086   .     S
C1027  C1029   1.412   .     A
C1027  C1034   1.397   .     A
C1028  C1035   1.397   .     A
C1028  C1030   1.412   .     A
C1029  C1031   1.417   .     A
C1030  C1033   1.417   .     A
C1030  C489    1.391   1_556 S
C1031  C1046   1.388   .     A
C1031  C1041   1.408   .     A
C1032  C1043   1.399   .     S
C1032  O1071   1.277   .     A
C1032  O1073   1.285   .     A
C1033  C1040   1.408   .     A
C1034  H1062   1.084   .     S
C1035  H1063   1.084   .     S
C1035  C501    1.396   1_556 S
C1036  O1078   1.413   .     S
C1036  H1050   1.115   .     S
C1036  C677    1.521   1_565 S
C1036  H689    1.113   1_565 S
C1037  H1053   1.110   .     S
C1037  H1051   1.111   .     S
C1037  H1052   1.110   .     S
C1038  H1054   1.115   .     S
C1038  O1070   1.413   .     S
C1039  H1056   1.111   .     S
C1039  H1059   1.110   .     S
C1039  H1057   1.110   .     S
C1039  C678    1.521   1_565 S
C1040  O1078   1.385   .     S
C1040  C494    1.396   1_556 S
C1041  O1070   1.385   .     S
C1042  C683    1.334   1_565 S
C1042  H704    1.088   1_565 S
C1044  O1076   1.287   .     A
C1044  O1074   1.285   .     A
C1045  O1077   1.287   .     A
C1045  O1075   1.285   .     A
C1046  H1047   1.085   .     S
H1048  N948    1.029   1_655 S
H1055  C678    1.113   1_565 S
H1065  C683    1.088   1_565 S
N1067  Zn1080  2.018   .     S
N1067  H946    1.029   1_655 S
N1067  N948    1.275   1_655 S
N1068  Zn1079  2.018   .     S
O1069  Zn1079  1.953   .     S
O1071  Zn1080  1.953   .     S
O1072  Zn1080  1.973   .     S
O1073  Zn1079  1.973   .     S
O1074  Zn1079  1.991   .     S
O1075  Zn1080  1.991   .     S
O1076  Zn1080  2.012   .     S
O1077  Zn1079  2.012   .     S
