data_str_m3_o1_o18_pcu_sym.90
_audit_creation_date              2020-01-03
_audit_creation_method            'Materials Studio'
_symmetry_space_group_name_H-M    'P1'
_symmetry_Int_Tables_number       1
_symmetry_cell_setting            triclinic
loop_
_symmetry_equiv_pos_as_xyz
  x,y,z
_cell_length_a                    29.7028
_cell_length_b                    31.9795
_cell_length_c                    30.9564
_cell_angle_alpha                 91.0224
_cell_angle_beta                  68.4888
_cell_angle_gamma                 90.6586
loop_
_atom_site_label
_atom_site_type_symbol
_atom_site_fract_x
_atom_site_fract_y
_atom_site_fract_z
_atom_site_U_iso_or_equiv
_atom_site_adp_type
_atom_site_occupancy
C1     C     0.16663   0.24660   0.25051   0.00000  Uiso   1.00
C2     C     0.12398   0.31220   0.27570   0.00000  Uiso   1.00
C3     C     0.16668   0.04258   0.24868   0.00000  Uiso   1.00
C4     C     0.16662   0.29075   0.25059   0.00000  Uiso   1.00
C5     C     0.31792   0.13673   0.22603   0.00000  Uiso   1.00
C6     C     0.01562   0.19634   0.27410   0.00000  Uiso   1.00
C7     C     0.03284   0.13673   0.22549   0.00000  Uiso   1.00
C8     C     0.30130   0.19702   0.27398   0.00000  Uiso   1.00
C9     C     0.13651   0.16747   0.33786   0.00000  Uiso   1.00
C10    C     0.19680   0.16767   0.16213   0.00000  Uiso   1.00
C11    C     0.11788   0.17195   0.38827   0.00000  Uiso   1.00
C12    C     0.16675   0.08674   0.24926   0.00000  Uiso   1.00
C13    C     0.21436   0.17623   0.11252   0.00000  Uiso   1.00
C14    C     0.05364   0.16665   0.46334   0.00000  Uiso   1.00
C15    C     0.27158   0.20826   0.04373   0.00000  Uiso   1.00
C16    C     0.06929   0.16404   0.41515   0.00000  Uiso   1.00
C17    C     0.25995   0.19404   0.08898   0.00000  Uiso   1.00
C18    C     0.14999   0.18451   0.40950   0.00000  Uiso   1.00
C19    C     0.18099   0.17277   0.09073   0.00000  Uiso   1.00
C20    C     0.13508   0.18793   0.45770   0.00000  Uiso   1.00
C21    C     0.19025   0.19001   0.04731   0.00000  Uiso   1.00
C22    C     0.08636   0.17764   0.48483   0.00000  Uiso   1.00
C23    C     0.10490   0.18302   0.05410   0.00000  Uiso   1.00
C24    C     0.23717   0.20582   0.02246   0.00000  Uiso   1.00
C25    C     0.16843   0.19766   0.47951   0.00000  Uiso   1.00
C26    C     0.15437   0.19010   0.02745   0.00000  Uiso   1.00
C27    C     0.06743   0.09311   0.15547   0.00000  Uiso   1.00
C28    C     0.28407   0.27140   0.28523   0.00000  Uiso   1.00
C29    C     0.21546   0.21382   0.45518   0.00000  Uiso   1.00
C30    C     0.07135   0.17725   0.03300   0.00000  Uiso   1.00
C31    C     0.24887   0.21873   0.47685   0.00000  Uiso   1.00
C32    C     0.20901   0.31158   0.22420   0.00000  Uiso   1.00
C33    C     0.12405   0.02173   0.27447   0.00000  Uiso   1.00
C34    C     0.20923   0.02113   0.22333   0.00000  Uiso   1.00
F35    F     0.25026   0.04153   0.19707   0.00000  Uiso   1.00
F36    F     0.08294   0.29183   0.30200   0.00000  Uiso   1.00
H37    H     0.03400   0.17069   0.05434   0.00000  Uiso   1.00
H38    H     0.22689   0.22414   0.41975   0.00000  Uiso   1.00
H39    H     0.24141   0.29465   0.20370   0.00000  Uiso   1.00
H40    H     0.09136   0.03864   0.29433   0.00000  Uiso   1.00
H41    H     0.30604   0.11266   0.20761   0.00000  Uiso   1.00
H42    H     0.02698   0.21945   0.29401   0.00000  Uiso   1.00
H43    H     0.06314   0.07881   0.22199   0.00000  Uiso   1.00
H44    H     0.10174   0.07634   0.13663   0.00000  Uiso   1.00
H45    H     0.06632   0.12137   0.13564   0.00000  Uiso   1.00
H46    H     0.03675   0.07204   0.15749   0.00000  Uiso   1.00
H47    H     0.23355   0.22351   0.31136   0.00000  Uiso   1.00
H48    H     0.28444   0.23139   0.45738   0.00000  Uiso   1.00
H49    H     0.25567   0.29355   0.30636   0.00000  Uiso   1.00
H50    H     0.28881   0.27440   0.24815   0.00000  Uiso   1.00
H51    H     0.31839   0.28012   0.28969   0.00000  Uiso   1.00
H52    H     0.14745   0.15645   0.10843   0.00000  Uiso   1.00
H53    H     0.18734   0.18944   0.38784   0.00000  Uiso   1.00
H54    H     0.28587   0.19796   0.10587   0.00000  Uiso   1.00
H55    H     0.04389   0.15463   0.39906   0.00000  Uiso   1.00
H56    H     0.01646   0.15862   0.48376   0.00000  Uiso   1.00
H57    H     0.30700   0.22181   0.02573   0.00000  Uiso   1.00
H58    H     0.09118   0.18277   0.09156   0.00000  Uiso   1.00
N59    N     0.04759   0.16668   0.25001   0.00000  Uiso   1.00
N60    N     0.28574   0.16666   0.24999   0.00000  Uiso   1.00
N61    N     0.06547   0.10448   0.20159   0.00000  Uiso   1.00
N62    N     0.26993   0.22907   0.30049   0.00000  Uiso   1.00
O63    O     0.12846   0.22775   0.25000   0.00000  Uiso   1.00
O64    O     0.20488   0.10558   0.24999   0.00000  Uiso   1.00
O65    O     0.20490   0.22774   0.25000   0.00000  Uiso   1.00
O66    O     0.12843   0.10559   0.25000   0.00000  Uiso   1.00
O67    O     0.10661   0.16667   0.31613   0.00000  Uiso   1.00
O68    O     0.22672   0.16666   0.18387   0.00000  Uiso   1.00
O69    O     0.18305   0.16666   0.31612   0.00000  Uiso   1.00
O70    O     0.15028   0.16667   0.18388   0.00000  Uiso   1.00
Zn71   Zn    0.11562   0.16667   0.25000   0.00000  Uiso   1.00
Zn72   Zn    0.21771   0.16666   0.25000   0.00000  Uiso   1.00
C73    C     0.49996   0.24660   0.25051   0.00000  Uiso   1.00
C74    C     0.45731   0.31220   0.27570   0.00000  Uiso   1.00
C75    C     0.50001   0.04258   0.24868   0.00000  Uiso   1.00
C76    C     0.49995   0.29075   0.25059   0.00000  Uiso   1.00
C77    C     0.65126   0.13673   0.22603   0.00000  Uiso   1.00
C78    C     0.34896   0.19634   0.27410   0.00000  Uiso   1.00
C79    C     0.36618   0.13673   0.22549   0.00000  Uiso   1.00
C80    C     0.63464   0.19702   0.27398   0.00000  Uiso   1.00
C81    C     0.46984   0.16747   0.33786   0.00000  Uiso   1.00
C82    C     0.53014   0.16767   0.16213   0.00000  Uiso   1.00
C83    C     0.45122   0.17195   0.38827   0.00000  Uiso   1.00
C84    C     0.50008   0.08674   0.24926   0.00000  Uiso   1.00
C85    C     0.54769   0.17623   0.11252   0.00000  Uiso   1.00
C86    C     0.38698   0.16665   0.46334   0.00000  Uiso   1.00
C87    C     0.60491   0.20826   0.04373   0.00000  Uiso   1.00
C88    C     0.40262   0.16404   0.41515   0.00000  Uiso   1.00
C89    C     0.59329   0.19404   0.08898   0.00000  Uiso   1.00
C90    C     0.48333   0.18451   0.40950   0.00000  Uiso   1.00
C91    C     0.51433   0.17277   0.09073   0.00000  Uiso   1.00
C92    C     0.46841   0.18793   0.45770   0.00000  Uiso   1.00
C93    C     0.52358   0.19001   0.04731   0.00000  Uiso   1.00
C94    C     0.41969   0.17764   0.48483   0.00000  Uiso   1.00
C95    C     0.43823   0.18302   0.05410   0.00000  Uiso   1.00
C96    C     0.57050   0.20582   0.02246   0.00000  Uiso   1.00
C97    C     0.50176   0.19766   0.47951   0.00000  Uiso   1.00
C98    C     0.48770   0.19010   0.02745   0.00000  Uiso   1.00
C99    C     0.40077   0.09311   0.15547   0.00000  Uiso   1.00
C100   C     0.61740   0.27140   0.28523   0.00000  Uiso   1.00
C101   C     0.54879   0.21382   0.45518   0.00000  Uiso   1.00
C102   C     0.40468   0.17725   0.03300   0.00000  Uiso   1.00
C103   C     0.58220   0.21873   0.47685   0.00000  Uiso   1.00
C104   C     0.54234   0.31158   0.22420   0.00000  Uiso   1.00
C105   C     0.45738   0.02173   0.27447   0.00000  Uiso   1.00
C106   C     0.54256   0.02113   0.22333   0.00000  Uiso   1.00
F107   F     0.58359   0.04153   0.19707   0.00000  Uiso   1.00
F108   F     0.41627   0.29183   0.30200   0.00000  Uiso   1.00
H109   H     0.36734   0.17069   0.05434   0.00000  Uiso   1.00
H110   H     0.56023   0.22414   0.41975   0.00000  Uiso   1.00
H111   H     0.57474   0.29465   0.20370   0.00000  Uiso   1.00
H112   H     0.42469   0.03864   0.29433   0.00000  Uiso   1.00
H113   H     0.63938   0.11266   0.20761   0.00000  Uiso   1.00
H114   H     0.36031   0.21945   0.29401   0.00000  Uiso   1.00
H115   H     0.39647   0.07881   0.22199   0.00000  Uiso   1.00
H116   H     0.43508   0.07634   0.13663   0.00000  Uiso   1.00
H117   H     0.39966   0.12137   0.13564   0.00000  Uiso   1.00
H118   H     0.37009   0.07204   0.15749   0.00000  Uiso   1.00
H119   H     0.56689   0.22351   0.31136   0.00000  Uiso   1.00
H120   H     0.61777   0.23139   0.45738   0.00000  Uiso   1.00
H121   H     0.58900   0.29355   0.30636   0.00000  Uiso   1.00
H122   H     0.62215   0.27440   0.24815   0.00000  Uiso   1.00
H123   H     0.65173   0.28012   0.28969   0.00000  Uiso   1.00
H124   H     0.48078   0.15645   0.10843   0.00000  Uiso   1.00
H125   H     0.52067   0.18944   0.38784   0.00000  Uiso   1.00
H126   H     0.61920   0.19796   0.10587   0.00000  Uiso   1.00
H127   H     0.37722   0.15463   0.39906   0.00000  Uiso   1.00
H128   H     0.34980   0.15862   0.48376   0.00000  Uiso   1.00
H129   H     0.64033   0.22181   0.02573   0.00000  Uiso   1.00
H130   H     0.42451   0.18277   0.09156   0.00000  Uiso   1.00
N131   N     0.38093   0.16668   0.25001   0.00000  Uiso   1.00
N132   N     0.61907   0.16666   0.24999   0.00000  Uiso   1.00
N133   N     0.39881   0.10448   0.20159   0.00000  Uiso   1.00
N134   N     0.60326   0.22907   0.30049   0.00000  Uiso   1.00
O135   O     0.46179   0.22775   0.25000   0.00000  Uiso   1.00
O136   O     0.53821   0.10558   0.24999   0.00000  Uiso   1.00
O137   O     0.53823   0.22774   0.25000   0.00000  Uiso   1.00
O138   O     0.46177   0.10559   0.25000   0.00000  Uiso   1.00
O139   O     0.43994   0.16667   0.31613   0.00000  Uiso   1.00
O140   O     0.56006   0.16666   0.18387   0.00000  Uiso   1.00
O141   O     0.51639   0.16666   0.31612   0.00000  Uiso   1.00
O142   O     0.48361   0.16667   0.18388   0.00000  Uiso   1.00
Zn143  Zn    0.44896   0.16667   0.25000   0.00000  Uiso   1.00
Zn144  Zn    0.55104   0.16666   0.25000   0.00000  Uiso   1.00
C145   C     0.83329   0.24660   0.25051   0.00000  Uiso   1.00
C146   C     0.79065   0.31220   0.27570   0.00000  Uiso   1.00
C147   C     0.83334   0.04258   0.24868   0.00000  Uiso   1.00
C148   C     0.83329   0.29075   0.25059   0.00000  Uiso   1.00
C149   C     0.98459   0.13673   0.22603   0.00000  Uiso   1.00
C150   C     0.68229   0.19634   0.27410   0.00000  Uiso   1.00
C151   C     0.69951   0.13673   0.22549   0.00000  Uiso   1.00
C152   C     0.96797   0.19702   0.27398   0.00000  Uiso   1.00
C153   C     0.80317   0.16747   0.33786   0.00000  Uiso   1.00
C154   C     0.86347   0.16767   0.16213   0.00000  Uiso   1.00
C155   C     0.78455   0.17195   0.38827   0.00000  Uiso   1.00
C156   C     0.83342   0.08674   0.24926   0.00000  Uiso   1.00
C157   C     0.88103   0.17623   0.11252   0.00000  Uiso   1.00
C158   C     0.72031   0.16665   0.46334   0.00000  Uiso   1.00
C159   C     0.93825   0.20826   0.04373   0.00000  Uiso   1.00
C160   C     0.73596   0.16404   0.41515   0.00000  Uiso   1.00
C161   C     0.92662   0.19404   0.08898   0.00000  Uiso   1.00
C162   C     0.81666   0.18451   0.40950   0.00000  Uiso   1.00
C163   C     0.84766   0.17277   0.09073   0.00000  Uiso   1.00
C164   C     0.80175   0.18793   0.45770   0.00000  Uiso   1.00
C165   C     0.85692   0.19001   0.04731   0.00000  Uiso   1.00
C166   C     0.75303   0.17764   0.48483   0.00000  Uiso   1.00
C167   C     0.77156   0.18302   0.05410   0.00000  Uiso   1.00
C168   C     0.90383   0.20582   0.02246   0.00000  Uiso   1.00
C169   C     0.83509   0.19766   0.47951   0.00000  Uiso   1.00
C170   C     0.82103   0.19010   0.02745   0.00000  Uiso   1.00
C171   C     0.73410   0.09311   0.15547   0.00000  Uiso   1.00
C172   C     0.95074   0.27140   0.28523   0.00000  Uiso   1.00
C173   C     0.88213   0.21382   0.45518   0.00000  Uiso   1.00
C174   C     0.73801   0.17725   0.03300   0.00000  Uiso   1.00
C175   C     0.91554   0.21873   0.47685   0.00000  Uiso   1.00
C176   C     0.87568   0.31158   0.22420   0.00000  Uiso   1.00
C177   C     0.79072   0.02173   0.27447   0.00000  Uiso   1.00
C178   C     0.87589   0.02113   0.22333   0.00000  Uiso   1.00
F179   F     0.91692   0.04153   0.19707   0.00000  Uiso   1.00
F180   F     0.74961   0.29183   0.30200   0.00000  Uiso   1.00
H181   H     0.70067   0.17069   0.05434   0.00000  Uiso   1.00
H182   H     0.89356   0.22414   0.41975   0.00000  Uiso   1.00
H183   H     0.90807   0.29465   0.20370   0.00000  Uiso   1.00
H184   H     0.75803   0.03864   0.29433   0.00000  Uiso   1.00
H185   H     0.97271   0.11266   0.20761   0.00000  Uiso   1.00
H186   H     0.69364   0.21945   0.29401   0.00000  Uiso   1.00
H187   H     0.72980   0.07881   0.22199   0.00000  Uiso   1.00
H188   H     0.76841   0.07634   0.13663   0.00000  Uiso   1.00
H189   H     0.73299   0.12137   0.13564   0.00000  Uiso   1.00
H190   H     0.70342   0.07204   0.15749   0.00000  Uiso   1.00
H191   H     0.90022   0.22351   0.31136   0.00000  Uiso   1.00
H192   H     0.95110   0.23139   0.45738   0.00000  Uiso   1.00
H193   H     0.92234   0.29355   0.30636   0.00000  Uiso   1.00
H194   H     0.95548   0.27440   0.24815   0.00000  Uiso   1.00
H195   H     0.98506   0.28012   0.28969   0.00000  Uiso   1.00
H196   H     0.81411   0.15645   0.10843   0.00000  Uiso   1.00
H197   H     0.85401   0.18944   0.38784   0.00000  Uiso   1.00
H198   H     0.95253   0.19796   0.10587   0.00000  Uiso   1.00
H199   H     0.71055   0.15463   0.39906   0.00000  Uiso   1.00
H200   H     0.68313   0.15862   0.48376   0.00000  Uiso   1.00
H201   H     0.97367   0.22181   0.02573   0.00000  Uiso   1.00
H202   H     0.75784   0.18277   0.09156   0.00000  Uiso   1.00
N203   N     0.71426   0.16668   0.25001   0.00000  Uiso   1.00
N204   N     0.95241   0.16666   0.24999   0.00000  Uiso   1.00
N205   N     0.73214   0.10448   0.20159   0.00000  Uiso   1.00
N206   N     0.93660   0.22907   0.30049   0.00000  Uiso   1.00
O207   O     0.79512   0.22775   0.25000   0.00000  Uiso   1.00
O208   O     0.87154   0.10558   0.24999   0.00000  Uiso   1.00
O209   O     0.87157   0.22774   0.25000   0.00000  Uiso   1.00
O210   O     0.79510   0.10559   0.25000   0.00000  Uiso   1.00
O211   O     0.77328   0.16667   0.31613   0.00000  Uiso   1.00
O212   O     0.89339   0.16666   0.18387   0.00000  Uiso   1.00
O213   O     0.84972   0.16666   0.31612   0.00000  Uiso   1.00
O214   O     0.81695   0.16667   0.18388   0.00000  Uiso   1.00
Zn215  Zn    0.78229   0.16667   0.25000   0.00000  Uiso   1.00
Zn216  Zn    0.88438   0.16666   0.25000   0.00000  Uiso   1.00
C217   C     0.16663   0.57993   0.25051   0.00000  Uiso   1.00
C218   C     0.12398   0.64554   0.27570   0.00000  Uiso   1.00
C219   C     0.16668   0.37592   0.24868   0.00000  Uiso   1.00
C220   C     0.16662   0.62409   0.25059   0.00000  Uiso   1.00
C221   C     0.31792   0.47007   0.22603   0.00000  Uiso   1.00
C222   C     0.01562   0.52967   0.27410   0.00000  Uiso   1.00
C223   C     0.03284   0.47007   0.22549   0.00000  Uiso   1.00
C224   C     0.30130   0.53036   0.27398   0.00000  Uiso   1.00
C225   C     0.13651   0.50081   0.33786   0.00000  Uiso   1.00
C226   C     0.19680   0.50100   0.16213   0.00000  Uiso   1.00
C227   C     0.11788   0.50528   0.38827   0.00000  Uiso   1.00
C228   C     0.16675   0.42007   0.24926   0.00000  Uiso   1.00
C229   C     0.21436   0.50956   0.11252   0.00000  Uiso   1.00
C230   C     0.05364   0.49998   0.46334   0.00000  Uiso   1.00
C231   C     0.27158   0.54159   0.04373   0.00000  Uiso   1.00
C232   C     0.06929   0.49737   0.41515   0.00000  Uiso   1.00
C233   C     0.25995   0.52738   0.08898   0.00000  Uiso   1.00
C234   C     0.14999   0.51785   0.40950   0.00000  Uiso   1.00
C235   C     0.18099   0.50610   0.09073   0.00000  Uiso   1.00
C236   C     0.13508   0.52126   0.45770   0.00000  Uiso   1.00
C237   C     0.19025   0.52334   0.04731   0.00000  Uiso   1.00
C238   C     0.08636   0.51097   0.48483   0.00000  Uiso   1.00
C239   C     0.10490   0.51636   0.05410   0.00000  Uiso   1.00
C240   C     0.23717   0.53916   0.02246   0.00000  Uiso   1.00
C241   C     0.16843   0.53099   0.47951   0.00000  Uiso   1.00
C242   C     0.15437   0.52343   0.02745   0.00000  Uiso   1.00
C243   C     0.06743   0.42645   0.15547   0.00000  Uiso   1.00
C244   C     0.28407   0.60473   0.28523   0.00000  Uiso   1.00
C245   C     0.21546   0.54716   0.45518   0.00000  Uiso   1.00
C246   C     0.07135   0.51059   0.03300   0.00000  Uiso   1.00
C247   C     0.24887   0.55207   0.47685   0.00000  Uiso   1.00
C248   C     0.20901   0.64492   0.22420   0.00000  Uiso   1.00
C249   C     0.12405   0.35506   0.27447   0.00000  Uiso   1.00
C250   C     0.20923   0.35447   0.22333   0.00000  Uiso   1.00
F251   F     0.25026   0.37487   0.19707   0.00000  Uiso   1.00
F252   F     0.08294   0.62516   0.30200   0.00000  Uiso   1.00
H253   H     0.03400   0.50402   0.05434   0.00000  Uiso   1.00
H254   H     0.22689   0.55747   0.41975   0.00000  Uiso   1.00
H255   H     0.24141   0.62798   0.20370   0.00000  Uiso   1.00
H256   H     0.09136   0.37197   0.29433   0.00000  Uiso   1.00
H257   H     0.30604   0.44600   0.20761   0.00000  Uiso   1.00
H258   H     0.02698   0.55278   0.29401   0.00000  Uiso   1.00
H259   H     0.06314   0.41214   0.22199   0.00000  Uiso   1.00
H260   H     0.10174   0.40967   0.13663   0.00000  Uiso   1.00
H261   H     0.06632   0.45470   0.13564   0.00000  Uiso   1.00
H262   H     0.03675   0.40538   0.15749   0.00000  Uiso   1.00
H263   H     0.23355   0.55685   0.31136   0.00000  Uiso   1.00
H264   H     0.28444   0.56473   0.45738   0.00000  Uiso   1.00
H265   H     0.25567   0.62689   0.30636   0.00000  Uiso   1.00
H266   H     0.28881   0.60773   0.24815   0.00000  Uiso   1.00
H267   H     0.31839   0.61345   0.28969   0.00000  Uiso   1.00
H268   H     0.14745   0.48978   0.10843   0.00000  Uiso   1.00
H269   H     0.18734   0.52278   0.38784   0.00000  Uiso   1.00
H270   H     0.28587   0.53129   0.10587   0.00000  Uiso   1.00
H271   H     0.04389   0.48796   0.39906   0.00000  Uiso   1.00
H272   H     0.01646   0.49196   0.48376   0.00000  Uiso   1.00
H273   H     0.30700   0.55515   0.02573   0.00000  Uiso   1.00
H274   H     0.09118   0.51610   0.09156   0.00000  Uiso   1.00
N275   N     0.04759   0.50001   0.25001   0.00000  Uiso   1.00
N276   N     0.28574   0.49999   0.24999   0.00000  Uiso   1.00
N277   N     0.06547   0.43781   0.20159   0.00000  Uiso   1.00
N278   N     0.26993   0.56241   0.30049   0.00000  Uiso   1.00
O279   O     0.12846   0.56108   0.25000   0.00000  Uiso   1.00
O280   O     0.20488   0.43892   0.24999   0.00000  Uiso   1.00
O281   O     0.20490   0.56107   0.25000   0.00000  Uiso   1.00
O282   O     0.12843   0.43893   0.25000   0.00000  Uiso   1.00
O283   O     0.10661   0.50001   0.31613   0.00000  Uiso   1.00
O284   O     0.22672   0.49999   0.18387   0.00000  Uiso   1.00
O285   O     0.18305   0.50000   0.31612   0.00000  Uiso   1.00
O286   O     0.15028   0.50000   0.18388   0.00000  Uiso   1.00
Zn287  Zn    0.11562   0.50001   0.25000   0.00000  Uiso   1.00
Zn288  Zn    0.21771   0.49999   0.25000   0.00000  Uiso   1.00
C289   C     0.49996   0.57993   0.25051   0.00000  Uiso   1.00
C290   C     0.45731   0.64554   0.27570   0.00000  Uiso   1.00
C291   C     0.50001   0.37592   0.24868   0.00000  Uiso   1.00
C292   C     0.49995   0.62409   0.25059   0.00000  Uiso   1.00
C293   C     0.65126   0.47007   0.22603   0.00000  Uiso   1.00
C294   C     0.34896   0.52967   0.27410   0.00000  Uiso   1.00
C295   C     0.36618   0.47007   0.22549   0.00000  Uiso   1.00
C296   C     0.63464   0.53036   0.27398   0.00000  Uiso   1.00
C297   C     0.46984   0.50081   0.33786   0.00000  Uiso   1.00
C298   C     0.53014   0.50100   0.16213   0.00000  Uiso   1.00
C299   C     0.45122   0.50528   0.38827   0.00000  Uiso   1.00
C300   C     0.50008   0.42007   0.24926   0.00000  Uiso   1.00
C301   C     0.54769   0.50956   0.11252   0.00000  Uiso   1.00
C302   C     0.38698   0.49998   0.46334   0.00000  Uiso   1.00
C303   C     0.60491   0.54159   0.04373   0.00000  Uiso   1.00
C304   C     0.40262   0.49737   0.41515   0.00000  Uiso   1.00
C305   C     0.59329   0.52738   0.08898   0.00000  Uiso   1.00
C306   C     0.48333   0.51785   0.40950   0.00000  Uiso   1.00
C307   C     0.51433   0.50610   0.09073   0.00000  Uiso   1.00
C308   C     0.46841   0.52126   0.45770   0.00000  Uiso   1.00
C309   C     0.52358   0.52334   0.04731   0.00000  Uiso   1.00
C310   C     0.41969   0.51097   0.48483   0.00000  Uiso   1.00
C311   C     0.43823   0.51636   0.05410   0.00000  Uiso   1.00
C312   C     0.57050   0.53916   0.02246   0.00000  Uiso   1.00
C313   C     0.50176   0.53099   0.47951   0.00000  Uiso   1.00
C314   C     0.48770   0.52343   0.02745   0.00000  Uiso   1.00
C315   C     0.40077   0.42645   0.15547   0.00000  Uiso   1.00
C316   C     0.61740   0.60473   0.28523   0.00000  Uiso   1.00
C317   C     0.54879   0.54716   0.45518   0.00000  Uiso   1.00
C318   C     0.40468   0.51059   0.03300   0.00000  Uiso   1.00
C319   C     0.58220   0.55207   0.47685   0.00000  Uiso   1.00
C320   C     0.54234   0.64492   0.22420   0.00000  Uiso   1.00
C321   C     0.45738   0.35506   0.27447   0.00000  Uiso   1.00
C322   C     0.54256   0.35447   0.22333   0.00000  Uiso   1.00
F323   F     0.58359   0.37487   0.19707   0.00000  Uiso   1.00
F324   F     0.41627   0.62516   0.30200   0.00000  Uiso   1.00
H325   H     0.36734   0.50402   0.05434   0.00000  Uiso   1.00
H326   H     0.56023   0.55747   0.41975   0.00000  Uiso   1.00
H327   H     0.57474   0.62798   0.20370   0.00000  Uiso   1.00
H328   H     0.42469   0.37197   0.29433   0.00000  Uiso   1.00
H329   H     0.63938   0.44600   0.20761   0.00000  Uiso   1.00
H330   H     0.36031   0.55278   0.29401   0.00000  Uiso   1.00
H331   H     0.39647   0.41214   0.22199   0.00000  Uiso   1.00
H332   H     0.43508   0.40967   0.13663   0.00000  Uiso   1.00
H333   H     0.39966   0.45470   0.13564   0.00000  Uiso   1.00
H334   H     0.37009   0.40538   0.15749   0.00000  Uiso   1.00
H335   H     0.56689   0.55685   0.31136   0.00000  Uiso   1.00
H336   H     0.61777   0.56473   0.45738   0.00000  Uiso   1.00
H337   H     0.58900   0.62689   0.30636   0.00000  Uiso   1.00
H338   H     0.62215   0.60773   0.24815   0.00000  Uiso   1.00
H339   H     0.65173   0.61345   0.28969   0.00000  Uiso   1.00
H340   H     0.48078   0.48978   0.10843   0.00000  Uiso   1.00
H341   H     0.52067   0.52278   0.38784   0.00000  Uiso   1.00
H342   H     0.61920   0.53129   0.10587   0.00000  Uiso   1.00
H343   H     0.37722   0.48796   0.39906   0.00000  Uiso   1.00
H344   H     0.34980   0.49196   0.48376   0.00000  Uiso   1.00
H345   H     0.64033   0.55515   0.02573   0.00000  Uiso   1.00
H346   H     0.42451   0.51610   0.09156   0.00000  Uiso   1.00
N347   N     0.38093   0.50001   0.25001   0.00000  Uiso   1.00
N348   N     0.61907   0.49999   0.24999   0.00000  Uiso   1.00
N349   N     0.39881   0.43781   0.20159   0.00000  Uiso   1.00
N350   N     0.60326   0.56241   0.30049   0.00000  Uiso   1.00
O351   O     0.46179   0.56108   0.25000   0.00000  Uiso   1.00
O352   O     0.53821   0.43892   0.24999   0.00000  Uiso   1.00
O353   O     0.53823   0.56107   0.25000   0.00000  Uiso   1.00
O354   O     0.46177   0.43893   0.25000   0.00000  Uiso   1.00
O355   O     0.43994   0.50001   0.31613   0.00000  Uiso   1.00
O356   O     0.56006   0.49999   0.18387   0.00000  Uiso   1.00
O357   O     0.51639   0.50000   0.31612   0.00000  Uiso   1.00
O358   O     0.48361   0.50000   0.18388   0.00000  Uiso   1.00
Zn359  Zn    0.44896   0.50001   0.25000   0.00000  Uiso   1.00
Zn360  Zn    0.55104   0.49999   0.25000   0.00000  Uiso   1.00
C361   C     0.83329   0.57993   0.25051   0.00000  Uiso   1.00
C362   C     0.79065   0.64554   0.27570   0.00000  Uiso   1.00
C363   C     0.83334   0.37592   0.24868   0.00000  Uiso   1.00
C364   C     0.83329   0.62409   0.25059   0.00000  Uiso   1.00
C365   C     0.98459   0.47007   0.22603   0.00000  Uiso   1.00
C366   C     0.68229   0.52967   0.27410   0.00000  Uiso   1.00
C367   C     0.69951   0.47007   0.22549   0.00000  Uiso   1.00
C368   C     0.96797   0.53036   0.27398   0.00000  Uiso   1.00
C369   C     0.80317   0.50081   0.33786   0.00000  Uiso   1.00
C370   C     0.86347   0.50100   0.16213   0.00000  Uiso   1.00
C371   C     0.78455   0.50528   0.38827   0.00000  Uiso   1.00
C372   C     0.83342   0.42007   0.24926   0.00000  Uiso   1.00
C373   C     0.88103   0.50956   0.11252   0.00000  Uiso   1.00
C374   C     0.72031   0.49998   0.46334   0.00000  Uiso   1.00
C375   C     0.93825   0.54159   0.04373   0.00000  Uiso   1.00
C376   C     0.73596   0.49737   0.41515   0.00000  Uiso   1.00
C377   C     0.92662   0.52738   0.08898   0.00000  Uiso   1.00
C378   C     0.81666   0.51785   0.40950   0.00000  Uiso   1.00
C379   C     0.84766   0.50610   0.09073   0.00000  Uiso   1.00
C380   C     0.80175   0.52126   0.45770   0.00000  Uiso   1.00
C381   C     0.85692   0.52334   0.04731   0.00000  Uiso   1.00
C382   C     0.75303   0.51097   0.48483   0.00000  Uiso   1.00
C383   C     0.77156   0.51636   0.05410   0.00000  Uiso   1.00
C384   C     0.90383   0.53916   0.02246   0.00000  Uiso   1.00
C385   C     0.83509   0.53099   0.47951   0.00000  Uiso   1.00
C386   C     0.82103   0.52343   0.02745   0.00000  Uiso   1.00
C387   C     0.73410   0.42645   0.15547   0.00000  Uiso   1.00
C388   C     0.95074   0.60473   0.28523   0.00000  Uiso   1.00
C389   C     0.88213   0.54716   0.45518   0.00000  Uiso   1.00
C390   C     0.73801   0.51059   0.03300   0.00000  Uiso   1.00
C391   C     0.91554   0.55207   0.47685   0.00000  Uiso   1.00
C392   C     0.87568   0.64492   0.22420   0.00000  Uiso   1.00
C393   C     0.79072   0.35506   0.27447   0.00000  Uiso   1.00
C394   C     0.87589   0.35447   0.22333   0.00000  Uiso   1.00
F395   F     0.91692   0.37487   0.19707   0.00000  Uiso   1.00
F396   F     0.74961   0.62516   0.30200   0.00000  Uiso   1.00
H397   H     0.70067   0.50402   0.05434   0.00000  Uiso   1.00
H398   H     0.89356   0.55747   0.41975   0.00000  Uiso   1.00
H399   H     0.90807   0.62798   0.20370   0.00000  Uiso   1.00
H400   H     0.75803   0.37197   0.29433   0.00000  Uiso   1.00
H401   H     0.97271   0.44600   0.20761   0.00000  Uiso   1.00
H402   H     0.69364   0.55278   0.29401   0.00000  Uiso   1.00
H403   H     0.72980   0.41214   0.22199   0.00000  Uiso   1.00
H404   H     0.76841   0.40967   0.13663   0.00000  Uiso   1.00
H405   H     0.73299   0.45470   0.13564   0.00000  Uiso   1.00
H406   H     0.70342   0.40538   0.15749   0.00000  Uiso   1.00
H407   H     0.90022   0.55685   0.31136   0.00000  Uiso   1.00
H408   H     0.95110   0.56473   0.45738   0.00000  Uiso   1.00
H409   H     0.92234   0.62689   0.30636   0.00000  Uiso   1.00
H410   H     0.95548   0.60773   0.24815   0.00000  Uiso   1.00
H411   H     0.98506   0.61345   0.28969   0.00000  Uiso   1.00
H412   H     0.81411   0.48978   0.10843   0.00000  Uiso   1.00
H413   H     0.85401   0.52278   0.38784   0.00000  Uiso   1.00
H414   H     0.95253   0.53129   0.10587   0.00000  Uiso   1.00
H415   H     0.71055   0.48796   0.39906   0.00000  Uiso   1.00
H416   H     0.68313   0.49196   0.48376   0.00000  Uiso   1.00
H417   H     0.97367   0.55515   0.02573   0.00000  Uiso   1.00
H418   H     0.75784   0.51610   0.09156   0.00000  Uiso   1.00
N419   N     0.71426   0.50001   0.25001   0.00000  Uiso   1.00
N420   N     0.95241   0.49999   0.24999   0.00000  Uiso   1.00
N421   N     0.73214   0.43781   0.20159   0.00000  Uiso   1.00
N422   N     0.93660   0.56241   0.30049   0.00000  Uiso   1.00
O423   O     0.79512   0.56108   0.25000   0.00000  Uiso   1.00
O424   O     0.87154   0.43892   0.24999   0.00000  Uiso   1.00
O425   O     0.87157   0.56107   0.25000   0.00000  Uiso   1.00
O426   O     0.79510   0.43893   0.25000   0.00000  Uiso   1.00
O427   O     0.77328   0.50001   0.31613   0.00000  Uiso   1.00
O428   O     0.89339   0.49999   0.18387   0.00000  Uiso   1.00
O429   O     0.84972   0.50000   0.31612   0.00000  Uiso   1.00
O430   O     0.81695   0.50000   0.18388   0.00000  Uiso   1.00
Zn431  Zn    0.78229   0.50001   0.25000   0.00000  Uiso   1.00
Zn432  Zn    0.88438   0.49999   0.25000   0.00000  Uiso   1.00
C433   C     0.16663   0.91327   0.25051   0.00000  Uiso   1.00
C434   C     0.12398   0.97887   0.27570   0.00000  Uiso   1.00
C435   C     0.16668   0.70925   0.24868   0.00000  Uiso   1.00
C436   C     0.16662   0.95742   0.25059   0.00000  Uiso   1.00
C437   C     0.31792   0.80340   0.22603   0.00000  Uiso   1.00
C438   C     0.01562   0.86301   0.27410   0.00000  Uiso   1.00
C439   C     0.03284   0.80340   0.22549   0.00000  Uiso   1.00
C440   C     0.30130   0.86369   0.27398   0.00000  Uiso   1.00
C441   C     0.13651   0.83414   0.33786   0.00000  Uiso   1.00
C442   C     0.19680   0.83434   0.16213   0.00000  Uiso   1.00
C443   C     0.11788   0.83862   0.38827   0.00000  Uiso   1.00
C444   C     0.16675   0.75341   0.24926   0.00000  Uiso   1.00
C445   C     0.21436   0.84290   0.11252   0.00000  Uiso   1.00
C446   C     0.05364   0.83332   0.46334   0.00000  Uiso   1.00
C447   C     0.27158   0.87493   0.04373   0.00000  Uiso   1.00
C448   C     0.06929   0.83071   0.41515   0.00000  Uiso   1.00
C449   C     0.25995   0.86071   0.08898   0.00000  Uiso   1.00
C450   C     0.14999   0.85118   0.40950   0.00000  Uiso   1.00
C451   C     0.18099   0.83943   0.09073   0.00000  Uiso   1.00
C452   C     0.13508   0.85459   0.45770   0.00000  Uiso   1.00
C453   C     0.19025   0.85668   0.04731   0.00000  Uiso   1.00
C454   C     0.08636   0.84430   0.48483   0.00000  Uiso   1.00
C455   C     0.10490   0.84969   0.05410   0.00000  Uiso   1.00
C456   C     0.23717   0.87249   0.02246   0.00000  Uiso   1.00
C457   C     0.16843   0.86433   0.47951   0.00000  Uiso   1.00
C458   C     0.15437   0.85677   0.02745   0.00000  Uiso   1.00
C459   C     0.06743   0.75978   0.15547   0.00000  Uiso   1.00
C460   C     0.28407   0.93806   0.28523   0.00000  Uiso   1.00
C461   C     0.21546   0.88049   0.45518   0.00000  Uiso   1.00
C462   C     0.07135   0.84392   0.03300   0.00000  Uiso   1.00
C463   C     0.24887   0.88540   0.47685   0.00000  Uiso   1.00
C464   C     0.20901   0.97825   0.22420   0.00000  Uiso   1.00
C465   C     0.12405   0.68840   0.27447   0.00000  Uiso   1.00
C466   C     0.20923   0.68780   0.22333   0.00000  Uiso   1.00
F467   F     0.25026   0.70820   0.19707   0.00000  Uiso   1.00
F468   F     0.08294   0.95850   0.30200   0.00000  Uiso   1.00
H469   H     0.03400   0.83736   0.05434   0.00000  Uiso   1.00
H470   H     0.22689   0.89080   0.41975   0.00000  Uiso   1.00
H471   H     0.24141   0.96131   0.20370   0.00000  Uiso   1.00
H472   H     0.09136   0.70530   0.29433   0.00000  Uiso   1.00
H473   H     0.30604   0.77933   0.20761   0.00000  Uiso   1.00
H474   H     0.02698   0.88611   0.29401   0.00000  Uiso   1.00
H475   H     0.06314   0.74547   0.22199   0.00000  Uiso   1.00
H476   H     0.10174   0.74301   0.13663   0.00000  Uiso   1.00
H477   H     0.06632   0.78804   0.13564   0.00000  Uiso   1.00
H478   H     0.03675   0.73871   0.15749   0.00000  Uiso   1.00
H479   H     0.23355   0.89018   0.31136   0.00000  Uiso   1.00
H480   H     0.28444   0.89806   0.45738   0.00000  Uiso   1.00
H481   H     0.25567   0.96022   0.30636   0.00000  Uiso   1.00
H482   H     0.28881   0.94107   0.24815   0.00000  Uiso   1.00
H483   H     0.31839   0.94678   0.28969   0.00000  Uiso   1.00
H484   H     0.14745   0.82312   0.10843   0.00000  Uiso   1.00
H485   H     0.18734   0.85611   0.38784   0.00000  Uiso   1.00
H486   H     0.28587   0.86462   0.10587   0.00000  Uiso   1.00
H487   H     0.04389   0.82130   0.39906   0.00000  Uiso   1.00
H488   H     0.01646   0.82529   0.48376   0.00000  Uiso   1.00
H489   H     0.30700   0.88848   0.02573   0.00000  Uiso   1.00
H490   H     0.09118   0.84944   0.09156   0.00000  Uiso   1.00
N491   N     0.04759   0.83334   0.25001   0.00000  Uiso   1.00
N492   N     0.28574   0.83332   0.24999   0.00000  Uiso   1.00
N493   N     0.06547   0.77114   0.20159   0.00000  Uiso   1.00
N494   N     0.26993   0.89574   0.30049   0.00000  Uiso   1.00
O495   O     0.12846   0.89442   0.25000   0.00000  Uiso   1.00
O496   O     0.20488   0.77225   0.24999   0.00000  Uiso   1.00
O497   O     0.20490   0.89441   0.25000   0.00000  Uiso   1.00
O498   O     0.12843   0.77226   0.25000   0.00000  Uiso   1.00
O499   O     0.10661   0.83334   0.31613   0.00000  Uiso   1.00
O500   O     0.22672   0.83333   0.18387   0.00000  Uiso   1.00
O501   O     0.18305   0.83333   0.31612   0.00000  Uiso   1.00
O502   O     0.15028   0.83334   0.18388   0.00000  Uiso   1.00
Zn503  Zn    0.11562   0.83334   0.25000   0.00000  Uiso   1.00
Zn504  Zn    0.21771   0.83333   0.25000   0.00000  Uiso   1.00
C505   C     0.49996   0.91327   0.25051   0.00000  Uiso   1.00
C506   C     0.45731   0.97887   0.27570   0.00000  Uiso   1.00
C507   C     0.50001   0.70925   0.24868   0.00000  Uiso   1.00
C508   C     0.49995   0.95742   0.25059   0.00000  Uiso   1.00
C509   C     0.65126   0.80340   0.22603   0.00000  Uiso   1.00
C510   C     0.34896   0.86301   0.27410   0.00000  Uiso   1.00
C511   C     0.36618   0.80340   0.22549   0.00000  Uiso   1.00
C512   C     0.63464   0.86369   0.27398   0.00000  Uiso   1.00
C513   C     0.46984   0.83414   0.33786   0.00000  Uiso   1.00
C514   C     0.53014   0.83434   0.16213   0.00000  Uiso   1.00
C515   C     0.45122   0.83862   0.38827   0.00000  Uiso   1.00
C516   C     0.50008   0.75341   0.24926   0.00000  Uiso   1.00
C517   C     0.54769   0.84290   0.11252   0.00000  Uiso   1.00
C518   C     0.38698   0.83332   0.46334   0.00000  Uiso   1.00
C519   C     0.60491   0.87493   0.04373   0.00000  Uiso   1.00
C520   C     0.40262   0.83071   0.41515   0.00000  Uiso   1.00
C521   C     0.59329   0.86071   0.08898   0.00000  Uiso   1.00
C522   C     0.48333   0.85118   0.40950   0.00000  Uiso   1.00
C523   C     0.51433   0.83943   0.09073   0.00000  Uiso   1.00
C524   C     0.46841   0.85459   0.45770   0.00000  Uiso   1.00
C525   C     0.52358   0.85668   0.04731   0.00000  Uiso   1.00
C526   C     0.41969   0.84430   0.48483   0.00000  Uiso   1.00
C527   C     0.43823   0.84969   0.05410   0.00000  Uiso   1.00
C528   C     0.57050   0.87249   0.02246   0.00000  Uiso   1.00
C529   C     0.50176   0.86433   0.47951   0.00000  Uiso   1.00
C530   C     0.48770   0.85677   0.02745   0.00000  Uiso   1.00
C531   C     0.40077   0.75978   0.15547   0.00000  Uiso   1.00
C532   C     0.61740   0.93806   0.28523   0.00000  Uiso   1.00
C533   C     0.54879   0.88049   0.45518   0.00000  Uiso   1.00
C534   C     0.40468   0.84392   0.03300   0.00000  Uiso   1.00
C535   C     0.58220   0.88540   0.47685   0.00000  Uiso   1.00
C536   C     0.54234   0.97825   0.22420   0.00000  Uiso   1.00
C537   C     0.45738   0.68840   0.27447   0.00000  Uiso   1.00
C538   C     0.54256   0.68780   0.22333   0.00000  Uiso   1.00
F539   F     0.58359   0.70820   0.19707   0.00000  Uiso   1.00
F540   F     0.41627   0.95850   0.30200   0.00000  Uiso   1.00
H541   H     0.36734   0.83736   0.05434   0.00000  Uiso   1.00
H542   H     0.56023   0.89080   0.41975   0.00000  Uiso   1.00
H543   H     0.57474   0.96131   0.20370   0.00000  Uiso   1.00
H544   H     0.42469   0.70530   0.29433   0.00000  Uiso   1.00
H545   H     0.63938   0.77933   0.20761   0.00000  Uiso   1.00
H546   H     0.36031   0.88611   0.29401   0.00000  Uiso   1.00
H547   H     0.39647   0.74547   0.22199   0.00000  Uiso   1.00
H548   H     0.43508   0.74301   0.13663   0.00000  Uiso   1.00
H549   H     0.39966   0.78804   0.13564   0.00000  Uiso   1.00
H550   H     0.37009   0.73871   0.15749   0.00000  Uiso   1.00
H551   H     0.56689   0.89018   0.31136   0.00000  Uiso   1.00
H552   H     0.61777   0.89806   0.45738   0.00000  Uiso   1.00
H553   H     0.58900   0.96022   0.30636   0.00000  Uiso   1.00
H554   H     0.62215   0.94107   0.24815   0.00000  Uiso   1.00
H555   H     0.65173   0.94678   0.28969   0.00000  Uiso   1.00
H556   H     0.48078   0.82312   0.10843   0.00000  Uiso   1.00
H557   H     0.52067   0.85611   0.38784   0.00000  Uiso   1.00
H558   H     0.61920   0.86462   0.10587   0.00000  Uiso   1.00
H559   H     0.37722   0.82130   0.39906   0.00000  Uiso   1.00
H560   H     0.34980   0.82529   0.48376   0.00000  Uiso   1.00
H561   H     0.64033   0.88848   0.02573   0.00000  Uiso   1.00
H562   H     0.42451   0.84944   0.09156   0.00000  Uiso   1.00
N563   N     0.38093   0.83334   0.25001   0.00000  Uiso   1.00
N564   N     0.61907   0.83332   0.24999   0.00000  Uiso   1.00
N565   N     0.39881   0.77114   0.20159   0.00000  Uiso   1.00
N566   N     0.60326   0.89574   0.30049   0.00000  Uiso   1.00
O567   O     0.46179   0.89442   0.25000   0.00000  Uiso   1.00
O568   O     0.53821   0.77225   0.24999   0.00000  Uiso   1.00
O569   O     0.53823   0.89441   0.25000   0.00000  Uiso   1.00
O570   O     0.46177   0.77226   0.25000   0.00000  Uiso   1.00
O571   O     0.43994   0.83334   0.31613   0.00000  Uiso   1.00
O572   O     0.56006   0.83333   0.18387   0.00000  Uiso   1.00
O573   O     0.51639   0.83333   0.31612   0.00000  Uiso   1.00
O574   O     0.48361   0.83334   0.18388   0.00000  Uiso   1.00
Zn575  Zn    0.44896   0.83334   0.25000   0.00000  Uiso   1.00
Zn576  Zn    0.55104   0.83333   0.25000   0.00000  Uiso   1.00
C577   C     0.83329   0.91327   0.25051   0.00000  Uiso   1.00
C578   C     0.79065   0.97887   0.27570   0.00000  Uiso   1.00
C579   C     0.83334   0.70925   0.24868   0.00000  Uiso   1.00
C580   C     0.83329   0.95742   0.25059   0.00000  Uiso   1.00
C581   C     0.98459   0.80340   0.22603   0.00000  Uiso   1.00
C582   C     0.68229   0.86301   0.27410   0.00000  Uiso   1.00
C583   C     0.69951   0.80340   0.22549   0.00000  Uiso   1.00
C584   C     0.96797   0.86369   0.27398   0.00000  Uiso   1.00
C585   C     0.80317   0.83414   0.33786   0.00000  Uiso   1.00
C586   C     0.86347   0.83434   0.16213   0.00000  Uiso   1.00
C587   C     0.78455   0.83862   0.38827   0.00000  Uiso   1.00
C588   C     0.83342   0.75341   0.24926   0.00000  Uiso   1.00
C589   C     0.88103   0.84290   0.11252   0.00000  Uiso   1.00
C590   C     0.72031   0.83332   0.46334   0.00000  Uiso   1.00
C591   C     0.93825   0.87493   0.04373   0.00000  Uiso   1.00
C592   C     0.73596   0.83071   0.41515   0.00000  Uiso   1.00
C593   C     0.92662   0.86071   0.08898   0.00000  Uiso   1.00
C594   C     0.81666   0.85118   0.40950   0.00000  Uiso   1.00
C595   C     0.84766   0.83943   0.09073   0.00000  Uiso   1.00
C596   C     0.80175   0.85459   0.45770   0.00000  Uiso   1.00
C597   C     0.85692   0.85668   0.04731   0.00000  Uiso   1.00
C598   C     0.75303   0.84430   0.48483   0.00000  Uiso   1.00
C599   C     0.77156   0.84969   0.05410   0.00000  Uiso   1.00
C600   C     0.90383   0.87249   0.02246   0.00000  Uiso   1.00
C601   C     0.83509   0.86433   0.47951   0.00000  Uiso   1.00
C602   C     0.82103   0.85677   0.02745   0.00000  Uiso   1.00
C603   C     0.73410   0.75978   0.15547   0.00000  Uiso   1.00
C604   C     0.95074   0.93806   0.28523   0.00000  Uiso   1.00
C605   C     0.88213   0.88049   0.45518   0.00000  Uiso   1.00
C606   C     0.73801   0.84392   0.03300   0.00000  Uiso   1.00
C607   C     0.91554   0.88540   0.47685   0.00000  Uiso   1.00
C608   C     0.87568   0.97825   0.22420   0.00000  Uiso   1.00
C609   C     0.79072   0.68840   0.27447   0.00000  Uiso   1.00
C610   C     0.87589   0.68780   0.22333   0.00000  Uiso   1.00
F611   F     0.91692   0.70820   0.19707   0.00000  Uiso   1.00
F612   F     0.74961   0.95850   0.30200   0.00000  Uiso   1.00
H613   H     0.70067   0.83736   0.05434   0.00000  Uiso   1.00
H614   H     0.89356   0.89080   0.41975   0.00000  Uiso   1.00
H615   H     0.90807   0.96131   0.20370   0.00000  Uiso   1.00
H616   H     0.75803   0.70530   0.29433   0.00000  Uiso   1.00
H617   H     0.97271   0.77933   0.20761   0.00000  Uiso   1.00
H618   H     0.69364   0.88611   0.29401   0.00000  Uiso   1.00
H619   H     0.72980   0.74547   0.22199   0.00000  Uiso   1.00
H620   H     0.76841   0.74301   0.13663   0.00000  Uiso   1.00
H621   H     0.73299   0.78804   0.13564   0.00000  Uiso   1.00
H622   H     0.70342   0.73871   0.15749   0.00000  Uiso   1.00
H623   H     0.90022   0.89018   0.31136   0.00000  Uiso   1.00
H624   H     0.95110   0.89806   0.45738   0.00000  Uiso   1.00
H625   H     0.92234   0.96022   0.30636   0.00000  Uiso   1.00
H626   H     0.95548   0.94107   0.24815   0.00000  Uiso   1.00
H627   H     0.98506   0.94678   0.28969   0.00000  Uiso   1.00
H628   H     0.81411   0.82312   0.10843   0.00000  Uiso   1.00
H629   H     0.85401   0.85611   0.38784   0.00000  Uiso   1.00
H630   H     0.95253   0.86462   0.10587   0.00000  Uiso   1.00
H631   H     0.71055   0.82130   0.39906   0.00000  Uiso   1.00
H632   H     0.68313   0.82529   0.48376   0.00000  Uiso   1.00
H633   H     0.97367   0.88848   0.02573   0.00000  Uiso   1.00
H634   H     0.75784   0.84944   0.09156   0.00000  Uiso   1.00
N635   N     0.71426   0.83334   0.25001   0.00000  Uiso   1.00
N636   N     0.95241   0.83332   0.24999   0.00000  Uiso   1.00
N637   N     0.73214   0.77114   0.20159   0.00000  Uiso   1.00
N638   N     0.93660   0.89574   0.30049   0.00000  Uiso   1.00
O639   O     0.79512   0.89442   0.25000   0.00000  Uiso   1.00
O640   O     0.87154   0.77225   0.24999   0.00000  Uiso   1.00
O641   O     0.87157   0.89441   0.25000   0.00000  Uiso   1.00
O642   O     0.79510   0.77226   0.25000   0.00000  Uiso   1.00
O643   O     0.77328   0.83334   0.31613   0.00000  Uiso   1.00
O644   O     0.89339   0.83333   0.18387   0.00000  Uiso   1.00
O645   O     0.84972   0.83333   0.31612   0.00000  Uiso   1.00
O646   O     0.81695   0.83334   0.18388   0.00000  Uiso   1.00
Zn647  Zn    0.78229   0.83334   0.25000   0.00000  Uiso   1.00
Zn648  Zn    0.88438   0.83333   0.25000   0.00000  Uiso   1.00
C649   C     0.16663   0.24660   0.75051   0.00000  Uiso   1.00
C650   C     0.12398   0.31220   0.77570   0.00000  Uiso   1.00
C651   C     0.16668   0.04258   0.74868   0.00000  Uiso   1.00
C652   C     0.16662   0.29075   0.75059   0.00000  Uiso   1.00
C653   C     0.31792   0.13673   0.72603   0.00000  Uiso   1.00
C654   C     0.01562   0.19634   0.77410   0.00000  Uiso   1.00
C655   C     0.03284   0.13673   0.72549   0.00000  Uiso   1.00
C656   C     0.30130   0.19702   0.77398   0.00000  Uiso   1.00
C657   C     0.13651   0.16747   0.83786   0.00000  Uiso   1.00
C658   C     0.19680   0.16767   0.66213   0.00000  Uiso   1.00
C659   C     0.11788   0.17195   0.88827   0.00000  Uiso   1.00
C660   C     0.16675   0.08674   0.74926   0.00000  Uiso   1.00
C661   C     0.21436   0.17623   0.61252   0.00000  Uiso   1.00
C662   C     0.05364   0.16665   0.96334   0.00000  Uiso   1.00
C663   C     0.27158   0.20826   0.54373   0.00000  Uiso   1.00
C664   C     0.06929   0.16404   0.91515   0.00000  Uiso   1.00
C665   C     0.25995   0.19404   0.58898   0.00000  Uiso   1.00
C666   C     0.14999   0.18451   0.90950   0.00000  Uiso   1.00
C667   C     0.18099   0.17277   0.59073   0.00000  Uiso   1.00
C668   C     0.13508   0.18793   0.95770   0.00000  Uiso   1.00
C669   C     0.19025   0.19001   0.54731   0.00000  Uiso   1.00
C670   C     0.08636   0.17764   0.98483   0.00000  Uiso   1.00
C671   C     0.10490   0.18302   0.55410   0.00000  Uiso   1.00
C672   C     0.23717   0.20582   0.52246   0.00000  Uiso   1.00
C673   C     0.16843   0.19766   0.97951   0.00000  Uiso   1.00
C674   C     0.15437   0.19010   0.52745   0.00000  Uiso   1.00
C675   C     0.06743   0.09311   0.65547   0.00000  Uiso   1.00
C676   C     0.28407   0.27140   0.78523   0.00000  Uiso   1.00
C677   C     0.21546   0.21382   0.95518   0.00000  Uiso   1.00
C678   C     0.07135   0.17725   0.53300   0.00000  Uiso   1.00
C679   C     0.24887   0.21873   0.97685   0.00000  Uiso   1.00
C680   C     0.20901   0.31158   0.72420   0.00000  Uiso   1.00
C681   C     0.12405   0.02173   0.77447   0.00000  Uiso   1.00
C682   C     0.20923   0.02113   0.72333   0.00000  Uiso   1.00
F683   F     0.25026   0.04153   0.69707   0.00000  Uiso   1.00
F684   F     0.08294   0.29183   0.80200   0.00000  Uiso   1.00
H685   H     0.03400   0.17069   0.55434   0.00000  Uiso   1.00
H686   H     0.22689   0.22414   0.91975   0.00000  Uiso   1.00
H687   H     0.24141   0.29465   0.70370   0.00000  Uiso   1.00
H688   H     0.09136   0.03864   0.79433   0.00000  Uiso   1.00
H689   H     0.30604   0.11266   0.70761   0.00000  Uiso   1.00
H690   H     0.02698   0.21945   0.79401   0.00000  Uiso   1.00
H691   H     0.06314   0.07881   0.72199   0.00000  Uiso   1.00
H692   H     0.10174   0.07634   0.63663   0.00000  Uiso   1.00
H693   H     0.06632   0.12137   0.63564   0.00000  Uiso   1.00
H694   H     0.03675   0.07204   0.65749   0.00000  Uiso   1.00
H695   H     0.23355   0.22351   0.81136   0.00000  Uiso   1.00
H696   H     0.28444   0.23139   0.95738   0.00000  Uiso   1.00
H697   H     0.25567   0.29355   0.80636   0.00000  Uiso   1.00
H698   H     0.28881   0.27440   0.74815   0.00000  Uiso   1.00
H699   H     0.31839   0.28012   0.78969   0.00000  Uiso   1.00
H700   H     0.14745   0.15645   0.60843   0.00000  Uiso   1.00
H701   H     0.18734   0.18944   0.88784   0.00000  Uiso   1.00
H702   H     0.28587   0.19796   0.60587   0.00000  Uiso   1.00
H703   H     0.04389   0.15463   0.89906   0.00000  Uiso   1.00
H704   H     0.01646   0.15862   0.98376   0.00000  Uiso   1.00
H705   H     0.30700   0.22181   0.52573   0.00000  Uiso   1.00
H706   H     0.09118   0.18277   0.59156   0.00000  Uiso   1.00
N707   N     0.04759   0.16668   0.75001   0.00000  Uiso   1.00
N708   N     0.28574   0.16666   0.74999   0.00000  Uiso   1.00
N709   N     0.06547   0.10448   0.70159   0.00000  Uiso   1.00
N710   N     0.26993   0.22907   0.80049   0.00000  Uiso   1.00
O711   O     0.12846   0.22775   0.75000   0.00000  Uiso   1.00
O712   O     0.20488   0.10558   0.74999   0.00000  Uiso   1.00
O713   O     0.20490   0.22774   0.75000   0.00000  Uiso   1.00
O714   O     0.12843   0.10559   0.75000   0.00000  Uiso   1.00
O715   O     0.10661   0.16667   0.81613   0.00000  Uiso   1.00
O716   O     0.22672   0.16666   0.68387   0.00000  Uiso   1.00
O717   O     0.18305   0.16666   0.81612   0.00000  Uiso   1.00
O718   O     0.15028   0.16667   0.68388   0.00000  Uiso   1.00
Zn719  Zn    0.11562   0.16667   0.75000   0.00000  Uiso   1.00
Zn720  Zn    0.21771   0.16666   0.75000   0.00000  Uiso   1.00
C721   C     0.49996   0.24660   0.75051   0.00000  Uiso   1.00
C722   C     0.45731   0.31220   0.77570   0.00000  Uiso   1.00
C723   C     0.50001   0.04258   0.74868   0.00000  Uiso   1.00
C724   C     0.49995   0.29075   0.75059   0.00000  Uiso   1.00
C725   C     0.65126   0.13673   0.72603   0.00000  Uiso   1.00
C726   C     0.34896   0.19634   0.77410   0.00000  Uiso   1.00
C727   C     0.36618   0.13673   0.72549   0.00000  Uiso   1.00
C728   C     0.63464   0.19702   0.77398   0.00000  Uiso   1.00
C729   C     0.46984   0.16747   0.83786   0.00000  Uiso   1.00
C730   C     0.53014   0.16767   0.66213   0.00000  Uiso   1.00
C731   C     0.45122   0.17195   0.88827   0.00000  Uiso   1.00
C732   C     0.50008   0.08674   0.74926   0.00000  Uiso   1.00
C733   C     0.54769   0.17623   0.61252   0.00000  Uiso   1.00
C734   C     0.38698   0.16665   0.96334   0.00000  Uiso   1.00
C735   C     0.60491   0.20826   0.54373   0.00000  Uiso   1.00
C736   C     0.40262   0.16404   0.91515   0.00000  Uiso   1.00
C737   C     0.59329   0.19404   0.58898   0.00000  Uiso   1.00
C738   C     0.48333   0.18451   0.90950   0.00000  Uiso   1.00
C739   C     0.51433   0.17277   0.59073   0.00000  Uiso   1.00
C740   C     0.46841   0.18793   0.95770   0.00000  Uiso   1.00
C741   C     0.52358   0.19001   0.54731   0.00000  Uiso   1.00
C742   C     0.41969   0.17764   0.98483   0.00000  Uiso   1.00
C743   C     0.43823   0.18302   0.55410   0.00000  Uiso   1.00
C744   C     0.57050   0.20582   0.52246   0.00000  Uiso   1.00
C745   C     0.50176   0.19766   0.97951   0.00000  Uiso   1.00
C746   C     0.48770   0.19010   0.52745   0.00000  Uiso   1.00
C747   C     0.40077   0.09311   0.65547   0.00000  Uiso   1.00
C748   C     0.61740   0.27140   0.78523   0.00000  Uiso   1.00
C749   C     0.54879   0.21382   0.95518   0.00000  Uiso   1.00
C750   C     0.40468   0.17725   0.53300   0.00000  Uiso   1.00
C751   C     0.58220   0.21873   0.97685   0.00000  Uiso   1.00
C752   C     0.54234   0.31158   0.72420   0.00000  Uiso   1.00
C753   C     0.45738   0.02173   0.77447   0.00000  Uiso   1.00
C754   C     0.54256   0.02113   0.72333   0.00000  Uiso   1.00
F755   F     0.58359   0.04153   0.69707   0.00000  Uiso   1.00
F756   F     0.41627   0.29183   0.80200   0.00000  Uiso   1.00
H757   H     0.36734   0.17069   0.55434   0.00000  Uiso   1.00
H758   H     0.56023   0.22414   0.91975   0.00000  Uiso   1.00
H759   H     0.57474   0.29465   0.70370   0.00000  Uiso   1.00
H760   H     0.42469   0.03864   0.79433   0.00000  Uiso   1.00
H761   H     0.63938   0.11266   0.70761   0.00000  Uiso   1.00
H762   H     0.36031   0.21945   0.79401   0.00000  Uiso   1.00
H763   H     0.39647   0.07881   0.72199   0.00000  Uiso   1.00
H764   H     0.43508   0.07634   0.63663   0.00000  Uiso   1.00
H765   H     0.39966   0.12137   0.63564   0.00000  Uiso   1.00
H766   H     0.37009   0.07204   0.65749   0.00000  Uiso   1.00
H767   H     0.56689   0.22351   0.81136   0.00000  Uiso   1.00
H768   H     0.61777   0.23139   0.95738   0.00000  Uiso   1.00
H769   H     0.58900   0.29355   0.80636   0.00000  Uiso   1.00
H770   H     0.62215   0.27440   0.74815   0.00000  Uiso   1.00
H771   H     0.65173   0.28012   0.78969   0.00000  Uiso   1.00
H772   H     0.48078   0.15645   0.60843   0.00000  Uiso   1.00
H773   H     0.52067   0.18944   0.88784   0.00000  Uiso   1.00
H774   H     0.61920   0.19796   0.60587   0.00000  Uiso   1.00
H775   H     0.37722   0.15463   0.89906   0.00000  Uiso   1.00
H776   H     0.34980   0.15862   0.98376   0.00000  Uiso   1.00
H777   H     0.64033   0.22181   0.52573   0.00000  Uiso   1.00
H778   H     0.42451   0.18277   0.59156   0.00000  Uiso   1.00
N779   N     0.38093   0.16668   0.75001   0.00000  Uiso   1.00
N780   N     0.61907   0.16666   0.74999   0.00000  Uiso   1.00
N781   N     0.39881   0.10448   0.70159   0.00000  Uiso   1.00
N782   N     0.60326   0.22907   0.80049   0.00000  Uiso   1.00
O783   O     0.46179   0.22775   0.75000   0.00000  Uiso   1.00
O784   O     0.53821   0.10558   0.74999   0.00000  Uiso   1.00
O785   O     0.53823   0.22774   0.75000   0.00000  Uiso   1.00
O786   O     0.46177   0.10559   0.75000   0.00000  Uiso   1.00
O787   O     0.43994   0.16667   0.81613   0.00000  Uiso   1.00
O788   O     0.56006   0.16666   0.68387   0.00000  Uiso   1.00
O789   O     0.51639   0.16666   0.81612   0.00000  Uiso   1.00
O790   O     0.48361   0.16667   0.68388   0.00000  Uiso   1.00
Zn791  Zn    0.44896   0.16667   0.75000   0.00000  Uiso   1.00
Zn792  Zn    0.55104   0.16666   0.75000   0.00000  Uiso   1.00
C793   C     0.83329   0.24660   0.75051   0.00000  Uiso   1.00
C794   C     0.79065   0.31220   0.77570   0.00000  Uiso   1.00
C795   C     0.83334   0.04258   0.74868   0.00000  Uiso   1.00
C796   C     0.83329   0.29075   0.75059   0.00000  Uiso   1.00
C797   C     0.98459   0.13673   0.72603   0.00000  Uiso   1.00
C798   C     0.68229   0.19634   0.77410   0.00000  Uiso   1.00
C799   C     0.69951   0.13673   0.72549   0.00000  Uiso   1.00
C800   C     0.96797   0.19702   0.77398   0.00000  Uiso   1.00
C801   C     0.80317   0.16747   0.83786   0.00000  Uiso   1.00
C802   C     0.86347   0.16767   0.66213   0.00000  Uiso   1.00
C803   C     0.78455   0.17195   0.88827   0.00000  Uiso   1.00
C804   C     0.83342   0.08674   0.74926   0.00000  Uiso   1.00
C805   C     0.88103   0.17623   0.61252   0.00000  Uiso   1.00
C806   C     0.72031   0.16665   0.96334   0.00000  Uiso   1.00
C807   C     0.93825   0.20826   0.54373   0.00000  Uiso   1.00
C808   C     0.73596   0.16404   0.91515   0.00000  Uiso   1.00
C809   C     0.92662   0.19404   0.58898   0.00000  Uiso   1.00
C810   C     0.81666   0.18451   0.90950   0.00000  Uiso   1.00
C811   C     0.84766   0.17277   0.59073   0.00000  Uiso   1.00
C812   C     0.80175   0.18793   0.95770   0.00000  Uiso   1.00
C813   C     0.85692   0.19001   0.54731   0.00000  Uiso   1.00
C814   C     0.75303   0.17764   0.98483   0.00000  Uiso   1.00
C815   C     0.77156   0.18302   0.55410   0.00000  Uiso   1.00
C816   C     0.90383   0.20582   0.52246   0.00000  Uiso   1.00
C817   C     0.83509   0.19766   0.97951   0.00000  Uiso   1.00
C818   C     0.82103   0.19010   0.52745   0.00000  Uiso   1.00
C819   C     0.73410   0.09311   0.65547   0.00000  Uiso   1.00
C820   C     0.95074   0.27140   0.78523   0.00000  Uiso   1.00
C821   C     0.88213   0.21382   0.95518   0.00000  Uiso   1.00
C822   C     0.73801   0.17725   0.53300   0.00000  Uiso   1.00
C823   C     0.91554   0.21873   0.97685   0.00000  Uiso   1.00
C824   C     0.87568   0.31158   0.72420   0.00000  Uiso   1.00
C825   C     0.79072   0.02173   0.77447   0.00000  Uiso   1.00
C826   C     0.87589   0.02113   0.72333   0.00000  Uiso   1.00
F827   F     0.91692   0.04153   0.69707   0.00000  Uiso   1.00
F828   F     0.74961   0.29183   0.80200   0.00000  Uiso   1.00
H829   H     0.70067   0.17069   0.55434   0.00000  Uiso   1.00
H830   H     0.89356   0.22414   0.91975   0.00000  Uiso   1.00
H831   H     0.90807   0.29465   0.70370   0.00000  Uiso   1.00
H832   H     0.75803   0.03864   0.79433   0.00000  Uiso   1.00
H833   H     0.97271   0.11266   0.70761   0.00000  Uiso   1.00
H834   H     0.69364   0.21945   0.79401   0.00000  Uiso   1.00
H835   H     0.72980   0.07881   0.72199   0.00000  Uiso   1.00
H836   H     0.76841   0.07634   0.63663   0.00000  Uiso   1.00
H837   H     0.73299   0.12137   0.63564   0.00000  Uiso   1.00
H838   H     0.70342   0.07204   0.65749   0.00000  Uiso   1.00
H839   H     0.90022   0.22351   0.81136   0.00000  Uiso   1.00
H840   H     0.95110   0.23139   0.95738   0.00000  Uiso   1.00
H841   H     0.92234   0.29355   0.80636   0.00000  Uiso   1.00
H842   H     0.95548   0.27440   0.74815   0.00000  Uiso   1.00
H843   H     0.98506   0.28012   0.78969   0.00000  Uiso   1.00
H844   H     0.81411   0.15645   0.60843   0.00000  Uiso   1.00
H845   H     0.85401   0.18944   0.88784   0.00000  Uiso   1.00
H846   H     0.95253   0.19796   0.60587   0.00000  Uiso   1.00
H847   H     0.71055   0.15463   0.89906   0.00000  Uiso   1.00
H848   H     0.68313   0.15862   0.98376   0.00000  Uiso   1.00
H849   H     0.97367   0.22181   0.52573   0.00000  Uiso   1.00
H850   H     0.75784   0.18277   0.59156   0.00000  Uiso   1.00
N851   N     0.71426   0.16668   0.75001   0.00000  Uiso   1.00
N852   N     0.95241   0.16666   0.74999   0.00000  Uiso   1.00
N853   N     0.73214   0.10448   0.70159   0.00000  Uiso   1.00
N854   N     0.93660   0.22907   0.80049   0.00000  Uiso   1.00
O855   O     0.79512   0.22775   0.75000   0.00000  Uiso   1.00
O856   O     0.87154   0.10558   0.74999   0.00000  Uiso   1.00
O857   O     0.87157   0.22774   0.75000   0.00000  Uiso   1.00
O858   O     0.79510   0.10559   0.75000   0.00000  Uiso   1.00
O859   O     0.77328   0.16667   0.81613   0.00000  Uiso   1.00
O860   O     0.89339   0.16666   0.68387   0.00000  Uiso   1.00
O861   O     0.84972   0.16666   0.81612   0.00000  Uiso   1.00
O862   O     0.81695   0.16667   0.68388   0.00000  Uiso   1.00
Zn863  Zn    0.78229   0.16667   0.75000   0.00000  Uiso   1.00
Zn864  Zn    0.88438   0.16666   0.75000   0.00000  Uiso   1.00
C865   C     0.16663   0.57993   0.75051   0.00000  Uiso   1.00
C866   C     0.12398   0.64554   0.77570   0.00000  Uiso   1.00
C867   C     0.16668   0.37592   0.74868   0.00000  Uiso   1.00
C868   C     0.16662   0.62409   0.75059   0.00000  Uiso   1.00
C869   C     0.31792   0.47007   0.72603   0.00000  Uiso   1.00
C870   C     0.01562   0.52967   0.77410   0.00000  Uiso   1.00
C871   C     0.03284   0.47007   0.72549   0.00000  Uiso   1.00
C872   C     0.30130   0.53036   0.77398   0.00000  Uiso   1.00
C873   C     0.13651   0.50081   0.83786   0.00000  Uiso   1.00
C874   C     0.19680   0.50100   0.66213   0.00000  Uiso   1.00
C875   C     0.11788   0.50528   0.88827   0.00000  Uiso   1.00
C876   C     0.16675   0.42007   0.74926   0.00000  Uiso   1.00
C877   C     0.21436   0.50956   0.61252   0.00000  Uiso   1.00
C878   C     0.05364   0.49998   0.96334   0.00000  Uiso   1.00
C879   C     0.27158   0.54159   0.54373   0.00000  Uiso   1.00
C880   C     0.06929   0.49737   0.91515   0.00000  Uiso   1.00
C881   C     0.25995   0.52738   0.58898   0.00000  Uiso   1.00
C882   C     0.14999   0.51785   0.90950   0.00000  Uiso   1.00
C883   C     0.18099   0.50610   0.59073   0.00000  Uiso   1.00
C884   C     0.13508   0.52126   0.95770   0.00000  Uiso   1.00
C885   C     0.19025   0.52334   0.54731   0.00000  Uiso   1.00
C886   C     0.08636   0.51097   0.98483   0.00000  Uiso   1.00
C887   C     0.10490   0.51636   0.55410   0.00000  Uiso   1.00
C888   C     0.23717   0.53916   0.52246   0.00000  Uiso   1.00
C889   C     0.16843   0.53099   0.97951   0.00000  Uiso   1.00
C890   C     0.15437   0.52343   0.52745   0.00000  Uiso   1.00
C891   C     0.06743   0.42645   0.65547   0.00000  Uiso   1.00
C892   C     0.28407   0.60473   0.78523   0.00000  Uiso   1.00
C893   C     0.21546   0.54716   0.95518   0.00000  Uiso   1.00
C894   C     0.07135   0.51059   0.53300   0.00000  Uiso   1.00
C895   C     0.24887   0.55207   0.97685   0.00000  Uiso   1.00
C896   C     0.20901   0.64492   0.72420   0.00000  Uiso   1.00
C897   C     0.12405   0.35506   0.77447   0.00000  Uiso   1.00
C898   C     0.20923   0.35447   0.72333   0.00000  Uiso   1.00
F899   F     0.25026   0.37487   0.69707   0.00000  Uiso   1.00
F900   F     0.08294   0.62516   0.80200   0.00000  Uiso   1.00
H901   H     0.03400   0.50402   0.55434   0.00000  Uiso   1.00
H902   H     0.22689   0.55747   0.91975   0.00000  Uiso   1.00
H903   H     0.24141   0.62798   0.70370   0.00000  Uiso   1.00
H904   H     0.09136   0.37197   0.79433   0.00000  Uiso   1.00
H905   H     0.30604   0.44600   0.70761   0.00000  Uiso   1.00
H906   H     0.02698   0.55278   0.79401   0.00000  Uiso   1.00
H907   H     0.06314   0.41214   0.72199   0.00000  Uiso   1.00
H908   H     0.10174   0.40967   0.63663   0.00000  Uiso   1.00
H909   H     0.06632   0.45470   0.63564   0.00000  Uiso   1.00
H910   H     0.03675   0.40538   0.65749   0.00000  Uiso   1.00
H911   H     0.23355   0.55685   0.81136   0.00000  Uiso   1.00
H912   H     0.28444   0.56473   0.95738   0.00000  Uiso   1.00
H913   H     0.25567   0.62689   0.80636   0.00000  Uiso   1.00
H914   H     0.28881   0.60773   0.74815   0.00000  Uiso   1.00
H915   H     0.31839   0.61345   0.78969   0.00000  Uiso   1.00
H916   H     0.14745   0.48978   0.60843   0.00000  Uiso   1.00
H917   H     0.18734   0.52278   0.88784   0.00000  Uiso   1.00
H918   H     0.28587   0.53129   0.60587   0.00000  Uiso   1.00
H919   H     0.04389   0.48796   0.89906   0.00000  Uiso   1.00
H920   H     0.01646   0.49196   0.98376   0.00000  Uiso   1.00
H921   H     0.30700   0.55515   0.52573   0.00000  Uiso   1.00
H922   H     0.09118   0.51610   0.59156   0.00000  Uiso   1.00
N923   N     0.04759   0.50001   0.75001   0.00000  Uiso   1.00
N924   N     0.28574   0.49999   0.74999   0.00000  Uiso   1.00
N925   N     0.06547   0.43781   0.70159   0.00000  Uiso   1.00
N926   N     0.26993   0.56241   0.80049   0.00000  Uiso   1.00
O927   O     0.12846   0.56108   0.75000   0.00000  Uiso   1.00
O928   O     0.20488   0.43892   0.74999   0.00000  Uiso   1.00
O929   O     0.20490   0.56107   0.75000   0.00000  Uiso   1.00
O930   O     0.12843   0.43893   0.75000   0.00000  Uiso   1.00
O931   O     0.10661   0.50001   0.81613   0.00000  Uiso   1.00
O932   O     0.22672   0.49999   0.68387   0.00000  Uiso   1.00
O933   O     0.18305   0.50000   0.81612   0.00000  Uiso   1.00
O934   O     0.15028   0.50000   0.68388   0.00000  Uiso   1.00
Zn935  Zn    0.11562   0.50001   0.75000   0.00000  Uiso   1.00
Zn936  Zn    0.21771   0.49999   0.75000   0.00000  Uiso   1.00
C937   C     0.49996   0.57993   0.75051   0.00000  Uiso   1.00
C938   C     0.45731   0.64554   0.77570   0.00000  Uiso   1.00
C939   C     0.50001   0.37592   0.74868   0.00000  Uiso   1.00
C940   C     0.49995   0.62409   0.75059   0.00000  Uiso   1.00
C941   C     0.65126   0.47007   0.72603   0.00000  Uiso   1.00
C942   C     0.34896   0.52967   0.77410   0.00000  Uiso   1.00
C943   C     0.36618   0.47007   0.72549   0.00000  Uiso   1.00
C944   C     0.63464   0.53036   0.77398   0.00000  Uiso   1.00
C945   C     0.46984   0.50081   0.83786   0.00000  Uiso   1.00
C946   C     0.53014   0.50100   0.66213   0.00000  Uiso   1.00
C947   C     0.45122   0.50528   0.88827   0.00000  Uiso   1.00
C948   C     0.50008   0.42007   0.74926   0.00000  Uiso   1.00
C949   C     0.54769   0.50956   0.61252   0.00000  Uiso   1.00
C950   C     0.38698   0.49998   0.96334   0.00000  Uiso   1.00
C951   C     0.60491   0.54159   0.54373   0.00000  Uiso   1.00
C952   C     0.40262   0.49737   0.91515   0.00000  Uiso   1.00
C953   C     0.59329   0.52738   0.58898   0.00000  Uiso   1.00
C954   C     0.48333   0.51785   0.90950   0.00000  Uiso   1.00
C955   C     0.51433   0.50610   0.59073   0.00000  Uiso   1.00
C956   C     0.46841   0.52126   0.95770   0.00000  Uiso   1.00
C957   C     0.52358   0.52334   0.54731   0.00000  Uiso   1.00
C958   C     0.41969   0.51097   0.98483   0.00000  Uiso   1.00
C959   C     0.43823   0.51636   0.55410   0.00000  Uiso   1.00
C960   C     0.57050   0.53916   0.52246   0.00000  Uiso   1.00
C961   C     0.50176   0.53099   0.97951   0.00000  Uiso   1.00
C962   C     0.48770   0.52343   0.52745   0.00000  Uiso   1.00
C963   C     0.40077   0.42645   0.65547   0.00000  Uiso   1.00
C964   C     0.61740   0.60473   0.78523   0.00000  Uiso   1.00
C965   C     0.54879   0.54716   0.95518   0.00000  Uiso   1.00
C966   C     0.40468   0.51059   0.53300   0.00000  Uiso   1.00
C967   C     0.58220   0.55207   0.97685   0.00000  Uiso   1.00
C968   C     0.54234   0.64492   0.72420   0.00000  Uiso   1.00
C969   C     0.45738   0.35506   0.77447   0.00000  Uiso   1.00
C970   C     0.54256   0.35447   0.72333   0.00000  Uiso   1.00
F971   F     0.58359   0.37487   0.69707   0.00000  Uiso   1.00
F972   F     0.41627   0.62516   0.80200   0.00000  Uiso   1.00
H973   H     0.36734   0.50402   0.55434   0.00000  Uiso   1.00
H974   H     0.56023   0.55747   0.91975   0.00000  Uiso   1.00
H975   H     0.57474   0.62798   0.70370   0.00000  Uiso   1.00
H976   H     0.42469   0.37197   0.79433   0.00000  Uiso   1.00
H977   H     0.63938   0.44600   0.70761   0.00000  Uiso   1.00
H978   H     0.36031   0.55278   0.79401   0.00000  Uiso   1.00
H979   H     0.39647   0.41214   0.72199   0.00000  Uiso   1.00
H980   H     0.43508   0.40967   0.63663   0.00000  Uiso   1.00
H981   H     0.39966   0.45470   0.63564   0.00000  Uiso   1.00
H982   H     0.37009   0.40538   0.65749   0.00000  Uiso   1.00
H983   H     0.56689   0.55685   0.81136   0.00000  Uiso   1.00
H984   H     0.61777   0.56473   0.95738   0.00000  Uiso   1.00
H985   H     0.58900   0.62689   0.80636   0.00000  Uiso   1.00
H986   H     0.62215   0.60773   0.74815   0.00000  Uiso   1.00
H987   H     0.65173   0.61345   0.78969   0.00000  Uiso   1.00
H988   H     0.48078   0.48978   0.60843   0.00000  Uiso   1.00
H989   H     0.52067   0.52278   0.88784   0.00000  Uiso   1.00
H990   H     0.61920   0.53129   0.60587   0.00000  Uiso   1.00
H991   H     0.37722   0.48796   0.89906   0.00000  Uiso   1.00
H992   H     0.34980   0.49196   0.98376   0.00000  Uiso   1.00
H993   H     0.64033   0.55515   0.52573   0.00000  Uiso   1.00
H994   H     0.42451   0.51610   0.59156   0.00000  Uiso   1.00
N995   N     0.38093   0.50001   0.75001   0.00000  Uiso   1.00
N996   N     0.61907   0.49999   0.74999   0.00000  Uiso   1.00
N997   N     0.39881   0.43781   0.70159   0.00000  Uiso   1.00
N998   N     0.60326   0.56241   0.80049   0.00000  Uiso   1.00
O999   O     0.46179   0.56108   0.75000   0.00000  Uiso   1.00
O1000  O     0.53821   0.43892   0.74999   0.00000  Uiso   1.00
O1001  O     0.53823   0.56107   0.75000   0.00000  Uiso   1.00
O1002  O     0.46177   0.43893   0.75000   0.00000  Uiso   1.00
O1003  O     0.43994   0.50001   0.81613   0.00000  Uiso   1.00
O1004  O     0.56006   0.49999   0.68387   0.00000  Uiso   1.00
O1005  O     0.51639   0.50000   0.81612   0.00000  Uiso   1.00
O1006  O     0.48361   0.50000   0.68388   0.00000  Uiso   1.00
Zn1007 Zn    0.44896   0.50001   0.75000   0.00000  Uiso   1.00
Zn1008 Zn    0.55104   0.49999   0.75000   0.00000  Uiso   1.00
C1009  C     0.83329   0.57993   0.75051   0.00000  Uiso   1.00
C1010  C     0.79065   0.64554   0.77570   0.00000  Uiso   1.00
C1011  C     0.83334   0.37592   0.74868   0.00000  Uiso   1.00
C1012  C     0.83329   0.62409   0.75059   0.00000  Uiso   1.00
C1013  C     0.98459   0.47007   0.72603   0.00000  Uiso   1.00
C1014  C     0.68229   0.52967   0.77410   0.00000  Uiso   1.00
C1015  C     0.69951   0.47007   0.72549   0.00000  Uiso   1.00
C1016  C     0.96797   0.53036   0.77398   0.00000  Uiso   1.00
C1017  C     0.80317   0.50081   0.83786   0.00000  Uiso   1.00
C1018  C     0.86347   0.50100   0.66213   0.00000  Uiso   1.00
C1019  C     0.78455   0.50528   0.88827   0.00000  Uiso   1.00
C1020  C     0.83342   0.42007   0.74926   0.00000  Uiso   1.00
C1021  C     0.88103   0.50956   0.61252   0.00000  Uiso   1.00
C1022  C     0.72031   0.49998   0.96334   0.00000  Uiso   1.00
C1023  C     0.93825   0.54159   0.54373   0.00000  Uiso   1.00
C1024  C     0.73596   0.49737   0.91515   0.00000  Uiso   1.00
C1025  C     0.92662   0.52738   0.58898   0.00000  Uiso   1.00
C1026  C     0.81666   0.51785   0.90950   0.00000  Uiso   1.00
C1027  C     0.84766   0.50610   0.59073   0.00000  Uiso   1.00
C1028  C     0.80175   0.52126   0.95770   0.00000  Uiso   1.00
C1029  C     0.85692   0.52334   0.54731   0.00000  Uiso   1.00
C1030  C     0.75303   0.51097   0.98483   0.00000  Uiso   1.00
C1031  C     0.77156   0.51636   0.55410   0.00000  Uiso   1.00
C1032  C     0.90383   0.53916   0.52246   0.00000  Uiso   1.00
C1033  C     0.83509   0.53099   0.97951   0.00000  Uiso   1.00
C1034  C     0.82103   0.52343   0.52745   0.00000  Uiso   1.00
C1035  C     0.73410   0.42645   0.65547   0.00000  Uiso   1.00
C1036  C     0.95074   0.60473   0.78523   0.00000  Uiso   1.00
C1037  C     0.88213   0.54716   0.95518   0.00000  Uiso   1.00
C1038  C     0.73801   0.51059   0.53300   0.00000  Uiso   1.00
C1039  C     0.91554   0.55207   0.97685   0.00000  Uiso   1.00
C1040  C     0.87568   0.64492   0.72420   0.00000  Uiso   1.00
C1041  C     0.79072   0.35506   0.77447   0.00000  Uiso   1.00
C1042  C     0.87589   0.35447   0.72333   0.00000  Uiso   1.00
F1043  F     0.91692   0.37487   0.69707   0.00000  Uiso   1.00
F1044  F     0.74961   0.62516   0.80200   0.00000  Uiso   1.00
H1045  H     0.70067   0.50402   0.55434   0.00000  Uiso   1.00
H1046  H     0.89356   0.55747   0.91975   0.00000  Uiso   1.00
H1047  H     0.90807   0.62798   0.70370   0.00000  Uiso   1.00
H1048  H     0.75803   0.37197   0.79433   0.00000  Uiso   1.00
H1049  H     0.97271   0.44600   0.70761   0.00000  Uiso   1.00
H1050  H     0.69364   0.55278   0.79401   0.00000  Uiso   1.00
H1051  H     0.72980   0.41214   0.72199   0.00000  Uiso   1.00
H1052  H     0.76841   0.40967   0.63663   0.00000  Uiso   1.00
H1053  H     0.73299   0.45470   0.63564   0.00000  Uiso   1.00
H1054  H     0.70342   0.40538   0.65749   0.00000  Uiso   1.00
H1055  H     0.90022   0.55685   0.81136   0.00000  Uiso   1.00
H1056  H     0.95110   0.56473   0.95738   0.00000  Uiso   1.00
H1057  H     0.92234   0.62689   0.80636   0.00000  Uiso   1.00
H1058  H     0.95548   0.60773   0.74815   0.00000  Uiso   1.00
H1059  H     0.98506   0.61345   0.78969   0.00000  Uiso   1.00
H1060  H     0.81411   0.48978   0.60843   0.00000  Uiso   1.00
H1061  H     0.85401   0.52278   0.88784   0.00000  Uiso   1.00
H1062  H     0.95253   0.53129   0.60587   0.00000  Uiso   1.00
H1063  H     0.71055   0.48796   0.89906   0.00000  Uiso   1.00
H1064  H     0.68313   0.49196   0.98376   0.00000  Uiso   1.00
H1065  H     0.97367   0.55515   0.52573   0.00000  Uiso   1.00
H1066  H     0.75784   0.51610   0.59156   0.00000  Uiso   1.00
N1067  N     0.71426   0.50001   0.75001   0.00000  Uiso   1.00
N1068  N     0.95241   0.49999   0.74999   0.00000  Uiso   1.00
N1069  N     0.73214   0.43781   0.70159   0.00000  Uiso   1.00
N1070  N     0.93660   0.56241   0.80049   0.00000  Uiso   1.00
O1071  O     0.79512   0.56108   0.75000   0.00000  Uiso   1.00
O1072  O     0.87154   0.43892   0.74999   0.00000  Uiso   1.00
O1073  O     0.87157   0.56107   0.75000   0.00000  Uiso   1.00
O1074  O     0.79510   0.43893   0.75000   0.00000  Uiso   1.00
O1075  O     0.77328   0.50001   0.81613   0.00000  Uiso   1.00
O1076  O     0.89339   0.49999   0.68387   0.00000  Uiso   1.00
O1077  O     0.84972   0.50000   0.81612   0.00000  Uiso   1.00
O1078  O     0.81695   0.50000   0.68388   0.00000  Uiso   1.00
Zn1079 Zn    0.78229   0.50001   0.75000   0.00000  Uiso   1.00
Zn1080 Zn    0.88438   0.49999   0.75000   0.00000  Uiso   1.00
C1081  C     0.16663   0.91327   0.75051   0.00000  Uiso   1.00
C1082  C     0.12398   0.97887   0.77570   0.00000  Uiso   1.00
C1083  C     0.16668   0.70925   0.74868   0.00000  Uiso   1.00
C1084  C     0.16662   0.95742   0.75059   0.00000  Uiso   1.00
C1085  C     0.31792   0.80340   0.72603   0.00000  Uiso   1.00
C1086  C     0.01562   0.86301   0.77410   0.00000  Uiso   1.00
C1087  C     0.03284   0.80340   0.72549   0.00000  Uiso   1.00
C1088  C     0.30130   0.86369   0.77398   0.00000  Uiso   1.00
C1089  C     0.13651   0.83414   0.83786   0.00000  Uiso   1.00
C1090  C     0.19680   0.83434   0.66213   0.00000  Uiso   1.00
C1091  C     0.11788   0.83862   0.88827   0.00000  Uiso   1.00
C1092  C     0.16675   0.75341   0.74926   0.00000  Uiso   1.00
C1093  C     0.21436   0.84290   0.61252   0.00000  Uiso   1.00
C1094  C     0.05364   0.83332   0.96334   0.00000  Uiso   1.00
C1095  C     0.27158   0.87493   0.54373   0.00000  Uiso   1.00
C1096  C     0.06929   0.83071   0.91515   0.00000  Uiso   1.00
C1097  C     0.25995   0.86071   0.58898   0.00000  Uiso   1.00
C1098  C     0.14999   0.85118   0.90950   0.00000  Uiso   1.00
C1099  C     0.18099   0.83943   0.59073   0.00000  Uiso   1.00
C1100  C     0.13508   0.85459   0.95770   0.00000  Uiso   1.00
C1101  C     0.19025   0.85668   0.54731   0.00000  Uiso   1.00
C1102  C     0.08636   0.84430   0.98483   0.00000  Uiso   1.00
C1103  C     0.10490   0.84969   0.55410   0.00000  Uiso   1.00
C1104  C     0.23717   0.87249   0.52246   0.00000  Uiso   1.00
C1105  C     0.16843   0.86433   0.97951   0.00000  Uiso   1.00
C1106  C     0.15437   0.85677   0.52745   0.00000  Uiso   1.00
C1107  C     0.06743   0.75978   0.65547   0.00000  Uiso   1.00
C1108  C     0.28407   0.93806   0.78523   0.00000  Uiso   1.00
C1109  C     0.21546   0.88049   0.95518   0.00000  Uiso   1.00
C1110  C     0.07135   0.84392   0.53300   0.00000  Uiso   1.00
C1111  C     0.24887   0.88540   0.97685   0.00000  Uiso   1.00
C1112  C     0.20901   0.97825   0.72420   0.00000  Uiso   1.00
C1113  C     0.12405   0.68840   0.77447   0.00000  Uiso   1.00
C1114  C     0.20923   0.68780   0.72333   0.00000  Uiso   1.00
F1115  F     0.25026   0.70820   0.69707   0.00000  Uiso   1.00
F1116  F     0.08294   0.95850   0.80200   0.00000  Uiso   1.00
H1117  H     0.03400   0.83736   0.55434   0.00000  Uiso   1.00
H1118  H     0.22689   0.89080   0.91975   0.00000  Uiso   1.00
H1119  H     0.24141   0.96131   0.70370   0.00000  Uiso   1.00
H1120  H     0.09136   0.70530   0.79433   0.00000  Uiso   1.00
H1121  H     0.30604   0.77933   0.70761   0.00000  Uiso   1.00
H1122  H     0.02698   0.88611   0.79401   0.00000  Uiso   1.00
H1123  H     0.06314   0.74547   0.72199   0.00000  Uiso   1.00
H1124  H     0.10174   0.74301   0.63663   0.00000  Uiso   1.00
H1125  H     0.06632   0.78804   0.63564   0.00000  Uiso   1.00
H1126  H     0.03675   0.73871   0.65749   0.00000  Uiso   1.00
H1127  H     0.23355   0.89018   0.81136   0.00000  Uiso   1.00
H1128  H     0.28444   0.89806   0.95738   0.00000  Uiso   1.00
H1129  H     0.25567   0.96022   0.80636   0.00000  Uiso   1.00
H1130  H     0.28881   0.94107   0.74815   0.00000  Uiso   1.00
H1131  H     0.31839   0.94678   0.78969   0.00000  Uiso   1.00
H1132  H     0.14745   0.82312   0.60843   0.00000  Uiso   1.00
H1133  H     0.18734   0.85611   0.88784   0.00000  Uiso   1.00
H1134  H     0.28587   0.86462   0.60587   0.00000  Uiso   1.00
H1135  H     0.04389   0.82130   0.89906   0.00000  Uiso   1.00
H1136  H     0.01646   0.82529   0.98376   0.00000  Uiso   1.00
H1137  H     0.30700   0.88848   0.52573   0.00000  Uiso   1.00
H1138  H     0.09118   0.84944   0.59156   0.00000  Uiso   1.00
N1139  N     0.04759   0.83334   0.75001   0.00000  Uiso   1.00
N1140  N     0.28574   0.83332   0.74999   0.00000  Uiso   1.00
N1141  N     0.06547   0.77114   0.70159   0.00000  Uiso   1.00
N1142  N     0.26993   0.89574   0.80049   0.00000  Uiso   1.00
O1143  O     0.12846   0.89442   0.75000   0.00000  Uiso   1.00
O1144  O     0.20488   0.77225   0.74999   0.00000  Uiso   1.00
O1145  O     0.20490   0.89441   0.75000   0.00000  Uiso   1.00
O1146  O     0.12843   0.77226   0.75000   0.00000  Uiso   1.00
O1147  O     0.10661   0.83334   0.81613   0.00000  Uiso   1.00
O1148  O     0.22672   0.83333   0.68387   0.00000  Uiso   1.00
O1149  O     0.18305   0.83333   0.81612   0.00000  Uiso   1.00
O1150  O     0.15028   0.83334   0.68388   0.00000  Uiso   1.00
Zn1151 Zn    0.11562   0.83334   0.75000   0.00000  Uiso   1.00
Zn1152 Zn    0.21771   0.83333   0.75000   0.00000  Uiso   1.00
C1153  C     0.49996   0.91327   0.75051   0.00000  Uiso   1.00
C1154  C     0.45731   0.97887   0.77570   0.00000  Uiso   1.00
C1155  C     0.50001   0.70925   0.74868   0.00000  Uiso   1.00
C1156  C     0.49995   0.95742   0.75059   0.00000  Uiso   1.00
C1157  C     0.65126   0.80340   0.72603   0.00000  Uiso   1.00
C1158  C     0.34896   0.86301   0.77410   0.00000  Uiso   1.00
C1159  C     0.36618   0.80340   0.72549   0.00000  Uiso   1.00
C1160  C     0.63464   0.86369   0.77398   0.00000  Uiso   1.00
C1161  C     0.46984   0.83414   0.83786   0.00000  Uiso   1.00
C1162  C     0.53014   0.83434   0.66213   0.00000  Uiso   1.00
C1163  C     0.45122   0.83862   0.88827   0.00000  Uiso   1.00
C1164  C     0.50008   0.75341   0.74926   0.00000  Uiso   1.00
C1165  C     0.54769   0.84290   0.61252   0.00000  Uiso   1.00
C1166  C     0.38698   0.83332   0.96334   0.00000  Uiso   1.00
C1167  C     0.60491   0.87493   0.54373   0.00000  Uiso   1.00
C1168  C     0.40262   0.83071   0.91515   0.00000  Uiso   1.00
C1169  C     0.59329   0.86071   0.58898   0.00000  Uiso   1.00
C1170  C     0.48333   0.85118   0.90950   0.00000  Uiso   1.00
C1171  C     0.51433   0.83943   0.59073   0.00000  Uiso   1.00
C1172  C     0.46841   0.85459   0.95770   0.00000  Uiso   1.00
C1173  C     0.52358   0.85668   0.54731   0.00000  Uiso   1.00
C1174  C     0.41969   0.84430   0.98483   0.00000  Uiso   1.00
C1175  C     0.43823   0.84969   0.55410   0.00000  Uiso   1.00
C1176  C     0.57050   0.87249   0.52246   0.00000  Uiso   1.00
C1177  C     0.50176   0.86433   0.97951   0.00000  Uiso   1.00
C1178  C     0.48770   0.85677   0.52745   0.00000  Uiso   1.00
C1179  C     0.40077   0.75978   0.65547   0.00000  Uiso   1.00
C1180  C     0.61740   0.93806   0.78523   0.00000  Uiso   1.00
C1181  C     0.54879   0.88049   0.95518   0.00000  Uiso   1.00
C1182  C     0.40468   0.84392   0.53300   0.00000  Uiso   1.00
C1183  C     0.58220   0.88540   0.97685   0.00000  Uiso   1.00
C1184  C     0.54234   0.97825   0.72420   0.00000  Uiso   1.00
C1185  C     0.45738   0.68840   0.77447   0.00000  Uiso   1.00
C1186  C     0.54256   0.68780   0.72333   0.00000  Uiso   1.00
F1187  F     0.58359   0.70820   0.69707   0.00000  Uiso   1.00
F1188  F     0.41627   0.95850   0.80200   0.00000  Uiso   1.00
H1189  H     0.36734   0.83736   0.55434   0.00000  Uiso   1.00
H1190  H     0.56023   0.89080   0.91975   0.00000  Uiso   1.00
H1191  H     0.57474   0.96131   0.70370   0.00000  Uiso   1.00
H1192  H     0.42469   0.70530   0.79433   0.00000  Uiso   1.00
H1193  H     0.63938   0.77933   0.70761   0.00000  Uiso   1.00
H1194  H     0.36031   0.88611   0.79401   0.00000  Uiso   1.00
H1195  H     0.39647   0.74547   0.72199   0.00000  Uiso   1.00
H1196  H     0.43508   0.74301   0.63663   0.00000  Uiso   1.00
H1197  H     0.39966   0.78804   0.63564   0.00000  Uiso   1.00
H1198  H     0.37009   0.73871   0.65749   0.00000  Uiso   1.00
H1199  H     0.56689   0.89018   0.81136   0.00000  Uiso   1.00
H1200  H     0.61777   0.89806   0.95738   0.00000  Uiso   1.00
H1201  H     0.58900   0.96022   0.80636   0.00000  Uiso   1.00
H1202  H     0.62215   0.94107   0.74815   0.00000  Uiso   1.00
H1203  H     0.65173   0.94678   0.78969   0.00000  Uiso   1.00
H1204  H     0.48078   0.82312   0.60843   0.00000  Uiso   1.00
H1205  H     0.52067   0.85611   0.88784   0.00000  Uiso   1.00
H1206  H     0.61920   0.86462   0.60587   0.00000  Uiso   1.00
H1207  H     0.37722   0.82130   0.89906   0.00000  Uiso   1.00
H1208  H     0.34980   0.82529   0.98376   0.00000  Uiso   1.00
H1209  H     0.64033   0.88848   0.52573   0.00000  Uiso   1.00
H1210  H     0.42451   0.84944   0.59156   0.00000  Uiso   1.00
N1211  N     0.38093   0.83334   0.75001   0.00000  Uiso   1.00
N1212  N     0.61907   0.83332   0.74999   0.00000  Uiso   1.00
N1213  N     0.39881   0.77114   0.70159   0.00000  Uiso   1.00
N1214  N     0.60326   0.89574   0.80049   0.00000  Uiso   1.00
O1215  O     0.46179   0.89442   0.75000   0.00000  Uiso   1.00
O1216  O     0.53821   0.77225   0.74999   0.00000  Uiso   1.00
O1217  O     0.53823   0.89441   0.75000   0.00000  Uiso   1.00
O1218  O     0.46177   0.77226   0.75000   0.00000  Uiso   1.00
O1219  O     0.43994   0.83334   0.81613   0.00000  Uiso   1.00
O1220  O     0.56006   0.83333   0.68387   0.00000  Uiso   1.00
O1221  O     0.51639   0.83333   0.81612   0.00000  Uiso   1.00
O1222  O     0.48361   0.83334   0.68388   0.00000  Uiso   1.00
Zn1223 Zn    0.44896   0.83334   0.75000   0.00000  Uiso   1.00
Zn1224 Zn    0.55104   0.83333   0.75000   0.00000  Uiso   1.00
C1225  C     0.83329   0.91327   0.75051   0.00000  Uiso   1.00
C1226  C     0.79065   0.97887   0.77570   0.00000  Uiso   1.00
C1227  C     0.83334   0.70925   0.74868   0.00000  Uiso   1.00
C1228  C     0.83329   0.95742   0.75059   0.00000  Uiso   1.00
C1229  C     0.98459   0.80340   0.72603   0.00000  Uiso   1.00
C1230  C     0.68229   0.86301   0.77410   0.00000  Uiso   1.00
C1231  C     0.69951   0.80340   0.72549   0.00000  Uiso   1.00
C1232  C     0.96797   0.86369   0.77398   0.00000  Uiso   1.00
C1233  C     0.80317   0.83414   0.83786   0.00000  Uiso   1.00
C1234  C     0.86347   0.83434   0.66213   0.00000  Uiso   1.00
C1235  C     0.78455   0.83862   0.88827   0.00000  Uiso   1.00
C1236  C     0.83342   0.75341   0.74926   0.00000  Uiso   1.00
C1237  C     0.88103   0.84290   0.61252   0.00000  Uiso   1.00
C1238  C     0.72031   0.83332   0.96334   0.00000  Uiso   1.00
C1239  C     0.93825   0.87493   0.54373   0.00000  Uiso   1.00
C1240  C     0.73596   0.83071   0.91515   0.00000  Uiso   1.00
C1241  C     0.92662   0.86071   0.58898   0.00000  Uiso   1.00
C1242  C     0.81666   0.85118   0.90950   0.00000  Uiso   1.00
C1243  C     0.84766   0.83943   0.59073   0.00000  Uiso   1.00
C1244  C     0.80175   0.85459   0.95770   0.00000  Uiso   1.00
C1245  C     0.85692   0.85668   0.54731   0.00000  Uiso   1.00
C1246  C     0.75303   0.84430   0.98483   0.00000  Uiso   1.00
C1247  C     0.77156   0.84969   0.55410   0.00000  Uiso   1.00
C1248  C     0.90383   0.87249   0.52246   0.00000  Uiso   1.00
C1249  C     0.83509   0.86433   0.97951   0.00000  Uiso   1.00
C1250  C     0.82103   0.85677   0.52745   0.00000  Uiso   1.00
C1251  C     0.73410   0.75978   0.65547   0.00000  Uiso   1.00
C1252  C     0.95074   0.93806   0.78523   0.00000  Uiso   1.00
C1253  C     0.88213   0.88049   0.95518   0.00000  Uiso   1.00
C1254  C     0.73801   0.84392   0.53300   0.00000  Uiso   1.00
C1255  C     0.91554   0.88540   0.97685   0.00000  Uiso   1.00
C1256  C     0.87568   0.97825   0.72420   0.00000  Uiso   1.00
C1257  C     0.79072   0.68840   0.77447   0.00000  Uiso   1.00
C1258  C     0.87589   0.68780   0.72333   0.00000  Uiso   1.00
F1259  F     0.91692   0.70820   0.69707   0.00000  Uiso   1.00
F1260  F     0.74961   0.95850   0.80200   0.00000  Uiso   1.00
H1261  H     0.70067   0.83736   0.55434   0.00000  Uiso   1.00
H1262  H     0.89356   0.89080   0.91975   0.00000  Uiso   1.00
H1263  H     0.90807   0.96131   0.70370   0.00000  Uiso   1.00
H1264  H     0.75803   0.70530   0.79433   0.00000  Uiso   1.00
H1265  H     0.97271   0.77933   0.70761   0.00000  Uiso   1.00
H1266  H     0.69364   0.88611   0.79401   0.00000  Uiso   1.00
H1267  H     0.72980   0.74547   0.72199   0.00000  Uiso   1.00
H1268  H     0.76841   0.74301   0.63663   0.00000  Uiso   1.00
H1269  H     0.73299   0.78804   0.63564   0.00000  Uiso   1.00
H1270  H     0.70342   0.73871   0.65749   0.00000  Uiso   1.00
H1271  H     0.90022   0.89018   0.81136   0.00000  Uiso   1.00
H1272  H     0.95110   0.89806   0.95738   0.00000  Uiso   1.00
H1273  H     0.92234   0.96022   0.80636   0.00000  Uiso   1.00
H1274  H     0.95548   0.94107   0.74815   0.00000  Uiso   1.00
H1275  H     0.98506   0.94678   0.78969   0.00000  Uiso   1.00
H1276  H     0.81411   0.82312   0.60843   0.00000  Uiso   1.00
H1277  H     0.85401   0.85611   0.88784   0.00000  Uiso   1.00
H1278  H     0.95253   0.86462   0.60587   0.00000  Uiso   1.00
H1279  H     0.71055   0.82130   0.89906   0.00000  Uiso   1.00
H1280  H     0.68313   0.82529   0.98376   0.00000  Uiso   1.00
H1281  H     0.97367   0.88848   0.52573   0.00000  Uiso   1.00
H1282  H     0.75784   0.84944   0.59156   0.00000  Uiso   1.00
N1283  N     0.71426   0.83334   0.75001   0.00000  Uiso   1.00
N1284  N     0.95241   0.83332   0.74999   0.00000  Uiso   1.00
N1285  N     0.73214   0.77114   0.70159   0.00000  Uiso   1.00
N1286  N     0.93660   0.89574   0.80049   0.00000  Uiso   1.00
O1287  O     0.79512   0.89442   0.75000   0.00000  Uiso   1.00
O1288  O     0.87154   0.77225   0.74999   0.00000  Uiso   1.00
O1289  O     0.87157   0.89441   0.75000   0.00000  Uiso   1.00
O1290  O     0.79510   0.77226   0.75000   0.00000  Uiso   1.00
O1291  O     0.77328   0.83334   0.81613   0.00000  Uiso   1.00
O1292  O     0.89339   0.83333   0.68387   0.00000  Uiso   1.00
O1293  O     0.84972   0.83333   0.81612   0.00000  Uiso   1.00
O1294  O     0.81695   0.83334   0.68388   0.00000  Uiso   1.00
Zn1295 Zn    0.78229   0.83334   0.75000   0.00000  Uiso   1.00
Zn1296 Zn    0.88438   0.83333   0.75000   0.00000  Uiso   1.00
loop_
_geom_bond_atom_site_label_1
_geom_bond_atom_site_label_2
_geom_bond_distance
_geom_bond_site_symmetry_2
_ccdc_geom_bond_type
C1     O65     1.288   .     A
C1     C4      1.412   .     S
C1     O63     1.283   .     A
C2     C4      1.399   .     A
C2     F36     1.359   .     S
C2     C249    1.372   .     S
C3     C33     1.394   .     A
C3     C34     1.399   .     A
C3     C12     1.412   .     S
C4     C32     1.394   .     A
C5     N60     1.362   .     A
C5     H41     1.081   .     S
C5     C79     1.427   .     S
C6     N59     1.354   .     A
C6     H42     1.082   .     S
C6     C152    1.417   1_455 S
C7     N59     1.376   .     A
C7     N61     1.422   .     S
C7     C149    1.427   1_455 S
C8     N60     1.387   .     A
C8     N62     1.422   .     S
C8     C78     1.417   .     S
C9     O67     1.296   .     A
C9     C11     1.457   .     S
C9     O69     1.297   .     A
C10    O68     1.298   .     A
C10    O70     1.297   .     A
C10    C13     1.459   .     S
C11    C18     1.394   .     A
C11    C16     1.399   .     A
C12    O64     1.284   .     A
C12    O66     1.287   .     A
C13    C17     1.401   .     A
C13    C19     1.391   .     A
C14    H56     1.083   .     S
C14    C22     1.403   .     A
C14    C16     1.392   .     A
C15    H57     1.083   .     S
C15    C24     1.405   .     A
C15    C17     1.397   .     A
C16    H55     1.083   .     S
C17    H54     1.083   .     S
C18    C20     1.395   .     A
C18    H53     1.077   .     S
C19    H52     1.079   .     S
C19    C21     1.392   .     A
C20    C22     1.420   .     A
C20    C25     1.418   .     A
C21    C26     1.412   .     A
C21    C24     1.415   .     A
C22    C678    1.391   .     S
C23    H58     1.079   .     S
C23    C30     1.387   .     A
C23    C26     1.415   .     A
C24    C679    1.394   1_554 S
C25    C29     1.418   .     A
C25    C674    1.411   .     S
C26    C673    1.411   1_554 S
C27    H45     1.109   .     S
C27    H46     1.111   .     S
C27    N61     1.447   .     S
C27    H44     1.110   .     S
C28    H49     1.111   .     S
C28    H50     1.110   .     S
C28    N62     1.448   .     S
C28    H51     1.110   .     S
C29    H38     1.079   .     S
C29    C31     1.393   .     A
C30    H37     1.083   .     S
C30    C670    1.391   1_554 S
C31    H48     1.084   .     S
C31    C672    1.394   .     S
C32    H39     1.084   .     S
C32    C250    1.372   .     S
C33    H40     1.084   .     S
C33    C434    1.372   1_545 S
C34    F35     1.359   .     S
C34    C464    1.372   1_545 S
H43    N61     1.031   .     S
H47    N62     1.021   .     S
N59    Zn71    2.021   .     S
N60    Zn72    2.021   .     S
O63    Zn71    1.986   .     S
O64    Zn72    1.986   .     S
O65    Zn72    1.994   .     S
O66    Zn71    1.994   .     S
O67    Zn71    1.965   .     S
O68    Zn72    1.965   .     S
O69    Zn72    1.925   .     S
O70    Zn71    1.925   .     S
C73    O137    1.288   .     A
C73    C76     1.412   .     S
C73    O135    1.283   .     A
C74    C76     1.399   .     A
C74    F108    1.359   .     S
C74    C321    1.372   .     S
C75    C105    1.394   .     A
C75    C106    1.399   .     A
C75    C84     1.412   .     S
C76    C104    1.394   .     A
C77    N132    1.362   .     A
C77    H113    1.081   .     S
C77    C151    1.427   .     S
C78    N131    1.354   .     A
C78    H114    1.082   .     S
C79    N131    1.376   .     A
C79    N133    1.422   .     S
C80    N132    1.387   .     A
C80    N134    1.422   .     S
C80    C150    1.417   .     S
C81    O139    1.296   .     A
C81    C83     1.457   .     S
C81    O141    1.297   .     A
C82    O140    1.298   .     A
C82    O142    1.297   .     A
C82    C85     1.459   .     S
C83    C90     1.394   .     A
C83    C88     1.399   .     A
C84    O136    1.284   .     A
C84    O138    1.287   .     A
C85    C89     1.401   .     A
C85    C91     1.391   .     A
C86    H128    1.083   .     S
C86    C94     1.403   .     A
C86    C88     1.392   .     A
C87    H129    1.083   .     S
C87    C96     1.405   .     A
C87    C89     1.397   .     A
C88    H127    1.083   .     S
C89    H126    1.083   .     S
C90    C92     1.395   .     A
C90    H125    1.077   .     S
C91    H124    1.079   .     S
C91    C93     1.392   .     A
C92    C94     1.420   .     A
C92    C97     1.418   .     A
C93    C98     1.412   .     A
C93    C96     1.415   .     A
C94    C750    1.391   .     S
C95    H130    1.079   .     S
C95    C102    1.387   .     A
C95    C98     1.415   .     A
C96    C751    1.394   1_554 S
C97    C101    1.418   .     A
C97    C746    1.411   .     S
C98    C745    1.411   1_554 S
C99    H117    1.109   .     S
C99    H118    1.111   .     S
C99    N133    1.447   .     S
C99    H116    1.110   .     S
C100   H121    1.111   .     S
C100   H122    1.110   .     S
C100   N134    1.448   .     S
C100   H123    1.110   .     S
C101   H110    1.079   .     S
C101   C103    1.393   .     A
C102   H109    1.083   .     S
C102   C742    1.391   1_554 S
C103   H120    1.084   .     S
C103   C744    1.394   .     S
C104   H111    1.084   .     S
C104   C322    1.372   .     S
C105   H112    1.084   .     S
C105   C506    1.372   1_545 S
C106   F107    1.359   .     S
C106   C536    1.372   1_545 S
H115   N133    1.031   .     S
H119   N134    1.021   .     S
N131   Zn143   2.021   .     S
N132   Zn144   2.021   .     S
O135   Zn143   1.986   .     S
O136   Zn144   1.986   .     S
O137   Zn144   1.994   .     S
O138   Zn143   1.994   .     S
O139   Zn143   1.965   .     S
O140   Zn144   1.965   .     S
O141   Zn144   1.925   .     S
O142   Zn143   1.925   .     S
C145   O209    1.288   .     A
C145   C148    1.412   .     S
C145   O207    1.283   .     A
C146   C148    1.399   .     A
C146   F180    1.359   .     S
C146   C393    1.372   .     S
C147   C177    1.394   .     A
C147   C178    1.399   .     A
C147   C156    1.412   .     S
C148   C176    1.394   .     A
C149   N204    1.362   .     A
C149   H185    1.081   .     S
C149   C7      1.427   1_655 S
C150   N203    1.354   .     A
C150   H186    1.082   .     S
C151   N203    1.376   .     A
C151   N205    1.422   .     S
C152   N204    1.387   .     A
C152   N206    1.422   .     S
C152   C6      1.417   1_655 S
C153   O211    1.296   .     A
C153   C155    1.457   .     S
C153   O213    1.297   .     A
C154   O212    1.298   .     A
C154   O214    1.297   .     A
C154   C157    1.459   .     S
C155   C162    1.394   .     A
C155   C160    1.399   .     A
C156   O208    1.284   .     A
C156   O210    1.287   .     A
C157   C161    1.401   .     A
C157   C163    1.391   .     A
C158   H200    1.083   .     S
C158   C166    1.403   .     A
C158   C160    1.392   .     A
C159   H201    1.083   .     S
C159   C168    1.405   .     A
C159   C161    1.397   .     A
C160   H199    1.083   .     S
C161   H198    1.083   .     S
C162   C164    1.395   .     A
C162   H197    1.077   .     S
C163   H196    1.079   .     S
C163   C165    1.392   .     A
C164   C166    1.420   .     A
C164   C169    1.418   .     A
C165   C170    1.412   .     A
C165   C168    1.415   .     A
C166   C822    1.391   .     S
C167   H202    1.079   .     S
C167   C174    1.387   .     A
C167   C170    1.415   .     A
C168   C823    1.394   1_554 S
C169   C173    1.418   .     A
C169   C818    1.411   .     S
C170   C817    1.411   1_554 S
C171   H189    1.109   .     S
C171   H190    1.111   .     S
C171   N205    1.447   .     S
C171   H188    1.110   .     S
C172   H193    1.111   .     S
C172   H194    1.110   .     S
C172   N206    1.448   .     S
C172   H195    1.110   .     S
C173   H182    1.079   .     S
C173   C175    1.393   .     A
C174   H181    1.083   .     S
C174   C814    1.391   1_554 S
C175   H192    1.084   .     S
C175   C816    1.394   .     S
C176   H183    1.084   .     S
C176   C394    1.372   .     S
C177   H184    1.084   .     S
C177   C578    1.372   1_545 S
C178   F179    1.359   .     S
C178   C608    1.372   1_545 S
H187   N205    1.031   .     S
H191   N206    1.021   .     S
N203   Zn215   2.021   .     S
N204   Zn216   2.021   .     S
O207   Zn215   1.986   .     S
O208   Zn216   1.986   .     S
O209   Zn216   1.994   .     S
O210   Zn215   1.994   .     S
O211   Zn215   1.965   .     S
O212   Zn216   1.965   .     S
O213   Zn216   1.925   .     S
O214   Zn215   1.925   .     S
C217   O281    1.288   .     A
C217   C220    1.412   .     S
C217   O279    1.283   .     A
C218   C220    1.399   .     A
C218   F252    1.359   .     S
C218   C465    1.372   .     S
C219   C249    1.394   .     A
C219   C250    1.399   .     A
C219   C228    1.412   .     S
C220   C248    1.394   .     A
C221   N276    1.362   .     A
C221   H257    1.081   .     S
C221   C295    1.427   .     S
C222   N275    1.354   .     A
C222   H258    1.082   .     S
C222   C368    1.417   1_455 S
C223   N275    1.376   .     A
C223   N277    1.422   .     S
C223   C365    1.427   1_455 S
C224   N276    1.387   .     A
C224   N278    1.422   .     S
C224   C294    1.417   .     S
C225   O283    1.296   .     A
C225   C227    1.457   .     S
C225   O285    1.297   .     A
C226   O284    1.298   .     A
C226   O286    1.297   .     A
C226   C229    1.459   .     S
C227   C234    1.394   .     A
C227   C232    1.399   .     A
C228   O280    1.284   .     A
C228   O282    1.287   .     A
C229   C233    1.401   .     A
C229   C235    1.391   .     A
C230   H272    1.083   .     S
C230   C238    1.403   .     A
C230   C232    1.392   .     A
C231   H273    1.083   .     S
C231   C240    1.405   .     A
C231   C233    1.397   .     A
C232   H271    1.083   .     S
C233   H270    1.083   .     S
C234   C236    1.395   .     A
C234   H269    1.077   .     S
C235   H268    1.079   .     S
C235   C237    1.392   .     A
C236   C238    1.420   .     A
C236   C241    1.418   .     A
C237   C242    1.412   .     A
C237   C240    1.415   .     A
C238   C894    1.391   .     S
C239   H274    1.079   .     S
C239   C246    1.387   .     A
C239   C242    1.415   .     A
C240   C895    1.394   1_554 S
C241   C245    1.418   .     A
C241   C890    1.411   .     S
C242   C889    1.411   1_554 S
C243   H261    1.109   .     S
C243   H262    1.111   .     S
C243   N277    1.447   .     S
C243   H260    1.110   .     S
C244   H265    1.111   .     S
C244   H266    1.110   .     S
C244   N278    1.448   .     S
C244   H267    1.110   .     S
C245   H254    1.079   .     S
C245   C247    1.393   .     A
C246   H253    1.083   .     S
C246   C886    1.391   1_554 S
C247   H264    1.084   .     S
C247   C888    1.394   .     S
C248   H255    1.084   .     S
C248   C466    1.372   .     S
C249   H256    1.084   .     S
C250   F251    1.359   .     S
H259   N277    1.031   .     S
H263   N278    1.021   .     S
N275   Zn287   2.021   .     S
N276   Zn288   2.021   .     S
O279   Zn287   1.986   .     S
O280   Zn288   1.986   .     S
O281   Zn288   1.994   .     S
O282   Zn287   1.994   .     S
O283   Zn287   1.965   .     S
O284   Zn288   1.965   .     S
O285   Zn288   1.925   .     S
O286   Zn287   1.925   .     S
C289   O353    1.288   .     A
C289   C292    1.412   .     S
C289   O351    1.283   .     A
C290   C292    1.399   .     A
C290   F324    1.359   .     S
C290   C537    1.372   .     S
C291   C321    1.394   .     A
C291   C322    1.399   .     A
C291   C300    1.412   .     S
C292   C320    1.394   .     A
C293   N348    1.362   .     A
C293   H329    1.081   .     S
C293   C367    1.427   .     S
C294   N347    1.354   .     A
C294   H330    1.082   .     S
C295   N347    1.376   .     A
C295   N349    1.422   .     S
C296   N348    1.387   .     A
C296   N350    1.422   .     S
C296   C366    1.417   .     S
C297   O355    1.296   .     A
C297   C299    1.457   .     S
C297   O357    1.297   .     A
C298   O356    1.298   .     A
C298   O358    1.297   .     A
C298   C301    1.459   .     S
C299   C306    1.394   .     A
C299   C304    1.399   .     A
C300   O352    1.284   .     A
C300   O354    1.287   .     A
C301   C305    1.401   .     A
C301   C307    1.391   .     A
C302   H344    1.083   .     S
C302   C310    1.403   .     A
C302   C304    1.392   .     A
C303   H345    1.083   .     S
C303   C312    1.405   .     A
C303   C305    1.397   .     A
C304   H343    1.083   .     S
C305   H342    1.083   .     S
C306   C308    1.395   .     A
C306   H341    1.077   .     S
C307   H340    1.079   .     S
C307   C309    1.392   .     A
C308   C310    1.420   .     A
C308   C313    1.418   .     A
C309   C314    1.412   .     A
C309   C312    1.415   .     A
C310   C966    1.391   .     S
C311   H346    1.079   .     S
C311   C318    1.387   .     A
C311   C314    1.415   .     A
C312   C967    1.394   1_554 S
C313   C317    1.418   .     A
C313   C962    1.411   .     S
C314   C961    1.411   1_554 S
C315   H333    1.109   .     S
C315   H334    1.111   .     S
C315   N349    1.447   .     S
C315   H332    1.110   .     S
C316   H337    1.111   .     S
C316   H338    1.110   .     S
C316   N350    1.448   .     S
C316   H339    1.110   .     S
C317   H326    1.079   .     S
C317   C319    1.393   .     A
C318   H325    1.083   .     S
C318   C958    1.391   1_554 S
C319   H336    1.084   .     S
C319   C960    1.394   .     S
C320   H327    1.084   .     S
C320   C538    1.372   .     S
C321   H328    1.084   .     S
C322   F323    1.359   .     S
H331   N349    1.031   .     S
H335   N350    1.021   .     S
N347   Zn359   2.021   .     S
N348   Zn360   2.021   .     S
O351   Zn359   1.986   .     S
O352   Zn360   1.986   .     S
O353   Zn360   1.994   .     S
O354   Zn359   1.994   .     S
O355   Zn359   1.965   .     S
O356   Zn360   1.965   .     S
O357   Zn360   1.925   .     S
O358   Zn359   1.925   .     S
C361   O425    1.288   .     A
C361   C364    1.412   .     S
C361   O423    1.283   .     A
C362   C364    1.399   .     A
C362   F396    1.359   .     S
C362   C609    1.372   .     S
C363   C393    1.394   .     A
C363   C394    1.399   .     A
C363   C372    1.412   .     S
C364   C392    1.394   .     A
C365   N420    1.362   .     A
C365   H401    1.081   .     S
C365   C223    1.427   1_655 S
C366   N419    1.354   .     A
C366   H402    1.082   .     S
C367   N419    1.376   .     A
C367   N421    1.422   .     S
C368   N420    1.387   .     A
C368   N422    1.422   .     S
C368   C222    1.417   1_655 S
C369   O427    1.296   .     A
C369   C371    1.457   .     S
C369   O429    1.297   .     A
C370   O428    1.298   .     A
C370   O430    1.297   .     A
C370   C373    1.459   .     S
C371   C378    1.394   .     A
C371   C376    1.399   .     A
C372   O424    1.284   .     A
C372   O426    1.287   .     A
C373   C377    1.401   .     A
C373   C379    1.391   .     A
C374   H416    1.083   .     S
C374   C382    1.403   .     A
C374   C376    1.392   .     A
C375   H417    1.083   .     S
C375   C384    1.405   .     A
C375   C377    1.397   .     A
C376   H415    1.083   .     S
C377   H414    1.083   .     S
C378   C380    1.395   .     A
C378   H413    1.077   .     S
C379   H412    1.079   .     S
C379   C381    1.392   .     A
C380   C382    1.420   .     A
C380   C385    1.418   .     A
C381   C386    1.412   .     A
C381   C384    1.415   .     A
C382   C1038   1.391   .     S
C383   H418    1.079   .     S
C383   C390    1.387   .     A
C383   C386    1.415   .     A
C384   C1039   1.394   1_554 S
C385   C389    1.418   .     A
C385   C1034   1.411   .     S
C386   C1033   1.411   1_554 S
C387   H405    1.109   .     S
C387   H406    1.111   .     S
C387   N421    1.447   .     S
C387   H404    1.110   .     S
C388   H409    1.111   .     S
C388   H410    1.110   .     S
C388   N422    1.448   .     S
C388   H411    1.110   .     S
C389   H398    1.079   .     S
C389   C391    1.393   .     A
C390   H397    1.083   .     S
C390   C1030   1.391   1_554 S
C391   H408    1.084   .     S
C391   C1032   1.394   .     S
C392   H399    1.084   .     S
C392   C610    1.372   .     S
C393   H400    1.084   .     S
C394   F395    1.359   .     S
H403   N421    1.031   .     S
H407   N422    1.021   .     S
N419   Zn431   2.021   .     S
N420   Zn432   2.021   .     S
O423   Zn431   1.986   .     S
O424   Zn432   1.986   .     S
O425   Zn432   1.994   .     S
O426   Zn431   1.994   .     S
O427   Zn431   1.965   .     S
O428   Zn432   1.965   .     S
O429   Zn432   1.925   .     S
O430   Zn431   1.925   .     S
C433   O497    1.288   .     A
C433   C436    1.412   .     S
C433   O495    1.283   .     A
C434   C436    1.399   .     A
C434   F468    1.359   .     S
C434   C33     1.372   1_565 S
C435   C465    1.394   .     A
C435   C466    1.399   .     A
C435   C444    1.412   .     S
C436   C464    1.394   .     A
C437   N492    1.362   .     A
C437   H473    1.081   .     S
C437   C511    1.427   .     S
C438   N491    1.354   .     A
C438   H474    1.082   .     S
C438   C584    1.417   1_455 S
C439   N491    1.376   .     A
C439   N493    1.422   .     S
C439   C581    1.427   1_455 S
C440   N492    1.387   .     A
C440   N494    1.422   .     S
C440   C510    1.417   .     S
C441   O499    1.296   .     A
C441   C443    1.457   .     S
C441   O501    1.297   .     A
C442   O500    1.298   .     A
C442   O502    1.297   .     A
C442   C445    1.459   .     S
C443   C450    1.394   .     A
C443   C448    1.399   .     A
C444   O496    1.284   .     A
C444   O498    1.287   .     A
C445   C449    1.401   .     A
C445   C451    1.391   .     A
C446   H488    1.083   .     S
C446   C454    1.403   .     A
C446   C448    1.392   .     A
C447   H489    1.083   .     S
C447   C456    1.405   .     A
C447   C449    1.397   .     A
C448   H487    1.083   .     S
C449   H486    1.083   .     S
C450   C452    1.395   .     A
C450   H485    1.077   .     S
C451   H484    1.079   .     S
C451   C453    1.392   .     A
C452   C454    1.420   .     A
C452   C457    1.418   .     A
C453   C458    1.412   .     A
C453   C456    1.415   .     A
C454   C1110   1.391   .     S
C455   H490    1.079   .     S
C455   C462    1.387   .     A
C455   C458    1.415   .     A
C456   C1111   1.394   1_554 S
C457   C461    1.418   .     A
C457   C1106   1.411   .     S
C458   C1105   1.411   1_554 S
C459   H477    1.109   .     S
C459   H478    1.111   .     S
C459   N493    1.447   .     S
C459   H476    1.110   .     S
C460   H481    1.111   .     S
C460   H482    1.110   .     S
C460   N494    1.448   .     S
C460   H483    1.110   .     S
C461   H470    1.079   .     S
C461   C463    1.393   .     A
C462   H469    1.083   .     S
C462   C1102   1.391   1_554 S
C463   H480    1.084   .     S
C463   C1104   1.394   .     S
C464   H471    1.084   .     S
C464   C34     1.372   1_565 S
C465   H472    1.084   .     S
C466   F467    1.359   .     S
H475   N493    1.031   .     S
H479   N494    1.021   .     S
N491   Zn503   2.021   .     S
N492   Zn504   2.021   .     S
O495   Zn503   1.986   .     S
O496   Zn504   1.986   .     S
O497   Zn504   1.994   .     S
O498   Zn503   1.994   .     S
O499   Zn503   1.965   .     S
O500   Zn504   1.965   .     S
O501   Zn504   1.925   .     S
O502   Zn503   1.925   .     S
C505   O569    1.288   .     A
C505   C508    1.412   .     S
C505   O567    1.283   .     A
C506   C508    1.399   .     A
C506   F540    1.359   .     S
C506   C105    1.372   1_565 S
C507   C537    1.394   .     A
C507   C538    1.399   .     A
C507   C516    1.412   .     S
C508   C536    1.394   .     A
C509   N564    1.362   .     A
C509   H545    1.081   .     S
C509   C583    1.427   .     S
C510   N563    1.354   .     A
C510   H546    1.082   .     S
C511   N563    1.376   .     A
C511   N565    1.422   .     S
C512   N564    1.387   .     A
C512   N566    1.422   .     S
C512   C582    1.417   .     S
C513   O571    1.296   .     A
C513   C515    1.457   .     S
C513   O573    1.297   .     A
C514   O572    1.298   .     A
C514   O574    1.297   .     A
C514   C517    1.459   .     S
C515   C522    1.394   .     A
C515   C520    1.399   .     A
C516   O568    1.284   .     A
C516   O570    1.287   .     A
C517   C521    1.401   .     A
C517   C523    1.391   .     A
C518   H560    1.083   .     S
C518   C526    1.403   .     A
C518   C520    1.392   .     A
C519   H561    1.083   .     S
C519   C528    1.405   .     A
C519   C521    1.397   .     A
C520   H559    1.083   .     S
C521   H558    1.083   .     S
C522   C524    1.395   .     A
C522   H557    1.077   .     S
C523   H556    1.079   .     S
C523   C525    1.392   .     A
C524   C526    1.420   .     A
C524   C529    1.418   .     A
C525   C530    1.412   .     A
C525   C528    1.415   .     A
C526   C1182   1.391   .     S
C527   H562    1.079   .     S
C527   C534    1.387   .     A
C527   C530    1.415   .     A
C528   C1183   1.394   1_554 S
C529   C533    1.418   .     A
C529   C1178   1.411   .     S
C530   C1177   1.411   1_554 S
C531   H549    1.109   .     S
C531   H550    1.111   .     S
C531   N565    1.447   .     S
C531   H548    1.110   .     S
C532   H553    1.111   .     S
C532   H554    1.110   .     S
C532   N566    1.448   .     S
C532   H555    1.110   .     S
C533   H542    1.079   .     S
C533   C535    1.393   .     A
C534   H541    1.083   .     S
C534   C1174   1.391   1_554 S
C535   H552    1.084   .     S
C535   C1176   1.394   .     S
C536   H543    1.084   .     S
C536   C106    1.372   1_565 S
C537   H544    1.084   .     S
C538   F539    1.359   .     S
H547   N565    1.031   .     S
H551   N566    1.021   .     S
N563   Zn575   2.021   .     S
N564   Zn576   2.021   .     S
O567   Zn575   1.986   .     S
O568   Zn576   1.986   .     S
O569   Zn576   1.994   .     S
O570   Zn575   1.994   .     S
O571   Zn575   1.965   .     S
O572   Zn576   1.965   .     S
O573   Zn576   1.925   .     S
O574   Zn575   1.925   .     S
C577   O641    1.288   .     A
C577   C580    1.412   .     S
C577   O639    1.283   .     A
C578   C580    1.399   .     A
C578   F612    1.359   .     S
C578   C177    1.372   1_565 S
C579   C609    1.394   .     A
C579   C610    1.399   .     A
C579   C588    1.412   .     S
C580   C608    1.394   .     A
C581   N636    1.362   .     A
C581   H617    1.081   .     S
C581   C439    1.427   1_655 S
C582   N635    1.354   .     A
C582   H618    1.082   .     S
C583   N635    1.376   .     A
C583   N637    1.422   .     S
C584   N636    1.387   .     A
C584   N638    1.422   .     S
C584   C438    1.417   1_655 S
C585   O643    1.296   .     A
C585   C587    1.457   .     S
C585   O645    1.297   .     A
C586   O644    1.298   .     A
C586   O646    1.297   .     A
C586   C589    1.459   .     S
C587   C594    1.394   .     A
C587   C592    1.399   .     A
C588   O640    1.284   .     A
C588   O642    1.287   .     A
C589   C593    1.401   .     A
C589   C595    1.391   .     A
C590   H632    1.083   .     S
C590   C598    1.403   .     A
C590   C592    1.392   .     A
C591   H633    1.083   .     S
C591   C600    1.405   .     A
C591   C593    1.397   .     A
C592   H631    1.083   .     S
C593   H630    1.083   .     S
C594   C596    1.395   .     A
C594   H629    1.077   .     S
C595   H628    1.079   .     S
C595   C597    1.392   .     A
C596   C598    1.420   .     A
C596   C601    1.418   .     A
C597   C602    1.412   .     A
C597   C600    1.415   .     A
C598   C1254   1.391   .     S
C599   H634    1.079   .     S
C599   C606    1.387   .     A
C599   C602    1.415   .     A
C600   C1255   1.394   1_554 S
C601   C605    1.418   .     A
C601   C1250   1.411   .     S
C602   C1249   1.411   1_554 S
C603   H621    1.109   .     S
C603   H622    1.111   .     S
C603   N637    1.447   .     S
C603   H620    1.110   .     S
C604   H625    1.111   .     S
C604   H626    1.110   .     S
C604   N638    1.448   .     S
C604   H627    1.110   .     S
C605   H614    1.079   .     S
C605   C607    1.393   .     A
C606   H613    1.083   .     S
C606   C1246   1.391   1_554 S
C607   H624    1.084   .     S
C607   C1248   1.394   .     S
C608   H615    1.084   .     S
C608   C178    1.372   1_565 S
C609   H616    1.084   .     S
C610   F611    1.359   .     S
H619   N637    1.031   .     S
H623   N638    1.021   .     S
N635   Zn647   2.021   .     S
N636   Zn648   2.021   .     S
O639   Zn647   1.986   .     S
O640   Zn648   1.986   .     S
O641   Zn648   1.994   .     S
O642   Zn647   1.994   .     S
O643   Zn647   1.965   .     S
O644   Zn648   1.965   .     S
O645   Zn648   1.925   .     S
O646   Zn647   1.925   .     S
C649   O713    1.288   .     A
C649   C652    1.412   .     S
C649   O711    1.283   .     A
C650   C652    1.399   .     A
C650   F684    1.359   .     S
C650   C897    1.372   .     S
C651   C681    1.394   .     A
C651   C682    1.399   .     A
C651   C660    1.412   .     S
C652   C680    1.394   .     A
C653   N708    1.362   .     A
C653   H689    1.081   .     S
C653   C727    1.427   .     S
C654   N707    1.354   .     A
C654   H690    1.082   .     S
C654   C800    1.417   1_455 S
C655   N707    1.376   .     A
C655   N709    1.422   .     S
C655   C797    1.427   1_455 S
C656   N708    1.387   .     A
C656   N710    1.422   .     S
C656   C726    1.417   .     S
C657   O715    1.296   .     A
C657   C659    1.457   .     S
C657   O717    1.297   .     A
C658   O716    1.298   .     A
C658   O718    1.297   .     A
C658   C661    1.459   .     S
C659   C666    1.394   .     A
C659   C664    1.399   .     A
C660   O712    1.284   .     A
C660   O714    1.287   .     A
C661   C665    1.401   .     A
C661   C667    1.391   .     A
C662   H704    1.083   .     S
C662   C670    1.403   .     A
C662   C664    1.392   .     A
C663   H705    1.083   .     S
C663   C672    1.405   .     A
C663   C665    1.397   .     A
C664   H703    1.083   .     S
C665   H702    1.083   .     S
C666   C668    1.395   .     A
C666   H701    1.077   .     S
C667   H700    1.079   .     S
C667   C669    1.392   .     A
C668   C670    1.420   .     A
C668   C673    1.418   .     A
C669   C674    1.412   .     A
C669   C672    1.415   .     A
C670   C30     1.391   1_556 S
C671   H706    1.079   .     S
C671   C678    1.387   .     A
C671   C674    1.415   .     A
C673   C677    1.418   .     A
C673   C26     1.411   1_556 S
C675   H693    1.109   .     S
C675   H694    1.111   .     S
C675   N709    1.447   .     S
C675   H692    1.110   .     S
C676   H697    1.111   .     S
C676   H698    1.110   .     S
C676   N710    1.448   .     S
C676   H699    1.110   .     S
C677   H686    1.079   .     S
C677   C679    1.393   .     A
C678   H685    1.083   .     S
C679   H696    1.084   .     S
C679   C24     1.394   1_556 S
C680   H687    1.084   .     S
C680   C898    1.372   .     S
C681   H688    1.084   .     S
C681   C1082   1.372   1_545 S
C682   F683    1.359   .     S
C682   C1112   1.372   1_545 S
H691   N709    1.031   .     S
H695   N710    1.021   .     S
N707   Zn719   2.021   .     S
N708   Zn720   2.021   .     S
O711   Zn719   1.986   .     S
O712   Zn720   1.986   .     S
O713   Zn720   1.994   .     S
O714   Zn719   1.994   .     S
O715   Zn719   1.965   .     S
O716   Zn720   1.965   .     S
O717   Zn720   1.925   .     S
O718   Zn719   1.925   .     S
C721   O785    1.288   .     A
C721   C724    1.412   .     S
C721   O783    1.283   .     A
C722   C724    1.399   .     A
C722   F756    1.359   .     S
C722   C969    1.372   .     S
C723   C753    1.394   .     A
C723   C754    1.399   .     A
C723   C732    1.412   .     S
C724   C752    1.394   .     A
C725   N780    1.362   .     A
C725   H761    1.081   .     S
C725   C799    1.427   .     S
C726   N779    1.354   .     A
C726   H762    1.082   .     S
C727   N779    1.376   .     A
C727   N781    1.422   .     S
C728   N780    1.387   .     A
C728   N782    1.422   .     S
C728   C798    1.417   .     S
C729   O787    1.296   .     A
C729   C731    1.457   .     S
C729   O789    1.297   .     A
C730   O788    1.298   .     A
C730   O790    1.297   .     A
C730   C733    1.459   .     S
C731   C738    1.394   .     A
C731   C736    1.399   .     A
C732   O784    1.284   .     A
C732   O786    1.287   .     A
C733   C737    1.401   .     A
C733   C739    1.391   .     A
C734   H776    1.083   .     S
C734   C742    1.403   .     A
C734   C736    1.392   .     A
C735   H777    1.083   .     S
C735   C744    1.405   .     A
C735   C737    1.397   .     A
C736   H775    1.083   .     S
C737   H774    1.083   .     S
C738   C740    1.395   .     A
C738   H773    1.077   .     S
C739   H772    1.079   .     S
C739   C741    1.392   .     A
C740   C742    1.420   .     A
C740   C745    1.418   .     A
C741   C746    1.412   .     A
C741   C744    1.415   .     A
C742   C102    1.391   1_556 S
C743   H778    1.079   .     S
C743   C750    1.387   .     A
C743   C746    1.415   .     A
C745   C749    1.418   .     A
C745   C98     1.411   1_556 S
C747   H765    1.109   .     S
C747   H766    1.111   .     S
C747   N781    1.447   .     S
C747   H764    1.110   .     S
C748   H769    1.111   .     S
C748   H770    1.110   .     S
C748   N782    1.448   .     S
C748   H771    1.110   .     S
C749   H758    1.079   .     S
C749   C751    1.393   .     A
C750   H757    1.083   .     S
C751   H768    1.084   .     S
C751   C96     1.394   1_556 S
C752   H759    1.084   .     S
C752   C970    1.372   .     S
C753   H760    1.084   .     S
C753   C1154   1.372   1_545 S
C754   F755    1.359   .     S
C754   C1184   1.372   1_545 S
H763   N781    1.031   .     S
H767   N782    1.021   .     S
N779   Zn791   2.021   .     S
N780   Zn792   2.021   .     S
O783   Zn791   1.986   .     S
O784   Zn792   1.986   .     S
O785   Zn792   1.994   .     S
O786   Zn791   1.994   .     S
O787   Zn791   1.965   .     S
O788   Zn792   1.965   .     S
O789   Zn792   1.925   .     S
O790   Zn791   1.925   .     S
C793   O857    1.288   .     A
C793   C796    1.412   .     S
C793   O855    1.283   .     A
C794   C796    1.399   .     A
C794   F828    1.359   .     S
C794   C1041   1.372   .     S
C795   C825    1.394   .     A
C795   C826    1.399   .     A
C795   C804    1.412   .     S
C796   C824    1.394   .     A
C797   N852    1.362   .     A
C797   H833    1.081   .     S
C797   C655    1.427   1_655 S
C798   N851    1.354   .     A
C798   H834    1.082   .     S
C799   N851    1.376   .     A
C799   N853    1.422   .     S
C800   N852    1.387   .     A
C800   N854    1.422   .     S
C800   C654    1.417   1_655 S
C801   O859    1.296   .     A
C801   C803    1.457   .     S
C801   O861    1.297   .     A
C802   O860    1.298   .     A
C802   O862    1.297   .     A
C802   C805    1.459   .     S
C803   C810    1.394   .     A
C803   C808    1.399   .     A
C804   O856    1.284   .     A
C804   O858    1.287   .     A
C805   C809    1.401   .     A
C805   C811    1.391   .     A
C806   H848    1.083   .     S
C806   C814    1.403   .     A
C806   C808    1.392   .     A
C807   H849    1.083   .     S
C807   C816    1.405   .     A
C807   C809    1.397   .     A
C808   H847    1.083   .     S
C809   H846    1.083   .     S
C810   C812    1.395   .     A
C810   H845    1.077   .     S
C811   H844    1.079   .     S
C811   C813    1.392   .     A
C812   C814    1.420   .     A
C812   C817    1.418   .     A
C813   C818    1.412   .     A
C813   C816    1.415   .     A
C814   C174    1.391   1_556 S
C815   H850    1.079   .     S
C815   C822    1.387   .     A
C815   C818    1.415   .     A
C817   C821    1.418   .     A
C817   C170    1.411   1_556 S
C819   H837    1.109   .     S
C819   H838    1.111   .     S
C819   N853    1.447   .     S
C819   H836    1.110   .     S
C820   H841    1.111   .     S
C820   H842    1.110   .     S
C820   N854    1.448   .     S
C820   H843    1.110   .     S
C821   H830    1.079   .     S
C821   C823    1.393   .     A
C822   H829    1.083   .     S
C823   H840    1.084   .     S
C823   C168    1.394   1_556 S
C824   H831    1.084   .     S
C824   C1042   1.372   .     S
C825   H832    1.084   .     S
C825   C1226   1.372   1_545 S
C826   F827    1.359   .     S
C826   C1256   1.372   1_545 S
H835   N853    1.031   .     S
H839   N854    1.021   .     S
N851   Zn863   2.021   .     S
N852   Zn864   2.021   .     S
O855   Zn863   1.986   .     S
O856   Zn864   1.986   .     S
O857   Zn864   1.994   .     S
O858   Zn863   1.994   .     S
O859   Zn863   1.965   .     S
O860   Zn864   1.965   .     S
O861   Zn864   1.925   .     S
O862   Zn863   1.925   .     S
C865   O929    1.288   .     A
C865   C868    1.412   .     S
C865   O927    1.283   .     A
C866   C868    1.399   .     A
C866   F900    1.359   .     S
C866   C1113   1.372   .     S
C867   C897    1.394   .     A
C867   C898    1.399   .     A
C867   C876    1.412   .     S
C868   C896    1.394   .     A
C869   N924    1.362   .     A
C869   H905    1.081   .     S
C869   C943    1.427   .     S
C870   N923    1.354   .     A
C870   H906    1.082   .     S
C870   C1016   1.417   1_455 S
C871   N923    1.376   .     A
C871   N925    1.422   .     S
C871   C1013   1.427   1_455 S
C872   N924    1.387   .     A
C872   N926    1.422   .     S
C872   C942    1.417   .     S
C873   O931    1.296   .     A
C873   C875    1.457   .     S
C873   O933    1.297   .     A
C874   O932    1.298   .     A
C874   O934    1.297   .     A
C874   C877    1.459   .     S
C875   C882    1.394   .     A
C875   C880    1.399   .     A
C876   O928    1.284   .     A
C876   O930    1.287   .     A
C877   C881    1.401   .     A
C877   C883    1.391   .     A
C878   H920    1.083   .     S
C878   C886    1.403   .     A
C878   C880    1.392   .     A
C879   H921    1.083   .     S
C879   C888    1.405   .     A
C879   C881    1.397   .     A
C880   H919    1.083   .     S
C881   H918    1.083   .     S
C882   C884    1.395   .     A
C882   H917    1.077   .     S
C883   H916    1.079   .     S
C883   C885    1.392   .     A
C884   C886    1.420   .     A
C884   C889    1.418   .     A
C885   C890    1.412   .     A
C885   C888    1.415   .     A
C886   C246    1.391   1_556 S
C887   H922    1.079   .     S
C887   C894    1.387   .     A
C887   C890    1.415   .     A
C889   C893    1.418   .     A
C889   C242    1.411   1_556 S
C891   H909    1.109   .     S
C891   H910    1.111   .     S
C891   N925    1.447   .     S
C891   H908    1.110   .     S
C892   H913    1.111   .     S
C892   H914    1.110   .     S
C892   N926    1.448   .     S
C892   H915    1.110   .     S
C893   H902    1.079   .     S
C893   C895    1.393   .     A
C894   H901    1.083   .     S
C895   H912    1.084   .     S
C895   C240    1.394   1_556 S
C896   H903    1.084   .     S
C896   C1114   1.372   .     S
C897   H904    1.084   .     S
C898   F899    1.359   .     S
H907   N925    1.031   .     S
H911   N926    1.021   .     S
N923   Zn935   2.021   .     S
N924   Zn936   2.021   .     S
O927   Zn935   1.986   .     S
O928   Zn936   1.986   .     S
O929   Zn936   1.994   .     S
O930   Zn935   1.994   .     S
O931   Zn935   1.965   .     S
O932   Zn936   1.965   .     S
O933   Zn936   1.925   .     S
O934   Zn935   1.925   .     S
C937   O1001   1.288   .     A
C937   C940    1.412   .     S
C937   O999    1.283   .     A
C938   C940    1.399   .     A
C938   F972    1.359   .     S
C938   C1185   1.372   .     S
C939   C969    1.394   .     A
C939   C970    1.399   .     A
C939   C948    1.412   .     S
C940   C968    1.394   .     A
C941   N996    1.362   .     A
C941   H977    1.081   .     S
C941   C1015   1.427   .     S
C942   N995    1.354   .     A
C942   H978    1.082   .     S
C943   N995    1.376   .     A
C943   N997    1.422   .     S
C944   N996    1.387   .     A
C944   N998    1.422   .     S
C944   C1014   1.417   .     S
C945   O1003   1.296   .     A
C945   C947    1.457   .     S
C945   O1005   1.297   .     A
C946   O1004   1.298   .     A
C946   O1006   1.297   .     A
C946   C949    1.459   .     S
C947   C954    1.394   .     A
C947   C952    1.399   .     A
C948   O1000   1.284   .     A
C948   O1002   1.287   .     A
C949   C953    1.401   .     A
C949   C955    1.391   .     A
C950   H992    1.083   .     S
C950   C958    1.403   .     A
C950   C952    1.392   .     A
C951   H993    1.083   .     S
C951   C960    1.405   .     A
C951   C953    1.397   .     A
C952   H991    1.083   .     S
C953   H990    1.083   .     S
C954   C956    1.395   .     A
C954   H989    1.077   .     S
C955   H988    1.079   .     S
C955   C957    1.392   .     A
C956   C958    1.420   .     A
C956   C961    1.418   .     A
C957   C962    1.412   .     A
C957   C960    1.415   .     A
C958   C318    1.391   1_556 S
C959   H994    1.079   .     S
C959   C966    1.387   .     A
C959   C962    1.415   .     A
C961   C965    1.418   .     A
C961   C314    1.411   1_556 S
C963   H981    1.109   .     S
C963   H982    1.111   .     S
C963   N997    1.447   .     S
C963   H980    1.110   .     S
C964   H985    1.111   .     S
C964   H986    1.110   .     S
C964   N998    1.448   .     S
C964   H987    1.110   .     S
C965   H974    1.079   .     S
C965   C967    1.393   .     A
C966   H973    1.083   .     S
C967   H984    1.084   .     S
C967   C312    1.394   1_556 S
C968   H975    1.084   .     S
C968   C1186   1.372   .     S
C969   H976    1.084   .     S
C970   F971    1.359   .     S
H979   N997    1.031   .     S
H983   N998    1.021   .     S
N995   Zn1007  2.021   .     S
N996   Zn1008  2.021   .     S
O999   Zn1007  1.986   .     S
O1000  Zn1008  1.986   .     S
O1001  Zn1008  1.994   .     S
O1002  Zn1007  1.994   .     S
O1003  Zn1007  1.965   .     S
O1004  Zn1008  1.965   .     S
O1005  Zn1008  1.925   .     S
O1006  Zn1007  1.925   .     S
C1009  O1073   1.288   .     A
C1009  C1012   1.412   .     S
C1009  O1071   1.283   .     A
C1010  C1012   1.399   .     A
C1010  F1044   1.359   .     S
C1010  C1257   1.372   .     S
C1011  C1041   1.394   .     A
C1011  C1042   1.399   .     A
C1011  C1020   1.412   .     S
C1012  C1040   1.394   .     A
C1013  N1068   1.362   .     A
C1013  H1049   1.081   .     S
C1013  C871    1.427   1_655 S
C1014  N1067   1.354   .     A
C1014  H1050   1.082   .     S
C1015  N1067   1.376   .     A
C1015  N1069   1.422   .     S
C1016  N1068   1.387   .     A
C1016  N1070   1.422   .     S
C1016  C870    1.417   1_655 S
C1017  O1075   1.296   .     A
C1017  C1019   1.457   .     S
C1017  O1077   1.297   .     A
C1018  O1076   1.298   .     A
C1018  O1078   1.297   .     A
C1018  C1021   1.459   .     S
C1019  C1026   1.394   .     A
C1019  C1024   1.399   .     A
C1020  O1072   1.284   .     A
C1020  O1074   1.287   .     A
C1021  C1025   1.401   .     A
C1021  C1027   1.391   .     A
C1022  H1064   1.083   .     S
C1022  C1030   1.403   .     A
C1022  C1024   1.392   .     A
C1023  H1065   1.083   .     S
C1023  C1032   1.405   .     A
C1023  C1025   1.397   .     A
C1024  H1063   1.083   .     S
C1025  H1062   1.083   .     S
C1026  C1028   1.395   .     A
C1026  H1061   1.077   .     S
C1027  H1060   1.079   .     S
C1027  C1029   1.392   .     A
C1028  C1030   1.420   .     A
C1028  C1033   1.418   .     A
C1029  C1034   1.412   .     A
C1029  C1032   1.415   .     A
C1030  C390    1.391   1_556 S
C1031  H1066   1.079   .     S
C1031  C1038   1.387   .     A
C1031  C1034   1.415   .     A
C1033  C1037   1.418   .     A
C1033  C386    1.411   1_556 S
C1035  H1053   1.109   .     S
C1035  H1054   1.111   .     S
C1035  N1069   1.447   .     S
C1035  H1052   1.110   .     S
C1036  H1057   1.111   .     S
C1036  H1058   1.110   .     S
C1036  N1070   1.448   .     S
C1036  H1059   1.110   .     S
C1037  H1046   1.079   .     S
C1037  C1039   1.393   .     A
C1038  H1045   1.083   .     S
C1039  H1056   1.084   .     S
C1039  C384    1.394   1_556 S
C1040  H1047   1.084   .     S
C1040  C1258   1.372   .     S
C1041  H1048   1.084   .     S
C1042  F1043   1.359   .     S
H1051  N1069   1.031   .     S
H1055  N1070   1.021   .     S
N1067  Zn1079  2.021   .     S
N1068  Zn1080  2.021   .     S
O1071  Zn1079  1.986   .     S
O1072  Zn1080  1.986   .     S
O1073  Zn1080  1.994   .     S
O1074  Zn1079  1.994   .     S
O1075  Zn1079  1.965   .     S
O1076  Zn1080  1.965   .     S
O1077  Zn1080  1.925   .     S
O1078  Zn1079  1.925   .     S
C1081  O1145   1.288   .     A
C1081  C1084   1.412   .     S
C1081  O1143   1.283   .     A
C1082  C1084   1.399   .     A
C1082  F1116   1.359   .     S
C1082  C681    1.372   1_565 S
C1083  C1113   1.394   .     A
C1083  C1114   1.399   .     A
C1083  C1092   1.412   .     S
C1084  C1112   1.394   .     A
C1085  N1140   1.362   .     A
C1085  H1121   1.081   .     S
C1085  C1159   1.427   .     S
C1086  N1139   1.354   .     A
C1086  H1122   1.082   .     S
C1086  C1232   1.417   1_455 S
C1087  N1139   1.376   .     A
C1087  N1141   1.422   .     S
C1087  C1229   1.427   1_455 S
C1088  N1140   1.387   .     A
C1088  N1142   1.422   .     S
C1088  C1158   1.417   .     S
C1089  O1147   1.296   .     A
C1089  C1091   1.457   .     S
C1089  O1149   1.297   .     A
C1090  O1148   1.298   .     A
C1090  O1150   1.297   .     A
C1090  C1093   1.459   .     S
C1091  C1098   1.394   .     A
C1091  C1096   1.399   .     A
C1092  O1144   1.284   .     A
C1092  O1146   1.287   .     A
C1093  C1097   1.401   .     A
C1093  C1099   1.391   .     A
C1094  H1136   1.083   .     S
C1094  C1102   1.403   .     A
C1094  C1096   1.392   .     A
C1095  H1137   1.083   .     S
C1095  C1104   1.405   .     A
C1095  C1097   1.397   .     A
C1096  H1135   1.083   .     S
C1097  H1134   1.083   .     S
C1098  C1100   1.395   .     A
C1098  H1133   1.077   .     S
C1099  H1132   1.079   .     S
C1099  C1101   1.392   .     A
C1100  C1102   1.420   .     A
C1100  C1105   1.418   .     A
C1101  C1106   1.412   .     A
C1101  C1104   1.415   .     A
C1102  C462    1.391   1_556 S
C1103  H1138   1.079   .     S
C1103  C1110   1.387   .     A
C1103  C1106   1.415   .     A
C1105  C1109   1.418   .     A
C1105  C458    1.411   1_556 S
C1107  H1125   1.109   .     S
C1107  H1126   1.111   .     S
C1107  N1141   1.447   .     S
C1107  H1124   1.110   .     S
C1108  H1129   1.111   .     S
C1108  H1130   1.110   .     S
C1108  N1142   1.448   .     S
C1108  H1131   1.110   .     S
C1109  H1118   1.079   .     S
C1109  C1111   1.393   .     A
C1110  H1117   1.083   .     S
C1111  H1128   1.084   .     S
C1111  C456    1.394   1_556 S
C1112  H1119   1.084   .     S
C1112  C682    1.372   1_565 S
C1113  H1120   1.084   .     S
C1114  F1115   1.359   .     S
H1123  N1141   1.031   .     S
H1127  N1142   1.021   .     S
N1139  Zn1151  2.021   .     S
N1140  Zn1152  2.021   .     S
O1143  Zn1151  1.986   .     S
O1144  Zn1152  1.986   .     S
O1145  Zn1152  1.994   .     S
O1146  Zn1151  1.994   .     S
O1147  Zn1151  1.965   .     S
O1148  Zn1152  1.965   .     S
O1149  Zn1152  1.925   .     S
O1150  Zn1151  1.925   .     S
C1153  O1217   1.288   .     A
C1153  C1156   1.412   .     S
C1153  O1215   1.283   .     A
C1154  C1156   1.399   .     A
C1154  F1188   1.359   .     S
C1154  C753    1.372   1_565 S
C1155  C1185   1.394   .     A
C1155  C1186   1.399   .     A
C1155  C1164   1.412   .     S
C1156  C1184   1.394   .     A
C1157  N1212   1.362   .     A
C1157  H1193   1.081   .     S
C1157  C1231   1.427   .     S
C1158  N1211   1.354   .     A
C1158  H1194   1.082   .     S
C1159  N1211   1.376   .     A
C1159  N1213   1.422   .     S
C1160  N1212   1.387   .     A
C1160  N1214   1.422   .     S
C1160  C1230   1.417   .     S
C1161  O1219   1.296   .     A
C1161  C1163   1.457   .     S
C1161  O1221   1.297   .     A
C1162  O1220   1.298   .     A
C1162  O1222   1.297   .     A
C1162  C1165   1.459   .     S
C1163  C1170   1.394   .     A
C1163  C1168   1.399   .     A
C1164  O1216   1.284   .     A
C1164  O1218   1.287   .     A
C1165  C1169   1.401   .     A
C1165  C1171   1.391   .     A
C1166  H1208   1.083   .     S
C1166  C1174   1.403   .     A
C1166  C1168   1.392   .     A
C1167  H1209   1.083   .     S
C1167  C1176   1.405   .     A
C1167  C1169   1.397   .     A
C1168  H1207   1.083   .     S
C1169  H1206   1.083   .     S
C1170  C1172   1.395   .     A
C1170  H1205   1.077   .     S
C1171  H1204   1.079   .     S
C1171  C1173   1.392   .     A
C1172  C1174   1.420   .     A
C1172  C1177   1.418   .     A
C1173  C1178   1.412   .     A
C1173  C1176   1.415   .     A
C1174  C534    1.391   1_556 S
C1175  H1210   1.079   .     S
C1175  C1182   1.387   .     A
C1175  C1178   1.415   .     A
C1177  C1181   1.418   .     A
C1177  C530    1.411   1_556 S
C1179  H1197   1.109   .     S
C1179  H1198   1.111   .     S
C1179  N1213   1.447   .     S
C1179  H1196   1.110   .     S
C1180  H1201   1.111   .     S
C1180  H1202   1.110   .     S
C1180  N1214   1.448   .     S
C1180  H1203   1.110   .     S
C1181  H1190   1.079   .     S
C1181  C1183   1.393   .     A
C1182  H1189   1.083   .     S
C1183  H1200   1.084   .     S
C1183  C528    1.394   1_556 S
C1184  H1191   1.084   .     S
C1184  C754    1.372   1_565 S
C1185  H1192   1.084   .     S
C1186  F1187   1.359   .     S
H1195  N1213   1.031   .     S
H1199  N1214   1.021   .     S
N1211  Zn1223  2.021   .     S
N1212  Zn1224  2.021   .     S
O1215  Zn1223  1.986   .     S
O1216  Zn1224  1.986   .     S
O1217  Zn1224  1.994   .     S
O1218  Zn1223  1.994   .     S
O1219  Zn1223  1.965   .     S
O1220  Zn1224  1.965   .     S
O1221  Zn1224  1.925   .     S
O1222  Zn1223  1.925   .     S
C1225  O1289   1.288   .     A
C1225  C1228   1.412   .     S
C1225  O1287   1.283   .     A
C1226  C1228   1.399   .     A
C1226  F1260   1.359   .     S
C1226  C825    1.372   1_565 S
C1227  C1257   1.394   .     A
C1227  C1258   1.399   .     A
C1227  C1236   1.412   .     S
C1228  C1256   1.394   .     A
C1229  N1284   1.362   .     A
C1229  H1265   1.081   .     S
C1229  C1087   1.427   1_655 S
C1230  N1283   1.354   .     A
C1230  H1266   1.082   .     S
C1231  N1283   1.376   .     A
C1231  N1285   1.422   .     S
C1232  N1284   1.387   .     A
C1232  N1286   1.422   .     S
C1232  C1086   1.417   1_655 S
C1233  O1291   1.296   .     A
C1233  C1235   1.457   .     S
C1233  O1293   1.297   .     A
C1234  O1292   1.298   .     A
C1234  O1294   1.297   .     A
C1234  C1237   1.459   .     S
C1235  C1242   1.394   .     A
C1235  C1240   1.399   .     A
C1236  O1288   1.284   .     A
C1236  O1290   1.287   .     A
C1237  C1241   1.401   .     A
C1237  C1243   1.391   .     A
C1238  H1280   1.083   .     S
C1238  C1246   1.403   .     A
C1238  C1240   1.392   .     A
C1239  H1281   1.083   .     S
C1239  C1248   1.405   .     A
C1239  C1241   1.397   .     A
C1240  H1279   1.083   .     S
C1241  H1278   1.083   .     S
C1242  C1244   1.395   .     A
C1242  H1277   1.077   .     S
C1243  H1276   1.079   .     S
C1243  C1245   1.392   .     A
C1244  C1246   1.420   .     A
C1244  C1249   1.418   .     A
C1245  C1250   1.412   .     A
C1245  C1248   1.415   .     A
C1246  C606    1.391   1_556 S
C1247  H1282   1.079   .     S
C1247  C1254   1.387   .     A
C1247  C1250   1.415   .     A
C1249  C1253   1.418   .     A
C1249  C602    1.411   1_556 S
C1251  H1269   1.109   .     S
C1251  H1270   1.111   .     S
C1251  N1285   1.447   .     S
C1251  H1268   1.110   .     S
C1252  H1273   1.111   .     S
C1252  H1274   1.110   .     S
C1252  N1286   1.448   .     S
C1252  H1275   1.110   .     S
C1253  H1262   1.079   .     S
C1253  C1255   1.393   .     A
C1254  H1261   1.083   .     S
C1255  H1272   1.084   .     S
C1255  C600    1.394   1_556 S
C1256  H1263   1.084   .     S
C1256  C826    1.372   1_565 S
C1257  H1264   1.084   .     S
C1258  F1259   1.359   .     S
H1267  N1285   1.031   .     S
H1271  N1286   1.021   .     S
N1283  Zn1295  2.021   .     S
N1284  Zn1296  2.021   .     S
O1287  Zn1295  1.986   .     S
O1288  Zn1296  1.986   .     S
O1289  Zn1296  1.994   .     S
O1290  Zn1295  1.994   .     S
O1291  Zn1295  1.965   .     S
O1292  Zn1296  1.965   .     S
O1293  Zn1296  1.925   .     S
O1294  Zn1295  1.925   .     S
