data_str_m3_o10_o17_pcu_sym.135
_audit_creation_date              2020-01-03
_audit_creation_method            'Materials Studio'
_symmetry_space_group_name_H-M    'P1'
_symmetry_Int_Tables_number       1
_symmetry_cell_setting            triclinic
loop_
_symmetry_equiv_pos_as_xyz
  x,y,z
_cell_length_a                    23.4103
_cell_length_b                    25.6775
_cell_length_c                    29.9334
_cell_angle_alpha                 91.8379
_cell_angle_beta                  86.2310
_cell_angle_gamma                 93.3094
loop_
_atom_site_label
_atom_site_type_symbol
_atom_site_fract_x
_atom_site_fract_y
_atom_site_fract_z
_atom_site_U_iso_or_equiv
_atom_site_adp_type
_atom_site_occupancy
C1     C     0.18162   0.26473   0.25030   0.00000  Uiso   1.00
C2     C     0.20313   0.19974   0.40486   0.00000  Uiso   1.00
C3     C     0.16509   0.17123   0.11604   0.00000  Uiso   1.00
C4     C     0.16888   0.16182   0.38363   0.00000  Uiso   1.00
C5     C     0.20087   0.20821   0.09227   0.00000  Uiso   1.00
C6     C     0.13709   0.12206   0.40698   0.00000  Uiso   1.00
C7     C     0.20385   0.20394   0.04512   0.00000  Uiso   1.00
C8     C     0.13712   0.12375   0.45409   0.00000  Uiso   1.00
C9     C     0.16929   0.16517   0.02318   0.00000  Uiso   1.00
C10    C     0.16944   0.16412   0.47620   0.00000  Uiso   1.00
C11    C     0.13564   0.12696   0.04809   0.00000  Uiso   1.00
C12    C     0.15171   0.06871   0.25203   0.00000  Uiso   1.00
C13    C     0.20163   0.20359   0.45147   0.00000  Uiso   1.00
C14    C     0.23966   0.23864   0.01948   0.00000  Uiso   1.00
C15    C     0.10643   0.08515   0.47938   0.00000  Uiso   1.00
C16    C     0.23420   0.25236   0.11721   0.00000  Uiso   1.00
C17    C     0.22049   0.30803   0.10415   0.00000  Uiso   1.00
C18    C     0.19495   0.00672   0.14339   0.00000  Uiso   1.00
C19    C     0.10651   0.07672   0.38164   0.00000  Uiso   1.00
C20    C     0.13876   0.02625   0.38235   0.00000  Uiso   1.00
C21    C     0.10132   0.31213   0.36806   0.00000  Uiso   1.00
C22    C     0.25845   0.29414   0.45214   0.00000  Uiso   1.00
C23    C     0.23306   0.24414   0.47417   0.00000  Uiso   1.00
C24    C     0.25249   0.01071   0.48201   0.00000  Uiso   1.00
C25    C     0.27144   0.05984   0.45645   0.00000  Uiso   1.00
C26    C     0.08240   0.03574   0.05035   0.00000  Uiso   1.00
C27    C     0.07647   0.31811   0.02174   0.00000  Uiso   1.00
C28    C     0.06365   0.27081   0.05099   0.00000  Uiso   1.00
C29    C     0.10787   0.08395   0.02570   0.00000  Uiso   1.00
C30    C     0.18909   0.31897   0.25495   0.00000  Uiso   1.00
C31    C     0.14355   0.01454   0.25182   0.00000  Uiso   1.00
C32    C     0.16729   0.16499   0.33620   0.00000  Uiso   1.00
C33    C     0.16610   0.16837   0.16371   0.00000  Uiso   1.00
C34    C     0.13140   0.13289   0.09470   0.00000  Uiso   1.00
F35    F     0.09394   0.10223   0.12038   0.00000  Uiso   1.00
F36    F     0.24034   0.23033   0.37892   0.00000  Uiso   1.00
F37    F     0.24272   0.00588   0.26311   0.00000  Uiso   1.00
F38    F     0.08954   0.32782   0.24451   0.00000  Uiso   1.00
F39    F     0.00987   0.11951   0.20925   0.00000  Uiso   1.00
F40    F     0.32347   0.21384   0.29074   0.00000  Uiso   1.00
H41    H     0.27116   0.26394   0.03500   0.00000  Uiso   1.00
H42    H     0.06463   0.30542   0.39305   0.00000  Uiso   1.00
H43    H     0.08462   0.31792   0.33485   0.00000  Uiso   1.00
H44    H     0.12700   0.27703   0.36589   0.00000  Uiso   1.00
H45    H     0.17786   0.02978   0.35923   0.00000  Uiso   1.00
H46    H     0.15258   0.01938   0.41626   0.00000  Uiso   1.00
H47    H     0.06165   0.07102   0.39546   0.00000  Uiso   1.00
H48    H     0.10181   0.08458   0.34608   0.00000  Uiso   1.00
H49    H     0.24500   0.06393   0.42748   0.00000  Uiso   1.00
H50    H     0.31692   0.05821   0.44427   0.00000  Uiso   1.00
H51    H     0.26697   0.09470   0.47907   0.00000  Uiso   1.00
H52    H     0.08152   0.05476   0.46305   0.00000  Uiso   1.00
H53    H     0.20732   0.01382   0.49483   0.00000  Uiso   1.00
H54    H     0.27927   0.01012   0.01110   0.00000  Uiso   1.00
H55    H     0.30435   0.28930   0.44193   0.00000  Uiso   1.00
H56    H     0.23537   0.30177   0.42219   0.00000  Uiso   1.00
H57    H     0.10088   0.26359   0.07046   0.00000  Uiso   1.00
H58    H     0.02655   0.27779   0.07471   0.00000  Uiso   1.00
H59    H     0.05379   0.23561   0.02972   0.00000  Uiso   1.00
H60    H     0.04083   0.32011   0.49937   0.00000  Uiso   1.00
H61    H     0.11641   0.31186   0.00073   0.00000  Uiso   1.00
H62    H     0.03969   0.04445   0.06637   0.00000  Uiso   1.00
H63    H     0.15423   0.32048   0.15695   0.00000  Uiso   1.00
H64    H     0.11125   0.02747   0.07684   0.00000  Uiso   1.00
H65    H     0.22610   0.01174   0.16976   0.00000  Uiso   1.00
H66    H     0.18616   0.04601   0.13212   0.00000  Uiso   1.00
H67    H     0.26080   0.32927   0.09164   0.00000  Uiso   1.00
H68    H     0.19050   0.30701   0.07699   0.00000  Uiso   1.00
H69    H     0.22783   0.25003   0.15399   0.00000  Uiso   1.00
H70    H     0.28044   0.24665   0.11039   0.00000  Uiso   1.00
N71    N     0.31678   0.15265   0.23783   0.00000  Uiso   1.00
N72    N     0.01656   0.18068   0.26217   0.00000  Uiso   1.00
O73    O     0.12975   0.24619   0.25298   0.00000  Uiso   1.00
O74    O     0.20358   0.08714   0.24701   0.00000  Uiso   1.00
O75    O     0.22613   0.23721   0.24518   0.00000  Uiso   1.00
O76    O     0.10720   0.09613   0.25482   0.00000  Uiso   1.00
O77    O     0.11847   0.17117   0.31997   0.00000  Uiso   1.00
O78    O     0.21486   0.16216   0.18002   0.00000  Uiso   1.00
O79    O     0.21485   0.16219   0.31217   0.00000  Uiso   1.00
O80    O     0.11848   0.17115   0.18782   0.00000  Uiso   1.00
Zn81   Zn    0.10231   0.17266   0.25521   0.00000  Uiso   1.00
Zn82   Zn    0.23102   0.16067   0.24479   0.00000  Uiso   1.00
C83    C     0.51496   0.26473   0.25030   0.00000  Uiso   1.00
C84    C     0.53646   0.19974   0.40486   0.00000  Uiso   1.00
C85    C     0.49842   0.17123   0.11604   0.00000  Uiso   1.00
C86    C     0.50222   0.16182   0.38363   0.00000  Uiso   1.00
C87    C     0.53420   0.20821   0.09227   0.00000  Uiso   1.00
C88    C     0.47043   0.12206   0.40698   0.00000  Uiso   1.00
C89    C     0.53719   0.20394   0.04512   0.00000  Uiso   1.00
C90    C     0.47046   0.12375   0.45409   0.00000  Uiso   1.00
C91    C     0.50263   0.16517   0.02318   0.00000  Uiso   1.00
C92    C     0.50278   0.16412   0.47620   0.00000  Uiso   1.00
C93    C     0.46897   0.12696   0.04809   0.00000  Uiso   1.00
C94    C     0.48504   0.06871   0.25203   0.00000  Uiso   1.00
C95    C     0.53497   0.20359   0.45147   0.00000  Uiso   1.00
C96    C     0.57299   0.23864   0.01948   0.00000  Uiso   1.00
C97    C     0.43976   0.08515   0.47938   0.00000  Uiso   1.00
C98    C     0.56754   0.25236   0.11721   0.00000  Uiso   1.00
C99    C     0.55383   0.30803   0.10415   0.00000  Uiso   1.00
C100   C     0.52828   0.00672   0.14339   0.00000  Uiso   1.00
C101   C     0.43985   0.07672   0.38164   0.00000  Uiso   1.00
C102   C     0.47209   0.02625   0.38235   0.00000  Uiso   1.00
C103   C     0.43465   0.31213   0.36806   0.00000  Uiso   1.00
C104   C     0.59179   0.29414   0.45214   0.00000  Uiso   1.00
C105   C     0.56639   0.24414   0.47417   0.00000  Uiso   1.00
C106   C     0.58582   0.01071   0.48201   0.00000  Uiso   1.00
C107   C     0.60477   0.05984   0.45645   0.00000  Uiso   1.00
C108   C     0.41574   0.03574   0.05035   0.00000  Uiso   1.00
C109   C     0.40980   0.31811   0.02174   0.00000  Uiso   1.00
C110   C     0.39698   0.27081   0.05099   0.00000  Uiso   1.00
C111   C     0.44120   0.08395   0.02570   0.00000  Uiso   1.00
C112   C     0.52242   0.31897   0.25495   0.00000  Uiso   1.00
C113   C     0.47688   0.01454   0.25182   0.00000  Uiso   1.00
C114   C     0.50062   0.16499   0.33620   0.00000  Uiso   1.00
C115   C     0.49944   0.16837   0.16371   0.00000  Uiso   1.00
C116   C     0.46474   0.13289   0.09470   0.00000  Uiso   1.00
F117   F     0.42727   0.10223   0.12038   0.00000  Uiso   1.00
F118   F     0.57367   0.23033   0.37892   0.00000  Uiso   1.00
F119   F     0.57606   0.00588   0.26311   0.00000  Uiso   1.00
F120   F     0.42288   0.32782   0.24451   0.00000  Uiso   1.00
F121   F     0.34320   0.11951   0.20925   0.00000  Uiso   1.00
F122   F     0.65681   0.21384   0.29074   0.00000  Uiso   1.00
H123   H     0.60450   0.26394   0.03500   0.00000  Uiso   1.00
H124   H     0.39797   0.30542   0.39305   0.00000  Uiso   1.00
H125   H     0.41796   0.31792   0.33485   0.00000  Uiso   1.00
H126   H     0.46033   0.27703   0.36589   0.00000  Uiso   1.00
H127   H     0.51120   0.02978   0.35923   0.00000  Uiso   1.00
H128   H     0.48592   0.01938   0.41626   0.00000  Uiso   1.00
H129   H     0.39498   0.07102   0.39546   0.00000  Uiso   1.00
H130   H     0.43514   0.08458   0.34608   0.00000  Uiso   1.00
H131   H     0.57834   0.06393   0.42748   0.00000  Uiso   1.00
H132   H     0.65025   0.05821   0.44427   0.00000  Uiso   1.00
H133   H     0.60030   0.09470   0.47907   0.00000  Uiso   1.00
H134   H     0.41485   0.05476   0.46305   0.00000  Uiso   1.00
H135   H     0.54065   0.01382   0.49483   0.00000  Uiso   1.00
H136   H     0.61261   0.01012   0.01110   0.00000  Uiso   1.00
H137   H     0.63769   0.28930   0.44193   0.00000  Uiso   1.00
H138   H     0.56870   0.30177   0.42219   0.00000  Uiso   1.00
H139   H     0.43421   0.26359   0.07046   0.00000  Uiso   1.00
H140   H     0.35989   0.27779   0.07471   0.00000  Uiso   1.00
H141   H     0.38713   0.23561   0.02972   0.00000  Uiso   1.00
H142   H     0.37416   0.32011   0.49937   0.00000  Uiso   1.00
H143   H     0.44975   0.31186   0.00073   0.00000  Uiso   1.00
H144   H     0.37303   0.04445   0.06637   0.00000  Uiso   1.00
H145   H     0.48756   0.32048   0.15695   0.00000  Uiso   1.00
H146   H     0.44458   0.02747   0.07684   0.00000  Uiso   1.00
H147   H     0.55943   0.01174   0.16976   0.00000  Uiso   1.00
H148   H     0.51949   0.04601   0.13212   0.00000  Uiso   1.00
H149   H     0.59414   0.32927   0.09164   0.00000  Uiso   1.00
H150   H     0.52383   0.30701   0.07699   0.00000  Uiso   1.00
H151   H     0.56116   0.25003   0.15399   0.00000  Uiso   1.00
H152   H     0.61378   0.24665   0.11039   0.00000  Uiso   1.00
N153   N     0.65011   0.15265   0.23783   0.00000  Uiso   1.00
N154   N     0.34989   0.18068   0.26217   0.00000  Uiso   1.00
O155   O     0.46308   0.24619   0.25298   0.00000  Uiso   1.00
O156   O     0.53692   0.08714   0.24701   0.00000  Uiso   1.00
O157   O     0.55946   0.23721   0.24518   0.00000  Uiso   1.00
O158   O     0.44054   0.09613   0.25482   0.00000  Uiso   1.00
O159   O     0.45181   0.17117   0.31997   0.00000  Uiso   1.00
O160   O     0.54819   0.16216   0.18002   0.00000  Uiso   1.00
O161   O     0.54819   0.16219   0.31217   0.00000  Uiso   1.00
O162   O     0.45181   0.17115   0.18782   0.00000  Uiso   1.00
Zn163  Zn    0.43565   0.17266   0.25521   0.00000  Uiso   1.00
Zn164  Zn    0.56435   0.16067   0.24479   0.00000  Uiso   1.00
C165   C     0.84829   0.26473   0.25030   0.00000  Uiso   1.00
C166   C     0.86980   0.19974   0.40486   0.00000  Uiso   1.00
C167   C     0.83176   0.17123   0.11604   0.00000  Uiso   1.00
C168   C     0.83555   0.16182   0.38363   0.00000  Uiso   1.00
C169   C     0.86753   0.20821   0.09227   0.00000  Uiso   1.00
C170   C     0.80376   0.12206   0.40698   0.00000  Uiso   1.00
C171   C     0.87052   0.20394   0.04512   0.00000  Uiso   1.00
C172   C     0.80379   0.12375   0.45409   0.00000  Uiso   1.00
C173   C     0.83596   0.16517   0.02318   0.00000  Uiso   1.00
C174   C     0.83611   0.16412   0.47620   0.00000  Uiso   1.00
C175   C     0.80231   0.12696   0.04809   0.00000  Uiso   1.00
C176   C     0.81837   0.06871   0.25203   0.00000  Uiso   1.00
C177   C     0.86830   0.20359   0.45147   0.00000  Uiso   1.00
C178   C     0.90632   0.23864   0.01948   0.00000  Uiso   1.00
C179   C     0.77309   0.08515   0.47938   0.00000  Uiso   1.00
C180   C     0.90087   0.25236   0.11721   0.00000  Uiso   1.00
C181   C     0.88716   0.30803   0.10415   0.00000  Uiso   1.00
C182   C     0.86162   0.00672   0.14339   0.00000  Uiso   1.00
C183   C     0.77318   0.07672   0.38164   0.00000  Uiso   1.00
C184   C     0.80542   0.02625   0.38235   0.00000  Uiso   1.00
C185   C     0.76798   0.31213   0.36806   0.00000  Uiso   1.00
C186   C     0.92512   0.29414   0.45214   0.00000  Uiso   1.00
C187   C     0.89972   0.24414   0.47417   0.00000  Uiso   1.00
C188   C     0.91916   0.01071   0.48201   0.00000  Uiso   1.00
C189   C     0.93810   0.05984   0.45645   0.00000  Uiso   1.00
C190   C     0.74907   0.03574   0.05035   0.00000  Uiso   1.00
C191   C     0.74313   0.31811   0.02174   0.00000  Uiso   1.00
C192   C     0.73032   0.27081   0.05099   0.00000  Uiso   1.00
C193   C     0.77454   0.08395   0.02570   0.00000  Uiso   1.00
C194   C     0.85576   0.31897   0.25495   0.00000  Uiso   1.00
C195   C     0.81021   0.01454   0.25182   0.00000  Uiso   1.00
C196   C     0.83396   0.16499   0.33620   0.00000  Uiso   1.00
C197   C     0.83277   0.16837   0.16371   0.00000  Uiso   1.00
C198   C     0.79807   0.13289   0.09470   0.00000  Uiso   1.00
F199   F     0.76060   0.10223   0.12038   0.00000  Uiso   1.00
F200   F     0.90701   0.23033   0.37892   0.00000  Uiso   1.00
F201   F     0.90939   0.00588   0.26311   0.00000  Uiso   1.00
F202   F     0.75621   0.32782   0.24451   0.00000  Uiso   1.00
F203   F     0.67654   0.11951   0.20925   0.00000  Uiso   1.00
F204   F     0.99014   0.21384   0.29074   0.00000  Uiso   1.00
H205   H     0.93783   0.26394   0.03500   0.00000  Uiso   1.00
H206   H     0.73130   0.30542   0.39305   0.00000  Uiso   1.00
H207   H     0.75129   0.31792   0.33485   0.00000  Uiso   1.00
H208   H     0.79366   0.27703   0.36589   0.00000  Uiso   1.00
H209   H     0.84453   0.02978   0.35923   0.00000  Uiso   1.00
H210   H     0.81925   0.01938   0.41626   0.00000  Uiso   1.00
H211   H     0.72831   0.07102   0.39546   0.00000  Uiso   1.00
H212   H     0.76847   0.08458   0.34608   0.00000  Uiso   1.00
H213   H     0.91167   0.06393   0.42748   0.00000  Uiso   1.00
H214   H     0.98358   0.05821   0.44427   0.00000  Uiso   1.00
H215   H     0.93364   0.09470   0.47907   0.00000  Uiso   1.00
H216   H     0.74818   0.05476   0.46305   0.00000  Uiso   1.00
H217   H     0.87399   0.01382   0.49483   0.00000  Uiso   1.00
H218   H     0.94594   0.01012   0.01110   0.00000  Uiso   1.00
H219   H     0.97102   0.28930   0.44193   0.00000  Uiso   1.00
H220   H     0.90204   0.30177   0.42219   0.00000  Uiso   1.00
H221   H     0.76755   0.26359   0.07046   0.00000  Uiso   1.00
H222   H     0.69322   0.27779   0.07471   0.00000  Uiso   1.00
H223   H     0.72046   0.23561   0.02972   0.00000  Uiso   1.00
H224   H     0.70749   0.32011   0.49937   0.00000  Uiso   1.00
H225   H     0.78308   0.31186   0.00073   0.00000  Uiso   1.00
H226   H     0.70636   0.04445   0.06637   0.00000  Uiso   1.00
H227   H     0.82089   0.32048   0.15695   0.00000  Uiso   1.00
H228   H     0.77791   0.02747   0.07684   0.00000  Uiso   1.00
H229   H     0.89277   0.01174   0.16976   0.00000  Uiso   1.00
H230   H     0.85282   0.04601   0.13212   0.00000  Uiso   1.00
H231   H     0.92747   0.32927   0.09164   0.00000  Uiso   1.00
H232   H     0.85716   0.30701   0.07699   0.00000  Uiso   1.00
H233   H     0.89450   0.25003   0.15399   0.00000  Uiso   1.00
H234   H     0.94711   0.24665   0.11039   0.00000  Uiso   1.00
N235   N     0.98344   0.15265   0.23783   0.00000  Uiso   1.00
N236   N     0.68322   0.18068   0.26217   0.00000  Uiso   1.00
O237   O     0.79642   0.24619   0.25298   0.00000  Uiso   1.00
O238   O     0.87025   0.08714   0.24701   0.00000  Uiso   1.00
O239   O     0.89280   0.23721   0.24518   0.00000  Uiso   1.00
O240   O     0.77387   0.09613   0.25482   0.00000  Uiso   1.00
O241   O     0.78514   0.17117   0.31997   0.00000  Uiso   1.00
O242   O     0.88153   0.16216   0.18002   0.00000  Uiso   1.00
O243   O     0.88152   0.16219   0.31217   0.00000  Uiso   1.00
O244   O     0.78515   0.17115   0.18782   0.00000  Uiso   1.00
Zn245  Zn    0.76898   0.17266   0.25521   0.00000  Uiso   1.00
Zn246  Zn    0.89769   0.16067   0.24479   0.00000  Uiso   1.00
C247   C     0.18162   0.59807   0.25030   0.00000  Uiso   1.00
C248   C     0.20313   0.53308   0.40486   0.00000  Uiso   1.00
C249   C     0.16509   0.50456   0.11604   0.00000  Uiso   1.00
C250   C     0.16888   0.49516   0.38363   0.00000  Uiso   1.00
C251   C     0.20087   0.54155   0.09227   0.00000  Uiso   1.00
C252   C     0.13709   0.45540   0.40698   0.00000  Uiso   1.00
C253   C     0.20385   0.53727   0.04512   0.00000  Uiso   1.00
C254   C     0.13712   0.45708   0.45409   0.00000  Uiso   1.00
C255   C     0.16929   0.49850   0.02318   0.00000  Uiso   1.00
C256   C     0.16944   0.49745   0.47620   0.00000  Uiso   1.00
C257   C     0.13564   0.46029   0.04809   0.00000  Uiso   1.00
C258   C     0.15171   0.40204   0.25203   0.00000  Uiso   1.00
C259   C     0.20163   0.53692   0.45147   0.00000  Uiso   1.00
C260   C     0.23966   0.57198   0.01948   0.00000  Uiso   1.00
C261   C     0.10643   0.41849   0.47938   0.00000  Uiso   1.00
C262   C     0.23420   0.58569   0.11721   0.00000  Uiso   1.00
C263   C     0.22049   0.64136   0.10415   0.00000  Uiso   1.00
C264   C     0.19495   0.34005   0.14339   0.00000  Uiso   1.00
C265   C     0.10651   0.41006   0.38164   0.00000  Uiso   1.00
C266   C     0.13876   0.35958   0.38235   0.00000  Uiso   1.00
C267   C     0.10132   0.64546   0.36806   0.00000  Uiso   1.00
C268   C     0.25845   0.62748   0.45214   0.00000  Uiso   1.00
C269   C     0.23306   0.57748   0.47417   0.00000  Uiso   1.00
C270   C     0.25249   0.34405   0.48201   0.00000  Uiso   1.00
C271   C     0.27144   0.39318   0.45645   0.00000  Uiso   1.00
C272   C     0.08240   0.36907   0.05035   0.00000  Uiso   1.00
C273   C     0.07647   0.65144   0.02174   0.00000  Uiso   1.00
C274   C     0.06365   0.60414   0.05099   0.00000  Uiso   1.00
C275   C     0.10787   0.41728   0.02570   0.00000  Uiso   1.00
C276   C     0.18909   0.65230   0.25495   0.00000  Uiso   1.00
C277   C     0.14355   0.34788   0.25182   0.00000  Uiso   1.00
C278   C     0.16729   0.49832   0.33620   0.00000  Uiso   1.00
C279   C     0.16610   0.50171   0.16371   0.00000  Uiso   1.00
C280   C     0.13140   0.46622   0.09470   0.00000  Uiso   1.00
F281   F     0.09394   0.43556   0.12038   0.00000  Uiso   1.00
F282   F     0.24034   0.56366   0.37892   0.00000  Uiso   1.00
F283   F     0.24272   0.33922   0.26311   0.00000  Uiso   1.00
F284   F     0.08954   0.66115   0.24451   0.00000  Uiso   1.00
F285   F     0.00987   0.45285   0.20925   0.00000  Uiso   1.00
F286   F     0.32347   0.54717   0.29074   0.00000  Uiso   1.00
H287   H     0.27116   0.59728   0.03500   0.00000  Uiso   1.00
H288   H     0.06463   0.63875   0.39305   0.00000  Uiso   1.00
H289   H     0.08462   0.65125   0.33485   0.00000  Uiso   1.00
H290   H     0.12700   0.61036   0.36589   0.00000  Uiso   1.00
H291   H     0.17786   0.36312   0.35923   0.00000  Uiso   1.00
H292   H     0.15258   0.35271   0.41626   0.00000  Uiso   1.00
H293   H     0.06165   0.40436   0.39546   0.00000  Uiso   1.00
H294   H     0.10181   0.41791   0.34608   0.00000  Uiso   1.00
H295   H     0.24500   0.39726   0.42748   0.00000  Uiso   1.00
H296   H     0.31692   0.39154   0.44427   0.00000  Uiso   1.00
H297   H     0.26697   0.42803   0.47907   0.00000  Uiso   1.00
H298   H     0.08152   0.38809   0.46305   0.00000  Uiso   1.00
H299   H     0.20732   0.34716   0.49483   0.00000  Uiso   1.00
H300   H     0.27927   0.34345   0.01110   0.00000  Uiso   1.00
H301   H     0.30435   0.62264   0.44193   0.00000  Uiso   1.00
H302   H     0.23537   0.63510   0.42219   0.00000  Uiso   1.00
H303   H     0.10088   0.59693   0.07046   0.00000  Uiso   1.00
H304   H     0.02655   0.61112   0.07471   0.00000  Uiso   1.00
H305   H     0.05379   0.56894   0.02972   0.00000  Uiso   1.00
H306   H     0.04083   0.65344   0.49937   0.00000  Uiso   1.00
H307   H     0.11641   0.64520   0.00073   0.00000  Uiso   1.00
H308   H     0.03969   0.37779   0.06637   0.00000  Uiso   1.00
H309   H     0.15423   0.65381   0.15695   0.00000  Uiso   1.00
H310   H     0.11125   0.36080   0.07684   0.00000  Uiso   1.00
H311   H     0.22610   0.34507   0.16976   0.00000  Uiso   1.00
H312   H     0.18616   0.37935   0.13212   0.00000  Uiso   1.00
H313   H     0.26080   0.66260   0.09164   0.00000  Uiso   1.00
H314   H     0.19050   0.64035   0.07699   0.00000  Uiso   1.00
H315   H     0.22783   0.58336   0.15399   0.00000  Uiso   1.00
H316   H     0.28044   0.57998   0.11039   0.00000  Uiso   1.00
N317   N     0.31678   0.48598   0.23783   0.00000  Uiso   1.00
N318   N     0.01656   0.51402   0.26217   0.00000  Uiso   1.00
O319   O     0.12975   0.57952   0.25298   0.00000  Uiso   1.00
O320   O     0.20358   0.42048   0.24701   0.00000  Uiso   1.00
O321   O     0.22613   0.57054   0.24518   0.00000  Uiso   1.00
O322   O     0.10720   0.42946   0.25482   0.00000  Uiso   1.00
O323   O     0.11847   0.50450   0.31997   0.00000  Uiso   1.00
O324   O     0.21486   0.49550   0.18002   0.00000  Uiso   1.00
O325   O     0.21485   0.49552   0.31217   0.00000  Uiso   1.00
O326   O     0.11848   0.50448   0.18782   0.00000  Uiso   1.00
Zn327  Zn    0.10231   0.50600   0.25521   0.00000  Uiso   1.00
Zn328  Zn    0.23102   0.49400   0.24479   0.00000  Uiso   1.00
C329   C     0.51496   0.59807   0.25030   0.00000  Uiso   1.00
C330   C     0.53646   0.53308   0.40486   0.00000  Uiso   1.00
C331   C     0.49842   0.50456   0.11604   0.00000  Uiso   1.00
C332   C     0.50222   0.49516   0.38363   0.00000  Uiso   1.00
C333   C     0.53420   0.54155   0.09227   0.00000  Uiso   1.00
C334   C     0.47043   0.45540   0.40698   0.00000  Uiso   1.00
C335   C     0.53719   0.53727   0.04512   0.00000  Uiso   1.00
C336   C     0.47046   0.45708   0.45409   0.00000  Uiso   1.00
C337   C     0.50263   0.49850   0.02318   0.00000  Uiso   1.00
C338   C     0.50278   0.49745   0.47620   0.00000  Uiso   1.00
C339   C     0.46897   0.46029   0.04809   0.00000  Uiso   1.00
C340   C     0.48504   0.40204   0.25203   0.00000  Uiso   1.00
C341   C     0.53497   0.53692   0.45147   0.00000  Uiso   1.00
C342   C     0.57299   0.57198   0.01948   0.00000  Uiso   1.00
C343   C     0.43976   0.41849   0.47938   0.00000  Uiso   1.00
C344   C     0.56754   0.58569   0.11721   0.00000  Uiso   1.00
C345   C     0.55383   0.64136   0.10415   0.00000  Uiso   1.00
C346   C     0.52828   0.34005   0.14339   0.00000  Uiso   1.00
C347   C     0.43985   0.41006   0.38164   0.00000  Uiso   1.00
C348   C     0.47209   0.35958   0.38235   0.00000  Uiso   1.00
C349   C     0.43465   0.64546   0.36806   0.00000  Uiso   1.00
C350   C     0.59179   0.62748   0.45214   0.00000  Uiso   1.00
C351   C     0.56639   0.57748   0.47417   0.00000  Uiso   1.00
C352   C     0.58582   0.34405   0.48201   0.00000  Uiso   1.00
C353   C     0.60477   0.39318   0.45645   0.00000  Uiso   1.00
C354   C     0.41574   0.36907   0.05035   0.00000  Uiso   1.00
C355   C     0.40980   0.65144   0.02174   0.00000  Uiso   1.00
C356   C     0.39698   0.60414   0.05099   0.00000  Uiso   1.00
C357   C     0.44120   0.41728   0.02570   0.00000  Uiso   1.00
C358   C     0.52242   0.65230   0.25495   0.00000  Uiso   1.00
C359   C     0.47688   0.34788   0.25182   0.00000  Uiso   1.00
C360   C     0.50062   0.49832   0.33620   0.00000  Uiso   1.00
C361   C     0.49944   0.50171   0.16371   0.00000  Uiso   1.00
C362   C     0.46474   0.46622   0.09470   0.00000  Uiso   1.00
F363   F     0.42727   0.43556   0.12038   0.00000  Uiso   1.00
F364   F     0.57367   0.56366   0.37892   0.00000  Uiso   1.00
F365   F     0.57606   0.33922   0.26311   0.00000  Uiso   1.00
F366   F     0.42288   0.66115   0.24451   0.00000  Uiso   1.00
F367   F     0.34320   0.45285   0.20925   0.00000  Uiso   1.00
F368   F     0.65681   0.54717   0.29074   0.00000  Uiso   1.00
H369   H     0.60450   0.59728   0.03500   0.00000  Uiso   1.00
H370   H     0.39797   0.63875   0.39305   0.00000  Uiso   1.00
H371   H     0.41796   0.65125   0.33485   0.00000  Uiso   1.00
H372   H     0.46033   0.61036   0.36589   0.00000  Uiso   1.00
H373   H     0.51120   0.36312   0.35923   0.00000  Uiso   1.00
H374   H     0.48592   0.35271   0.41626   0.00000  Uiso   1.00
H375   H     0.39498   0.40436   0.39546   0.00000  Uiso   1.00
H376   H     0.43514   0.41791   0.34608   0.00000  Uiso   1.00
H377   H     0.57834   0.39726   0.42748   0.00000  Uiso   1.00
H378   H     0.65025   0.39154   0.44427   0.00000  Uiso   1.00
H379   H     0.60030   0.42803   0.47907   0.00000  Uiso   1.00
H380   H     0.41485   0.38809   0.46305   0.00000  Uiso   1.00
H381   H     0.54065   0.34716   0.49483   0.00000  Uiso   1.00
H382   H     0.61261   0.34345   0.01110   0.00000  Uiso   1.00
H383   H     0.63769   0.62264   0.44193   0.00000  Uiso   1.00
H384   H     0.56870   0.63510   0.42219   0.00000  Uiso   1.00
H385   H     0.43421   0.59693   0.07046   0.00000  Uiso   1.00
H386   H     0.35989   0.61112   0.07471   0.00000  Uiso   1.00
H387   H     0.38713   0.56894   0.02972   0.00000  Uiso   1.00
H388   H     0.37416   0.65344   0.49937   0.00000  Uiso   1.00
H389   H     0.44975   0.64520   0.00073   0.00000  Uiso   1.00
H390   H     0.37303   0.37779   0.06637   0.00000  Uiso   1.00
H391   H     0.48756   0.65381   0.15695   0.00000  Uiso   1.00
H392   H     0.44458   0.36080   0.07684   0.00000  Uiso   1.00
H393   H     0.55943   0.34507   0.16976   0.00000  Uiso   1.00
H394   H     0.51949   0.37935   0.13212   0.00000  Uiso   1.00
H395   H     0.59414   0.66260   0.09164   0.00000  Uiso   1.00
H396   H     0.52383   0.64035   0.07699   0.00000  Uiso   1.00
H397   H     0.56116   0.58336   0.15399   0.00000  Uiso   1.00
H398   H     0.61378   0.57998   0.11039   0.00000  Uiso   1.00
N399   N     0.65011   0.48598   0.23783   0.00000  Uiso   1.00
N400   N     0.34989   0.51402   0.26217   0.00000  Uiso   1.00
O401   O     0.46308   0.57952   0.25298   0.00000  Uiso   1.00
O402   O     0.53692   0.42048   0.24701   0.00000  Uiso   1.00
O403   O     0.55946   0.57054   0.24518   0.00000  Uiso   1.00
O404   O     0.44054   0.42946   0.25482   0.00000  Uiso   1.00
O405   O     0.45181   0.50450   0.31997   0.00000  Uiso   1.00
O406   O     0.54819   0.49550   0.18002   0.00000  Uiso   1.00
O407   O     0.54819   0.49552   0.31217   0.00000  Uiso   1.00
O408   O     0.45181   0.50448   0.18782   0.00000  Uiso   1.00
Zn409  Zn    0.43565   0.50600   0.25521   0.00000  Uiso   1.00
Zn410  Zn    0.56435   0.49400   0.24479   0.00000  Uiso   1.00
C411   C     0.84829   0.59807   0.25030   0.00000  Uiso   1.00
C412   C     0.86980   0.53308   0.40486   0.00000  Uiso   1.00
C413   C     0.83176   0.50456   0.11604   0.00000  Uiso   1.00
C414   C     0.83555   0.49516   0.38363   0.00000  Uiso   1.00
C415   C     0.86753   0.54155   0.09227   0.00000  Uiso   1.00
C416   C     0.80376   0.45540   0.40698   0.00000  Uiso   1.00
C417   C     0.87052   0.53727   0.04512   0.00000  Uiso   1.00
C418   C     0.80379   0.45708   0.45409   0.00000  Uiso   1.00
C419   C     0.83596   0.49850   0.02318   0.00000  Uiso   1.00
C420   C     0.83611   0.49745   0.47620   0.00000  Uiso   1.00
C421   C     0.80231   0.46029   0.04809   0.00000  Uiso   1.00
C422   C     0.81837   0.40204   0.25203   0.00000  Uiso   1.00
C423   C     0.86830   0.53692   0.45147   0.00000  Uiso   1.00
C424   C     0.90632   0.57198   0.01948   0.00000  Uiso   1.00
C425   C     0.77309   0.41849   0.47938   0.00000  Uiso   1.00
C426   C     0.90087   0.58569   0.11721   0.00000  Uiso   1.00
C427   C     0.88716   0.64136   0.10415   0.00000  Uiso   1.00
C428   C     0.86162   0.34005   0.14339   0.00000  Uiso   1.00
C429   C     0.77318   0.41006   0.38164   0.00000  Uiso   1.00
C430   C     0.80542   0.35958   0.38235   0.00000  Uiso   1.00
C431   C     0.76798   0.64546   0.36806   0.00000  Uiso   1.00
C432   C     0.92512   0.62748   0.45214   0.00000  Uiso   1.00
C433   C     0.89972   0.57748   0.47417   0.00000  Uiso   1.00
C434   C     0.91916   0.34405   0.48201   0.00000  Uiso   1.00
C435   C     0.93810   0.39318   0.45645   0.00000  Uiso   1.00
C436   C     0.74907   0.36907   0.05035   0.00000  Uiso   1.00
C437   C     0.74313   0.65144   0.02174   0.00000  Uiso   1.00
C438   C     0.73032   0.60414   0.05099   0.00000  Uiso   1.00
C439   C     0.77454   0.41728   0.02570   0.00000  Uiso   1.00
C440   C     0.85576   0.65230   0.25495   0.00000  Uiso   1.00
C441   C     0.81021   0.34788   0.25182   0.00000  Uiso   1.00
C442   C     0.83396   0.49832   0.33620   0.00000  Uiso   1.00
C443   C     0.83277   0.50171   0.16371   0.00000  Uiso   1.00
C444   C     0.79807   0.46622   0.09470   0.00000  Uiso   1.00
F445   F     0.76060   0.43556   0.12038   0.00000  Uiso   1.00
F446   F     0.90701   0.56366   0.37892   0.00000  Uiso   1.00
F447   F     0.90939   0.33922   0.26311   0.00000  Uiso   1.00
F448   F     0.75621   0.66115   0.24451   0.00000  Uiso   1.00
F449   F     0.67654   0.45285   0.20925   0.00000  Uiso   1.00
F450   F     0.99014   0.54717   0.29074   0.00000  Uiso   1.00
H451   H     0.93783   0.59728   0.03500   0.00000  Uiso   1.00
H452   H     0.73130   0.63875   0.39305   0.00000  Uiso   1.00
H453   H     0.75129   0.65125   0.33485   0.00000  Uiso   1.00
H454   H     0.79366   0.61036   0.36589   0.00000  Uiso   1.00
H455   H     0.84453   0.36312   0.35923   0.00000  Uiso   1.00
H456   H     0.81925   0.35271   0.41626   0.00000  Uiso   1.00
H457   H     0.72831   0.40436   0.39546   0.00000  Uiso   1.00
H458   H     0.76847   0.41791   0.34608   0.00000  Uiso   1.00
H459   H     0.91167   0.39726   0.42748   0.00000  Uiso   1.00
H460   H     0.98358   0.39154   0.44427   0.00000  Uiso   1.00
H461   H     0.93364   0.42803   0.47907   0.00000  Uiso   1.00
H462   H     0.74818   0.38809   0.46305   0.00000  Uiso   1.00
H463   H     0.87399   0.34716   0.49483   0.00000  Uiso   1.00
H464   H     0.94594   0.34345   0.01110   0.00000  Uiso   1.00
H465   H     0.97102   0.62264   0.44193   0.00000  Uiso   1.00
H466   H     0.90204   0.63510   0.42219   0.00000  Uiso   1.00
H467   H     0.76755   0.59693   0.07046   0.00000  Uiso   1.00
H468   H     0.69322   0.61112   0.07471   0.00000  Uiso   1.00
H469   H     0.72046   0.56894   0.02972   0.00000  Uiso   1.00
H470   H     0.70749   0.65344   0.49937   0.00000  Uiso   1.00
H471   H     0.78308   0.64520   0.00073   0.00000  Uiso   1.00
H472   H     0.70636   0.37779   0.06637   0.00000  Uiso   1.00
H473   H     0.82089   0.65381   0.15695   0.00000  Uiso   1.00
H474   H     0.77791   0.36080   0.07684   0.00000  Uiso   1.00
H475   H     0.89277   0.34507   0.16976   0.00000  Uiso   1.00
H476   H     0.85282   0.37935   0.13212   0.00000  Uiso   1.00
H477   H     0.92747   0.66260   0.09164   0.00000  Uiso   1.00
H478   H     0.85716   0.64035   0.07699   0.00000  Uiso   1.00
H479   H     0.89450   0.58336   0.15399   0.00000  Uiso   1.00
H480   H     0.94711   0.57998   0.11039   0.00000  Uiso   1.00
N481   N     0.98344   0.48598   0.23783   0.00000  Uiso   1.00
N482   N     0.68322   0.51402   0.26217   0.00000  Uiso   1.00
O483   O     0.79642   0.57952   0.25298   0.00000  Uiso   1.00
O484   O     0.87025   0.42048   0.24701   0.00000  Uiso   1.00
O485   O     0.89280   0.57054   0.24518   0.00000  Uiso   1.00
O486   O     0.77387   0.42946   0.25482   0.00000  Uiso   1.00
O487   O     0.78514   0.50450   0.31997   0.00000  Uiso   1.00
O488   O     0.88153   0.49550   0.18002   0.00000  Uiso   1.00
O489   O     0.88152   0.49552   0.31217   0.00000  Uiso   1.00
O490   O     0.78515   0.50448   0.18782   0.00000  Uiso   1.00
Zn491  Zn    0.76898   0.50600   0.25521   0.00000  Uiso   1.00
Zn492  Zn    0.89769   0.49400   0.24479   0.00000  Uiso   1.00
C493   C     0.18162   0.93140   0.25030   0.00000  Uiso   1.00
C494   C     0.20313   0.86641   0.40486   0.00000  Uiso   1.00
C495   C     0.16509   0.83790   0.11604   0.00000  Uiso   1.00
C496   C     0.16888   0.82849   0.38363   0.00000  Uiso   1.00
C497   C     0.20087   0.87488   0.09227   0.00000  Uiso   1.00
C498   C     0.13709   0.78873   0.40698   0.00000  Uiso   1.00
C499   C     0.20385   0.87061   0.04512   0.00000  Uiso   1.00
C500   C     0.13712   0.79041   0.45409   0.00000  Uiso   1.00
C501   C     0.16929   0.83183   0.02318   0.00000  Uiso   1.00
C502   C     0.16944   0.83079   0.47620   0.00000  Uiso   1.00
C503   C     0.13564   0.79363   0.04809   0.00000  Uiso   1.00
C504   C     0.15171   0.73537   0.25203   0.00000  Uiso   1.00
C505   C     0.20163   0.87026   0.45147   0.00000  Uiso   1.00
C506   C     0.23966   0.90531   0.01948   0.00000  Uiso   1.00
C507   C     0.10643   0.75182   0.47938   0.00000  Uiso   1.00
C508   C     0.23420   0.91902   0.11721   0.00000  Uiso   1.00
C509   C     0.22049   0.97470   0.10415   0.00000  Uiso   1.00
C510   C     0.19495   0.67338   0.14339   0.00000  Uiso   1.00
C511   C     0.10651   0.74339   0.38164   0.00000  Uiso   1.00
C512   C     0.13876   0.69292   0.38235   0.00000  Uiso   1.00
C513   C     0.10132   0.97879   0.36806   0.00000  Uiso   1.00
C514   C     0.25845   0.96081   0.45214   0.00000  Uiso   1.00
C515   C     0.23306   0.91081   0.47417   0.00000  Uiso   1.00
C516   C     0.25249   0.67738   0.48201   0.00000  Uiso   1.00
C517   C     0.27144   0.72651   0.45645   0.00000  Uiso   1.00
C518   C     0.08240   0.70240   0.05035   0.00000  Uiso   1.00
C519   C     0.07647   0.98477   0.02174   0.00000  Uiso   1.00
C520   C     0.06365   0.93748   0.05099   0.00000  Uiso   1.00
C521   C     0.10787   0.75062   0.02570   0.00000  Uiso   1.00
C522   C     0.18909   0.98564   0.25495   0.00000  Uiso   1.00
C523   C     0.14355   0.68121   0.25182   0.00000  Uiso   1.00
C524   C     0.16729   0.83165   0.33620   0.00000  Uiso   1.00
C525   C     0.16610   0.83504   0.16371   0.00000  Uiso   1.00
C526   C     0.13140   0.79955   0.09470   0.00000  Uiso   1.00
F527   F     0.09394   0.76890   0.12038   0.00000  Uiso   1.00
F528   F     0.24034   0.89699   0.37892   0.00000  Uiso   1.00
F529   F     0.24272   0.67255   0.26311   0.00000  Uiso   1.00
F530   F     0.08954   0.99449   0.24451   0.00000  Uiso   1.00
F531   F     0.00987   0.78618   0.20925   0.00000  Uiso   1.00
F532   F     0.32347   0.88050   0.29074   0.00000  Uiso   1.00
H533   H     0.27116   0.93061   0.03500   0.00000  Uiso   1.00
H534   H     0.06463   0.97209   0.39305   0.00000  Uiso   1.00
H535   H     0.08462   0.98458   0.33485   0.00000  Uiso   1.00
H536   H     0.12700   0.94369   0.36589   0.00000  Uiso   1.00
H537   H     0.17786   0.69645   0.35923   0.00000  Uiso   1.00
H538   H     0.15258   0.68605   0.41626   0.00000  Uiso   1.00
H539   H     0.06165   0.73769   0.39546   0.00000  Uiso   1.00
H540   H     0.10181   0.75125   0.34608   0.00000  Uiso   1.00
H541   H     0.24500   0.73059   0.42748   0.00000  Uiso   1.00
H542   H     0.31692   0.72488   0.44427   0.00000  Uiso   1.00
H543   H     0.26697   0.76136   0.47907   0.00000  Uiso   1.00
H544   H     0.08152   0.72142   0.46305   0.00000  Uiso   1.00
H545   H     0.20732   0.68049   0.49483   0.00000  Uiso   1.00
H546   H     0.27927   0.67678   0.01110   0.00000  Uiso   1.00
H547   H     0.30435   0.95597   0.44193   0.00000  Uiso   1.00
H548   H     0.23537   0.96843   0.42219   0.00000  Uiso   1.00
H549   H     0.10088   0.93026   0.07046   0.00000  Uiso   1.00
H550   H     0.02655   0.94446   0.07471   0.00000  Uiso   1.00
H551   H     0.05379   0.90228   0.02972   0.00000  Uiso   1.00
H552   H     0.04083   0.98677   0.49937   0.00000  Uiso   1.00
H553   H     0.11641   0.97853   0.00073   0.00000  Uiso   1.00
H554   H     0.03969   0.71112   0.06637   0.00000  Uiso   1.00
H555   H     0.15423   0.98714   0.15695   0.00000  Uiso   1.00
H556   H     0.11125   0.69414   0.07684   0.00000  Uiso   1.00
H557   H     0.22610   0.67840   0.16976   0.00000  Uiso   1.00
H558   H     0.18616   0.71268   0.13212   0.00000  Uiso   1.00
H559   H     0.26080   0.99594   0.09164   0.00000  Uiso   1.00
H560   H     0.19050   0.97368   0.07699   0.00000  Uiso   1.00
H561   H     0.22783   0.91669   0.15399   0.00000  Uiso   1.00
H562   H     0.28044   0.91331   0.11039   0.00000  Uiso   1.00
N563   N     0.31678   0.81932   0.23783   0.00000  Uiso   1.00
N564   N     0.01656   0.84735   0.26217   0.00000  Uiso   1.00
O565   O     0.12975   0.91286   0.25298   0.00000  Uiso   1.00
O566   O     0.20358   0.75381   0.24701   0.00000  Uiso   1.00
O567   O     0.22613   0.90387   0.24518   0.00000  Uiso   1.00
O568   O     0.10720   0.76279   0.25482   0.00000  Uiso   1.00
O569   O     0.11847   0.83784   0.31997   0.00000  Uiso   1.00
O570   O     0.21486   0.82883   0.18002   0.00000  Uiso   1.00
O571   O     0.21485   0.82885   0.31217   0.00000  Uiso   1.00
O572   O     0.11848   0.83781   0.18782   0.00000  Uiso   1.00
Zn573  Zn    0.10231   0.83933   0.25521   0.00000  Uiso   1.00
Zn574  Zn    0.23102   0.82734   0.24479   0.00000  Uiso   1.00
C575   C     0.51496   0.93140   0.25030   0.00000  Uiso   1.00
C576   C     0.53646   0.86641   0.40486   0.00000  Uiso   1.00
C577   C     0.49842   0.83790   0.11604   0.00000  Uiso   1.00
C578   C     0.50222   0.82849   0.38363   0.00000  Uiso   1.00
C579   C     0.53420   0.87488   0.09227   0.00000  Uiso   1.00
C580   C     0.47043   0.78873   0.40698   0.00000  Uiso   1.00
C581   C     0.53719   0.87061   0.04512   0.00000  Uiso   1.00
C582   C     0.47046   0.79041   0.45409   0.00000  Uiso   1.00
C583   C     0.50263   0.83183   0.02318   0.00000  Uiso   1.00
C584   C     0.50278   0.83079   0.47620   0.00000  Uiso   1.00
C585   C     0.46897   0.79363   0.04809   0.00000  Uiso   1.00
C586   C     0.48504   0.73537   0.25203   0.00000  Uiso   1.00
C587   C     0.53497   0.87026   0.45147   0.00000  Uiso   1.00
C588   C     0.57299   0.90531   0.01948   0.00000  Uiso   1.00
C589   C     0.43976   0.75182   0.47938   0.00000  Uiso   1.00
C590   C     0.56754   0.91902   0.11721   0.00000  Uiso   1.00
C591   C     0.55383   0.97470   0.10415   0.00000  Uiso   1.00
C592   C     0.52828   0.67338   0.14339   0.00000  Uiso   1.00
C593   C     0.43985   0.74339   0.38164   0.00000  Uiso   1.00
C594   C     0.47209   0.69292   0.38235   0.00000  Uiso   1.00
C595   C     0.43465   0.97879   0.36806   0.00000  Uiso   1.00
C596   C     0.59179   0.96081   0.45214   0.00000  Uiso   1.00
C597   C     0.56639   0.91081   0.47417   0.00000  Uiso   1.00
C598   C     0.58582   0.67738   0.48201   0.00000  Uiso   1.00
C599   C     0.60477   0.72651   0.45645   0.00000  Uiso   1.00
C600   C     0.41574   0.70240   0.05035   0.00000  Uiso   1.00
C601   C     0.40980   0.98477   0.02174   0.00000  Uiso   1.00
C602   C     0.39698   0.93748   0.05099   0.00000  Uiso   1.00
C603   C     0.44120   0.75062   0.02570   0.00000  Uiso   1.00
C604   C     0.52242   0.98564   0.25495   0.00000  Uiso   1.00
C605   C     0.47688   0.68121   0.25182   0.00000  Uiso   1.00
C606   C     0.50062   0.83165   0.33620   0.00000  Uiso   1.00
C607   C     0.49944   0.83504   0.16371   0.00000  Uiso   1.00
C608   C     0.46474   0.79955   0.09470   0.00000  Uiso   1.00
F609   F     0.42727   0.76890   0.12038   0.00000  Uiso   1.00
F610   F     0.57367   0.89699   0.37892   0.00000  Uiso   1.00
F611   F     0.57606   0.67255   0.26311   0.00000  Uiso   1.00
F612   F     0.42288   0.99449   0.24451   0.00000  Uiso   1.00
F613   F     0.34320   0.78618   0.20925   0.00000  Uiso   1.00
F614   F     0.65681   0.88050   0.29074   0.00000  Uiso   1.00
H615   H     0.60450   0.93061   0.03500   0.00000  Uiso   1.00
H616   H     0.39797   0.97209   0.39305   0.00000  Uiso   1.00
H617   H     0.41796   0.98458   0.33485   0.00000  Uiso   1.00
H618   H     0.46033   0.94369   0.36589   0.00000  Uiso   1.00
H619   H     0.51120   0.69645   0.35923   0.00000  Uiso   1.00
H620   H     0.48592   0.68605   0.41626   0.00000  Uiso   1.00
H621   H     0.39498   0.73769   0.39546   0.00000  Uiso   1.00
H622   H     0.43514   0.75125   0.34608   0.00000  Uiso   1.00
H623   H     0.57834   0.73059   0.42748   0.00000  Uiso   1.00
H624   H     0.65025   0.72488   0.44427   0.00000  Uiso   1.00
H625   H     0.60030   0.76136   0.47907   0.00000  Uiso   1.00
H626   H     0.41485   0.72142   0.46305   0.00000  Uiso   1.00
H627   H     0.54065   0.68049   0.49483   0.00000  Uiso   1.00
H628   H     0.61261   0.67678   0.01110   0.00000  Uiso   1.00
H629   H     0.63769   0.95597   0.44193   0.00000  Uiso   1.00
H630   H     0.56870   0.96843   0.42219   0.00000  Uiso   1.00
H631   H     0.43421   0.93026   0.07046   0.00000  Uiso   1.00
H632   H     0.35989   0.94446   0.07471   0.00000  Uiso   1.00
H633   H     0.38713   0.90228   0.02972   0.00000  Uiso   1.00
H634   H     0.37416   0.98677   0.49937   0.00000  Uiso   1.00
H635   H     0.44975   0.97853   0.00073   0.00000  Uiso   1.00
H636   H     0.37303   0.71112   0.06637   0.00000  Uiso   1.00
H637   H     0.48756   0.98714   0.15695   0.00000  Uiso   1.00
H638   H     0.44458   0.69414   0.07684   0.00000  Uiso   1.00
H639   H     0.55943   0.67840   0.16976   0.00000  Uiso   1.00
H640   H     0.51949   0.71268   0.13212   0.00000  Uiso   1.00
H641   H     0.59414   0.99594   0.09164   0.00000  Uiso   1.00
H642   H     0.52383   0.97368   0.07699   0.00000  Uiso   1.00
H643   H     0.56116   0.91669   0.15399   0.00000  Uiso   1.00
H644   H     0.61378   0.91331   0.11039   0.00000  Uiso   1.00
N645   N     0.65011   0.81932   0.23783   0.00000  Uiso   1.00
N646   N     0.34989   0.84735   0.26217   0.00000  Uiso   1.00
O647   O     0.46308   0.91286   0.25298   0.00000  Uiso   1.00
O648   O     0.53692   0.75381   0.24701   0.00000  Uiso   1.00
O649   O     0.55946   0.90387   0.24518   0.00000  Uiso   1.00
O650   O     0.44054   0.76279   0.25482   0.00000  Uiso   1.00
O651   O     0.45181   0.83784   0.31997   0.00000  Uiso   1.00
O652   O     0.54819   0.82883   0.18002   0.00000  Uiso   1.00
O653   O     0.54819   0.82885   0.31217   0.00000  Uiso   1.00
O654   O     0.45181   0.83781   0.18782   0.00000  Uiso   1.00
Zn655  Zn    0.43565   0.83933   0.25521   0.00000  Uiso   1.00
Zn656  Zn    0.56435   0.82734   0.24479   0.00000  Uiso   1.00
C657   C     0.84829   0.93140   0.25030   0.00000  Uiso   1.00
C658   C     0.86980   0.86641   0.40486   0.00000  Uiso   1.00
C659   C     0.83176   0.83790   0.11604   0.00000  Uiso   1.00
C660   C     0.83555   0.82849   0.38363   0.00000  Uiso   1.00
C661   C     0.86753   0.87488   0.09227   0.00000  Uiso   1.00
C662   C     0.80376   0.78873   0.40698   0.00000  Uiso   1.00
C663   C     0.87052   0.87061   0.04512   0.00000  Uiso   1.00
C664   C     0.80379   0.79041   0.45409   0.00000  Uiso   1.00
C665   C     0.83596   0.83183   0.02318   0.00000  Uiso   1.00
C666   C     0.83611   0.83079   0.47620   0.00000  Uiso   1.00
C667   C     0.80231   0.79363   0.04809   0.00000  Uiso   1.00
C668   C     0.81837   0.73537   0.25203   0.00000  Uiso   1.00
C669   C     0.86830   0.87026   0.45147   0.00000  Uiso   1.00
C670   C     0.90632   0.90531   0.01948   0.00000  Uiso   1.00
C671   C     0.77309   0.75182   0.47938   0.00000  Uiso   1.00
C672   C     0.90087   0.91902   0.11721   0.00000  Uiso   1.00
C673   C     0.88716   0.97470   0.10415   0.00000  Uiso   1.00
C674   C     0.86162   0.67338   0.14339   0.00000  Uiso   1.00
C675   C     0.77318   0.74339   0.38164   0.00000  Uiso   1.00
C676   C     0.80542   0.69292   0.38235   0.00000  Uiso   1.00
C677   C     0.76798   0.97879   0.36806   0.00000  Uiso   1.00
C678   C     0.92512   0.96081   0.45214   0.00000  Uiso   1.00
C679   C     0.89972   0.91081   0.47417   0.00000  Uiso   1.00
C680   C     0.91916   0.67738   0.48201   0.00000  Uiso   1.00
C681   C     0.93810   0.72651   0.45645   0.00000  Uiso   1.00
C682   C     0.74907   0.70240   0.05035   0.00000  Uiso   1.00
C683   C     0.74313   0.98477   0.02174   0.00000  Uiso   1.00
C684   C     0.73032   0.93748   0.05099   0.00000  Uiso   1.00
C685   C     0.77454   0.75062   0.02570   0.00000  Uiso   1.00
C686   C     0.85576   0.98564   0.25495   0.00000  Uiso   1.00
C687   C     0.81021   0.68121   0.25182   0.00000  Uiso   1.00
C688   C     0.83396   0.83165   0.33620   0.00000  Uiso   1.00
C689   C     0.83277   0.83504   0.16371   0.00000  Uiso   1.00
C690   C     0.79807   0.79955   0.09470   0.00000  Uiso   1.00
F691   F     0.76060   0.76890   0.12038   0.00000  Uiso   1.00
F692   F     0.90701   0.89699   0.37892   0.00000  Uiso   1.00
F693   F     0.90939   0.67255   0.26311   0.00000  Uiso   1.00
F694   F     0.75621   0.99449   0.24451   0.00000  Uiso   1.00
F695   F     0.67654   0.78618   0.20925   0.00000  Uiso   1.00
F696   F     0.99014   0.88050   0.29074   0.00000  Uiso   1.00
H697   H     0.93783   0.93061   0.03500   0.00000  Uiso   1.00
H698   H     0.73130   0.97209   0.39305   0.00000  Uiso   1.00
H699   H     0.75129   0.98458   0.33485   0.00000  Uiso   1.00
H700   H     0.79366   0.94369   0.36589   0.00000  Uiso   1.00
H701   H     0.84453   0.69645   0.35923   0.00000  Uiso   1.00
H702   H     0.81925   0.68605   0.41626   0.00000  Uiso   1.00
H703   H     0.72831   0.73769   0.39546   0.00000  Uiso   1.00
H704   H     0.76847   0.75125   0.34608   0.00000  Uiso   1.00
H705   H     0.91167   0.73059   0.42748   0.00000  Uiso   1.00
H706   H     0.98358   0.72488   0.44427   0.00000  Uiso   1.00
H707   H     0.93364   0.76136   0.47907   0.00000  Uiso   1.00
H708   H     0.74818   0.72142   0.46305   0.00000  Uiso   1.00
H709   H     0.87399   0.68049   0.49483   0.00000  Uiso   1.00
H710   H     0.94594   0.67678   0.01110   0.00000  Uiso   1.00
H711   H     0.97102   0.95597   0.44193   0.00000  Uiso   1.00
H712   H     0.90204   0.96843   0.42219   0.00000  Uiso   1.00
H713   H     0.76755   0.93026   0.07046   0.00000  Uiso   1.00
H714   H     0.69322   0.94446   0.07471   0.00000  Uiso   1.00
H715   H     0.72046   0.90228   0.02972   0.00000  Uiso   1.00
H716   H     0.70749   0.98677   0.49937   0.00000  Uiso   1.00
H717   H     0.78308   0.97853   0.00073   0.00000  Uiso   1.00
H718   H     0.70636   0.71112   0.06637   0.00000  Uiso   1.00
H719   H     0.82089   0.98714   0.15695   0.00000  Uiso   1.00
H720   H     0.77791   0.69414   0.07684   0.00000  Uiso   1.00
H721   H     0.89277   0.67840   0.16976   0.00000  Uiso   1.00
H722   H     0.85282   0.71268   0.13212   0.00000  Uiso   1.00
H723   H     0.92747   0.99594   0.09164   0.00000  Uiso   1.00
H724   H     0.85716   0.97368   0.07699   0.00000  Uiso   1.00
H725   H     0.89450   0.91669   0.15399   0.00000  Uiso   1.00
H726   H     0.94711   0.91331   0.11039   0.00000  Uiso   1.00
N727   N     0.98344   0.81932   0.23783   0.00000  Uiso   1.00
N728   N     0.68322   0.84735   0.26217   0.00000  Uiso   1.00
O729   O     0.79642   0.91286   0.25298   0.00000  Uiso   1.00
O730   O     0.87025   0.75381   0.24701   0.00000  Uiso   1.00
O731   O     0.89280   0.90387   0.24518   0.00000  Uiso   1.00
O732   O     0.77387   0.76279   0.25482   0.00000  Uiso   1.00
O733   O     0.78514   0.83784   0.31997   0.00000  Uiso   1.00
O734   O     0.88153   0.82883   0.18002   0.00000  Uiso   1.00
O735   O     0.88152   0.82885   0.31217   0.00000  Uiso   1.00
O736   O     0.78515   0.83781   0.18782   0.00000  Uiso   1.00
Zn737  Zn    0.76898   0.83933   0.25521   0.00000  Uiso   1.00
Zn738  Zn    0.89769   0.82734   0.24479   0.00000  Uiso   1.00
C739   C     0.18162   0.26473   0.75030   0.00000  Uiso   1.00
C740   C     0.20313   0.19974   0.90486   0.00000  Uiso   1.00
C741   C     0.16509   0.17123   0.61604   0.00000  Uiso   1.00
C742   C     0.16888   0.16182   0.88363   0.00000  Uiso   1.00
C743   C     0.20087   0.20821   0.59227   0.00000  Uiso   1.00
C744   C     0.13709   0.12206   0.90698   0.00000  Uiso   1.00
C745   C     0.20385   0.20394   0.54512   0.00000  Uiso   1.00
C746   C     0.13712   0.12375   0.95409   0.00000  Uiso   1.00
C747   C     0.16929   0.16517   0.52318   0.00000  Uiso   1.00
C748   C     0.16944   0.16412   0.97620   0.00000  Uiso   1.00
C749   C     0.13564   0.12696   0.54809   0.00000  Uiso   1.00
C750   C     0.15171   0.06871   0.75203   0.00000  Uiso   1.00
C751   C     0.20163   0.20359   0.95147   0.00000  Uiso   1.00
C752   C     0.23966   0.23864   0.51948   0.00000  Uiso   1.00
C753   C     0.10643   0.08515   0.97938   0.00000  Uiso   1.00
C754   C     0.23420   0.25236   0.61721   0.00000  Uiso   1.00
C755   C     0.22049   0.30803   0.60415   0.00000  Uiso   1.00
C756   C     0.19495   0.00672   0.64339   0.00000  Uiso   1.00
C757   C     0.10651   0.07672   0.88164   0.00000  Uiso   1.00
C758   C     0.13876   0.02625   0.88235   0.00000  Uiso   1.00
C759   C     0.10132   0.31213   0.86806   0.00000  Uiso   1.00
C760   C     0.25845   0.29414   0.95214   0.00000  Uiso   1.00
C761   C     0.23306   0.24414   0.97417   0.00000  Uiso   1.00
C762   C     0.25249   0.01071   0.98201   0.00000  Uiso   1.00
C763   C     0.27144   0.05984   0.95645   0.00000  Uiso   1.00
C764   C     0.08240   0.03574   0.55035   0.00000  Uiso   1.00
C765   C     0.07647   0.31811   0.52174   0.00000  Uiso   1.00
C766   C     0.06365   0.27081   0.55099   0.00000  Uiso   1.00
C767   C     0.10787   0.08395   0.52570   0.00000  Uiso   1.00
C768   C     0.18909   0.31897   0.75495   0.00000  Uiso   1.00
C769   C     0.14355   0.01454   0.75182   0.00000  Uiso   1.00
C770   C     0.16729   0.16499   0.83620   0.00000  Uiso   1.00
C771   C     0.16610   0.16837   0.66371   0.00000  Uiso   1.00
C772   C     0.13140   0.13289   0.59470   0.00000  Uiso   1.00
F773   F     0.09394   0.10223   0.62038   0.00000  Uiso   1.00
F774   F     0.24034   0.23033   0.87892   0.00000  Uiso   1.00
F775   F     0.24272   0.00588   0.76311   0.00000  Uiso   1.00
F776   F     0.08954   0.32782   0.74451   0.00000  Uiso   1.00
F777   F     0.00987   0.11951   0.70925   0.00000  Uiso   1.00
F778   F     0.32347   0.21384   0.79074   0.00000  Uiso   1.00
H779   H     0.27116   0.26394   0.53500   0.00000  Uiso   1.00
H780   H     0.06463   0.30542   0.89305   0.00000  Uiso   1.00
H781   H     0.08462   0.31792   0.83485   0.00000  Uiso   1.00
H782   H     0.12700   0.27703   0.86589   0.00000  Uiso   1.00
H783   H     0.17786   0.02978   0.85923   0.00000  Uiso   1.00
H784   H     0.15258   0.01938   0.91626   0.00000  Uiso   1.00
H785   H     0.06165   0.07102   0.89546   0.00000  Uiso   1.00
H786   H     0.10181   0.08458   0.84608   0.00000  Uiso   1.00
H787   H     0.24500   0.06393   0.92748   0.00000  Uiso   1.00
H788   H     0.31692   0.05821   0.94427   0.00000  Uiso   1.00
H789   H     0.26697   0.09470   0.97907   0.00000  Uiso   1.00
H790   H     0.08152   0.05476   0.96305   0.00000  Uiso   1.00
H791   H     0.20732   0.01382   0.99483   0.00000  Uiso   1.00
H792   H     0.27927   0.01012   0.51110   0.00000  Uiso   1.00
H793   H     0.30435   0.28930   0.94193   0.00000  Uiso   1.00
H794   H     0.23537   0.30177   0.92219   0.00000  Uiso   1.00
H795   H     0.10088   0.26359   0.57046   0.00000  Uiso   1.00
H796   H     0.02655   0.27779   0.57471   0.00000  Uiso   1.00
H797   H     0.05379   0.23561   0.52972   0.00000  Uiso   1.00
H798   H     0.04083   0.32011   0.99937   0.00000  Uiso   1.00
H799   H     0.11641   0.31186   0.50073   0.00000  Uiso   1.00
H800   H     0.03969   0.04445   0.56637   0.00000  Uiso   1.00
H801   H     0.15423   0.32048   0.65695   0.00000  Uiso   1.00
H802   H     0.11125   0.02747   0.57684   0.00000  Uiso   1.00
H803   H     0.22610   0.01174   0.66976   0.00000  Uiso   1.00
H804   H     0.18616   0.04601   0.63212   0.00000  Uiso   1.00
H805   H     0.26080   0.32927   0.59164   0.00000  Uiso   1.00
H806   H     0.19050   0.30701   0.57699   0.00000  Uiso   1.00
H807   H     0.22783   0.25003   0.65399   0.00000  Uiso   1.00
H808   H     0.28044   0.24665   0.61039   0.00000  Uiso   1.00
N809   N     0.31678   0.15265   0.73783   0.00000  Uiso   1.00
N810   N     0.01656   0.18068   0.76217   0.00000  Uiso   1.00
O811   O     0.12975   0.24619   0.75298   0.00000  Uiso   1.00
O812   O     0.20358   0.08714   0.74701   0.00000  Uiso   1.00
O813   O     0.22613   0.23721   0.74518   0.00000  Uiso   1.00
O814   O     0.10720   0.09613   0.75482   0.00000  Uiso   1.00
O815   O     0.11847   0.17117   0.81997   0.00000  Uiso   1.00
O816   O     0.21486   0.16216   0.68002   0.00000  Uiso   1.00
O817   O     0.21485   0.16219   0.81217   0.00000  Uiso   1.00
O818   O     0.11848   0.17115   0.68782   0.00000  Uiso   1.00
Zn819  Zn    0.10231   0.17266   0.75521   0.00000  Uiso   1.00
Zn820  Zn    0.23102   0.16067   0.74479   0.00000  Uiso   1.00
C821   C     0.51496   0.26473   0.75030   0.00000  Uiso   1.00
C822   C     0.53646   0.19974   0.90486   0.00000  Uiso   1.00
C823   C     0.49842   0.17123   0.61604   0.00000  Uiso   1.00
C824   C     0.50222   0.16182   0.88363   0.00000  Uiso   1.00
C825   C     0.53420   0.20821   0.59227   0.00000  Uiso   1.00
C826   C     0.47043   0.12206   0.90698   0.00000  Uiso   1.00
C827   C     0.53719   0.20394   0.54512   0.00000  Uiso   1.00
C828   C     0.47046   0.12375   0.95409   0.00000  Uiso   1.00
C829   C     0.50263   0.16517   0.52318   0.00000  Uiso   1.00
C830   C     0.50278   0.16412   0.97620   0.00000  Uiso   1.00
C831   C     0.46897   0.12696   0.54809   0.00000  Uiso   1.00
C832   C     0.48504   0.06871   0.75203   0.00000  Uiso   1.00
C833   C     0.53497   0.20359   0.95147   0.00000  Uiso   1.00
C834   C     0.57299   0.23864   0.51948   0.00000  Uiso   1.00
C835   C     0.43976   0.08515   0.97938   0.00000  Uiso   1.00
C836   C     0.56754   0.25236   0.61721   0.00000  Uiso   1.00
C837   C     0.55383   0.30803   0.60415   0.00000  Uiso   1.00
C838   C     0.52828   0.00672   0.64339   0.00000  Uiso   1.00
C839   C     0.43985   0.07672   0.88164   0.00000  Uiso   1.00
C840   C     0.47209   0.02625   0.88235   0.00000  Uiso   1.00
C841   C     0.43465   0.31213   0.86806   0.00000  Uiso   1.00
C842   C     0.59179   0.29414   0.95214   0.00000  Uiso   1.00
C843   C     0.56639   0.24414   0.97417   0.00000  Uiso   1.00
C844   C     0.58582   0.01071   0.98201   0.00000  Uiso   1.00
C845   C     0.60477   0.05984   0.95645   0.00000  Uiso   1.00
C846   C     0.41574   0.03574   0.55035   0.00000  Uiso   1.00
C847   C     0.40980   0.31811   0.52174   0.00000  Uiso   1.00
C848   C     0.39698   0.27081   0.55099   0.00000  Uiso   1.00
C849   C     0.44120   0.08395   0.52570   0.00000  Uiso   1.00
C850   C     0.52242   0.31897   0.75495   0.00000  Uiso   1.00
C851   C     0.47688   0.01454   0.75182   0.00000  Uiso   1.00
C852   C     0.50062   0.16499   0.83620   0.00000  Uiso   1.00
C853   C     0.49944   0.16837   0.66371   0.00000  Uiso   1.00
C854   C     0.46474   0.13289   0.59470   0.00000  Uiso   1.00
F855   F     0.42727   0.10223   0.62038   0.00000  Uiso   1.00
F856   F     0.57367   0.23033   0.87892   0.00000  Uiso   1.00
F857   F     0.57606   0.00588   0.76311   0.00000  Uiso   1.00
F858   F     0.42288   0.32782   0.74451   0.00000  Uiso   1.00
F859   F     0.34320   0.11951   0.70925   0.00000  Uiso   1.00
F860   F     0.65681   0.21384   0.79074   0.00000  Uiso   1.00
H861   H     0.60450   0.26394   0.53500   0.00000  Uiso   1.00
H862   H     0.39797   0.30542   0.89305   0.00000  Uiso   1.00
H863   H     0.41796   0.31792   0.83485   0.00000  Uiso   1.00
H864   H     0.46033   0.27703   0.86589   0.00000  Uiso   1.00
H865   H     0.51120   0.02978   0.85923   0.00000  Uiso   1.00
H866   H     0.48592   0.01938   0.91626   0.00000  Uiso   1.00
H867   H     0.39498   0.07102   0.89546   0.00000  Uiso   1.00
H868   H     0.43514   0.08458   0.84608   0.00000  Uiso   1.00
H869   H     0.57834   0.06393   0.92748   0.00000  Uiso   1.00
H870   H     0.65025   0.05821   0.94427   0.00000  Uiso   1.00
H871   H     0.60030   0.09470   0.97907   0.00000  Uiso   1.00
H872   H     0.41485   0.05476   0.96305   0.00000  Uiso   1.00
H873   H     0.54065   0.01382   0.99483   0.00000  Uiso   1.00
H874   H     0.61261   0.01012   0.51110   0.00000  Uiso   1.00
H875   H     0.63769   0.28930   0.94193   0.00000  Uiso   1.00
H876   H     0.56870   0.30177   0.92219   0.00000  Uiso   1.00
H877   H     0.43421   0.26359   0.57046   0.00000  Uiso   1.00
H878   H     0.35989   0.27779   0.57471   0.00000  Uiso   1.00
H879   H     0.38713   0.23561   0.52972   0.00000  Uiso   1.00
H880   H     0.37416   0.32011   0.99937   0.00000  Uiso   1.00
H881   H     0.44975   0.31186   0.50073   0.00000  Uiso   1.00
H882   H     0.37303   0.04445   0.56637   0.00000  Uiso   1.00
H883   H     0.48756   0.32048   0.65695   0.00000  Uiso   1.00
H884   H     0.44458   0.02747   0.57684   0.00000  Uiso   1.00
H885   H     0.55943   0.01174   0.66976   0.00000  Uiso   1.00
H886   H     0.51949   0.04601   0.63212   0.00000  Uiso   1.00
H887   H     0.59414   0.32927   0.59164   0.00000  Uiso   1.00
H888   H     0.52383   0.30701   0.57699   0.00000  Uiso   1.00
H889   H     0.56116   0.25003   0.65399   0.00000  Uiso   1.00
H890   H     0.61378   0.24665   0.61039   0.00000  Uiso   1.00
N891   N     0.65011   0.15265   0.73783   0.00000  Uiso   1.00
N892   N     0.34989   0.18068   0.76217   0.00000  Uiso   1.00
O893   O     0.46308   0.24619   0.75298   0.00000  Uiso   1.00
O894   O     0.53692   0.08714   0.74701   0.00000  Uiso   1.00
O895   O     0.55946   0.23721   0.74518   0.00000  Uiso   1.00
O896   O     0.44054   0.09613   0.75482   0.00000  Uiso   1.00
O897   O     0.45181   0.17117   0.81997   0.00000  Uiso   1.00
O898   O     0.54819   0.16216   0.68002   0.00000  Uiso   1.00
O899   O     0.54819   0.16219   0.81217   0.00000  Uiso   1.00
O900   O     0.45181   0.17115   0.68782   0.00000  Uiso   1.00
Zn901  Zn    0.43565   0.17266   0.75521   0.00000  Uiso   1.00
Zn902  Zn    0.56435   0.16067   0.74479   0.00000  Uiso   1.00
C903   C     0.84829   0.26473   0.75030   0.00000  Uiso   1.00
C904   C     0.86980   0.19974   0.90486   0.00000  Uiso   1.00
C905   C     0.83176   0.17123   0.61604   0.00000  Uiso   1.00
C906   C     0.83555   0.16182   0.88363   0.00000  Uiso   1.00
C907   C     0.86753   0.20821   0.59227   0.00000  Uiso   1.00
C908   C     0.80376   0.12206   0.90698   0.00000  Uiso   1.00
C909   C     0.87052   0.20394   0.54512   0.00000  Uiso   1.00
C910   C     0.80379   0.12375   0.95409   0.00000  Uiso   1.00
C911   C     0.83596   0.16517   0.52318   0.00000  Uiso   1.00
C912   C     0.83611   0.16412   0.97620   0.00000  Uiso   1.00
C913   C     0.80231   0.12696   0.54809   0.00000  Uiso   1.00
C914   C     0.81837   0.06871   0.75203   0.00000  Uiso   1.00
C915   C     0.86830   0.20359   0.95147   0.00000  Uiso   1.00
C916   C     0.90632   0.23864   0.51948   0.00000  Uiso   1.00
C917   C     0.77309   0.08515   0.97938   0.00000  Uiso   1.00
C918   C     0.90087   0.25236   0.61721   0.00000  Uiso   1.00
C919   C     0.88716   0.30803   0.60415   0.00000  Uiso   1.00
C920   C     0.86162   0.00672   0.64339   0.00000  Uiso   1.00
C921   C     0.77318   0.07672   0.88164   0.00000  Uiso   1.00
C922   C     0.80542   0.02625   0.88235   0.00000  Uiso   1.00
C923   C     0.76798   0.31213   0.86806   0.00000  Uiso   1.00
C924   C     0.92512   0.29414   0.95214   0.00000  Uiso   1.00
C925   C     0.89972   0.24414   0.97417   0.00000  Uiso   1.00
C926   C     0.91916   0.01071   0.98201   0.00000  Uiso   1.00
C927   C     0.93810   0.05984   0.95645   0.00000  Uiso   1.00
C928   C     0.74907   0.03574   0.55035   0.00000  Uiso   1.00
C929   C     0.74313   0.31811   0.52174   0.00000  Uiso   1.00
C930   C     0.73032   0.27081   0.55099   0.00000  Uiso   1.00
C931   C     0.77454   0.08395   0.52570   0.00000  Uiso   1.00
C932   C     0.85576   0.31897   0.75495   0.00000  Uiso   1.00
C933   C     0.81021   0.01454   0.75182   0.00000  Uiso   1.00
C934   C     0.83396   0.16499   0.83620   0.00000  Uiso   1.00
C935   C     0.83277   0.16837   0.66371   0.00000  Uiso   1.00
C936   C     0.79807   0.13289   0.59470   0.00000  Uiso   1.00
F937   F     0.76060   0.10223   0.62038   0.00000  Uiso   1.00
F938   F     0.90701   0.23033   0.87892   0.00000  Uiso   1.00
F939   F     0.90939   0.00588   0.76311   0.00000  Uiso   1.00
F940   F     0.75621   0.32782   0.74451   0.00000  Uiso   1.00
F941   F     0.67654   0.11951   0.70925   0.00000  Uiso   1.00
F942   F     0.99014   0.21384   0.79074   0.00000  Uiso   1.00
H943   H     0.93783   0.26394   0.53500   0.00000  Uiso   1.00
H944   H     0.73130   0.30542   0.89305   0.00000  Uiso   1.00
H945   H     0.75129   0.31792   0.83485   0.00000  Uiso   1.00
H946   H     0.79366   0.27703   0.86589   0.00000  Uiso   1.00
H947   H     0.84453   0.02978   0.85923   0.00000  Uiso   1.00
H948   H     0.81925   0.01938   0.91626   0.00000  Uiso   1.00
H949   H     0.72831   0.07102   0.89546   0.00000  Uiso   1.00
H950   H     0.76847   0.08458   0.84608   0.00000  Uiso   1.00
H951   H     0.91167   0.06393   0.92748   0.00000  Uiso   1.00
H952   H     0.98358   0.05821   0.94427   0.00000  Uiso   1.00
H953   H     0.93364   0.09470   0.97907   0.00000  Uiso   1.00
H954   H     0.74818   0.05476   0.96305   0.00000  Uiso   1.00
H955   H     0.87399   0.01382   0.99483   0.00000  Uiso   1.00
H956   H     0.94594   0.01012   0.51110   0.00000  Uiso   1.00
H957   H     0.97102   0.28930   0.94193   0.00000  Uiso   1.00
H958   H     0.90204   0.30177   0.92219   0.00000  Uiso   1.00
H959   H     0.76755   0.26359   0.57046   0.00000  Uiso   1.00
H960   H     0.69322   0.27779   0.57471   0.00000  Uiso   1.00
H961   H     0.72046   0.23561   0.52972   0.00000  Uiso   1.00
H962   H     0.70749   0.32011   0.99937   0.00000  Uiso   1.00
H963   H     0.78308   0.31186   0.50073   0.00000  Uiso   1.00
H964   H     0.70636   0.04445   0.56637   0.00000  Uiso   1.00
H965   H     0.82089   0.32048   0.65695   0.00000  Uiso   1.00
H966   H     0.77791   0.02747   0.57684   0.00000  Uiso   1.00
H967   H     0.89277   0.01174   0.66976   0.00000  Uiso   1.00
H968   H     0.85282   0.04601   0.63212   0.00000  Uiso   1.00
H969   H     0.92747   0.32927   0.59164   0.00000  Uiso   1.00
H970   H     0.85716   0.30701   0.57699   0.00000  Uiso   1.00
H971   H     0.89450   0.25003   0.65399   0.00000  Uiso   1.00
H972   H     0.94711   0.24665   0.61039   0.00000  Uiso   1.00
N973   N     0.98344   0.15265   0.73783   0.00000  Uiso   1.00
N974   N     0.68322   0.18068   0.76217   0.00000  Uiso   1.00
O975   O     0.79642   0.24619   0.75298   0.00000  Uiso   1.00
O976   O     0.87025   0.08714   0.74701   0.00000  Uiso   1.00
O977   O     0.89280   0.23721   0.74518   0.00000  Uiso   1.00
O978   O     0.77387   0.09613   0.75482   0.00000  Uiso   1.00
O979   O     0.78514   0.17117   0.81997   0.00000  Uiso   1.00
O980   O     0.88153   0.16216   0.68002   0.00000  Uiso   1.00
O981   O     0.88152   0.16219   0.81217   0.00000  Uiso   1.00
O982   O     0.78515   0.17115   0.68782   0.00000  Uiso   1.00
Zn983  Zn    0.76898   0.17266   0.75521   0.00000  Uiso   1.00
Zn984  Zn    0.89769   0.16067   0.74479   0.00000  Uiso   1.00
C985   C     0.18162   0.59807   0.75030   0.00000  Uiso   1.00
C986   C     0.20313   0.53308   0.90486   0.00000  Uiso   1.00
C987   C     0.16509   0.50456   0.61604   0.00000  Uiso   1.00
C988   C     0.16888   0.49516   0.88363   0.00000  Uiso   1.00
C989   C     0.20087   0.54155   0.59227   0.00000  Uiso   1.00
C990   C     0.13709   0.45540   0.90698   0.00000  Uiso   1.00
C991   C     0.20385   0.53727   0.54512   0.00000  Uiso   1.00
C992   C     0.13712   0.45708   0.95409   0.00000  Uiso   1.00
C993   C     0.16929   0.49850   0.52318   0.00000  Uiso   1.00
C994   C     0.16944   0.49745   0.97620   0.00000  Uiso   1.00
C995   C     0.13564   0.46029   0.54809   0.00000  Uiso   1.00
C996   C     0.15171   0.40204   0.75203   0.00000  Uiso   1.00
C997   C     0.20163   0.53692   0.95147   0.00000  Uiso   1.00
C998   C     0.23966   0.57198   0.51948   0.00000  Uiso   1.00
C999   C     0.10643   0.41849   0.97938   0.00000  Uiso   1.00
C1000  C     0.23420   0.58569   0.61721   0.00000  Uiso   1.00
C1001  C     0.22049   0.64136   0.60415   0.00000  Uiso   1.00
C1002  C     0.19495   0.34005   0.64339   0.00000  Uiso   1.00
C1003  C     0.10651   0.41006   0.88164   0.00000  Uiso   1.00
C1004  C     0.13876   0.35958   0.88235   0.00000  Uiso   1.00
C1005  C     0.10132   0.64546   0.86806   0.00000  Uiso   1.00
C1006  C     0.25845   0.62748   0.95214   0.00000  Uiso   1.00
C1007  C     0.23306   0.57748   0.97417   0.00000  Uiso   1.00
C1008  C     0.25249   0.34405   0.98201   0.00000  Uiso   1.00
C1009  C     0.27144   0.39318   0.95645   0.00000  Uiso   1.00
C1010  C     0.08240   0.36907   0.55035   0.00000  Uiso   1.00
C1011  C     0.07647   0.65144   0.52174   0.00000  Uiso   1.00
C1012  C     0.06365   0.60414   0.55099   0.00000  Uiso   1.00
C1013  C     0.10787   0.41728   0.52570   0.00000  Uiso   1.00
C1014  C     0.18909   0.65230   0.75495   0.00000  Uiso   1.00
C1015  C     0.14355   0.34788   0.75182   0.00000  Uiso   1.00
C1016  C     0.16729   0.49832   0.83620   0.00000  Uiso   1.00
C1017  C     0.16610   0.50171   0.66371   0.00000  Uiso   1.00
C1018  C     0.13140   0.46622   0.59470   0.00000  Uiso   1.00
F1019  F     0.09394   0.43556   0.62038   0.00000  Uiso   1.00
F1020  F     0.24034   0.56366   0.87892   0.00000  Uiso   1.00
F1021  F     0.24272   0.33922   0.76311   0.00000  Uiso   1.00
F1022  F     0.08954   0.66115   0.74451   0.00000  Uiso   1.00
F1023  F     0.00987   0.45285   0.70925   0.00000  Uiso   1.00
F1024  F     0.32347   0.54717   0.79074   0.00000  Uiso   1.00
H1025  H     0.27116   0.59728   0.53500   0.00000  Uiso   1.00
H1026  H     0.06463   0.63875   0.89305   0.00000  Uiso   1.00
H1027  H     0.08462   0.65125   0.83485   0.00000  Uiso   1.00
H1028  H     0.12700   0.61036   0.86589   0.00000  Uiso   1.00
H1029  H     0.17786   0.36312   0.85923   0.00000  Uiso   1.00
H1030  H     0.15258   0.35271   0.91626   0.00000  Uiso   1.00
H1031  H     0.06165   0.40436   0.89546   0.00000  Uiso   1.00
H1032  H     0.10181   0.41791   0.84608   0.00000  Uiso   1.00
H1033  H     0.24500   0.39726   0.92748   0.00000  Uiso   1.00
H1034  H     0.31692   0.39154   0.94427   0.00000  Uiso   1.00
H1035  H     0.26697   0.42803   0.97907   0.00000  Uiso   1.00
H1036  H     0.08152   0.38809   0.96305   0.00000  Uiso   1.00
H1037  H     0.20732   0.34716   0.99483   0.00000  Uiso   1.00
H1038  H     0.27927   0.34345   0.51110   0.00000  Uiso   1.00
H1039  H     0.30435   0.62264   0.94193   0.00000  Uiso   1.00
H1040  H     0.23537   0.63510   0.92219   0.00000  Uiso   1.00
H1041  H     0.10088   0.59693   0.57046   0.00000  Uiso   1.00
H1042  H     0.02655   0.61112   0.57471   0.00000  Uiso   1.00
H1043  H     0.05379   0.56894   0.52972   0.00000  Uiso   1.00
H1044  H     0.04083   0.65344   0.99937   0.00000  Uiso   1.00
H1045  H     0.11641   0.64520   0.50073   0.00000  Uiso   1.00
H1046  H     0.03969   0.37779   0.56637   0.00000  Uiso   1.00
H1047  H     0.15423   0.65381   0.65695   0.00000  Uiso   1.00
H1048  H     0.11125   0.36080   0.57684   0.00000  Uiso   1.00
H1049  H     0.22610   0.34507   0.66976   0.00000  Uiso   1.00
H1050  H     0.18616   0.37935   0.63212   0.00000  Uiso   1.00
H1051  H     0.26080   0.66260   0.59164   0.00000  Uiso   1.00
H1052  H     0.19050   0.64035   0.57699   0.00000  Uiso   1.00
H1053  H     0.22783   0.58336   0.65399   0.00000  Uiso   1.00
H1054  H     0.28044   0.57998   0.61039   0.00000  Uiso   1.00
N1055  N     0.31678   0.48598   0.73783   0.00000  Uiso   1.00
N1056  N     0.01656   0.51402   0.76217   0.00000  Uiso   1.00
O1057  O     0.12975   0.57952   0.75298   0.00000  Uiso   1.00
O1058  O     0.20358   0.42048   0.74701   0.00000  Uiso   1.00
O1059  O     0.22613   0.57054   0.74518   0.00000  Uiso   1.00
O1060  O     0.10720   0.42946   0.75482   0.00000  Uiso   1.00
O1061  O     0.11847   0.50450   0.81997   0.00000  Uiso   1.00
O1062  O     0.21486   0.49550   0.68002   0.00000  Uiso   1.00
O1063  O     0.21485   0.49552   0.81217   0.00000  Uiso   1.00
O1064  O     0.11848   0.50448   0.68782   0.00000  Uiso   1.00
Zn1065 Zn    0.10231   0.50600   0.75521   0.00000  Uiso   1.00
Zn1066 Zn    0.23102   0.49400   0.74479   0.00000  Uiso   1.00
C1067  C     0.51496   0.59807   0.75030   0.00000  Uiso   1.00
C1068  C     0.53646   0.53308   0.90486   0.00000  Uiso   1.00
C1069  C     0.49842   0.50456   0.61604   0.00000  Uiso   1.00
C1070  C     0.50222   0.49516   0.88363   0.00000  Uiso   1.00
C1071  C     0.53420   0.54155   0.59227   0.00000  Uiso   1.00
C1072  C     0.47043   0.45540   0.90698   0.00000  Uiso   1.00
C1073  C     0.53719   0.53727   0.54512   0.00000  Uiso   1.00
C1074  C     0.47046   0.45708   0.95409   0.00000  Uiso   1.00
C1075  C     0.50263   0.49850   0.52318   0.00000  Uiso   1.00
C1076  C     0.50278   0.49745   0.97620   0.00000  Uiso   1.00
C1077  C     0.46897   0.46029   0.54809   0.00000  Uiso   1.00
C1078  C     0.48504   0.40204   0.75203   0.00000  Uiso   1.00
C1079  C     0.53497   0.53692   0.95147   0.00000  Uiso   1.00
C1080  C     0.57299   0.57198   0.51948   0.00000  Uiso   1.00
C1081  C     0.43976   0.41849   0.97938   0.00000  Uiso   1.00
C1082  C     0.56754   0.58569   0.61721   0.00000  Uiso   1.00
C1083  C     0.55383   0.64136   0.60415   0.00000  Uiso   1.00
C1084  C     0.52828   0.34005   0.64339   0.00000  Uiso   1.00
C1085  C     0.43985   0.41006   0.88164   0.00000  Uiso   1.00
C1086  C     0.47209   0.35958   0.88235   0.00000  Uiso   1.00
C1087  C     0.43465   0.64546   0.86806   0.00000  Uiso   1.00
C1088  C     0.59179   0.62748   0.95214   0.00000  Uiso   1.00
C1089  C     0.56639   0.57748   0.97417   0.00000  Uiso   1.00
C1090  C     0.58582   0.34405   0.98201   0.00000  Uiso   1.00
C1091  C     0.60477   0.39318   0.95645   0.00000  Uiso   1.00
C1092  C     0.41574   0.36907   0.55035   0.00000  Uiso   1.00
C1093  C     0.40980   0.65144   0.52174   0.00000  Uiso   1.00
C1094  C     0.39698   0.60414   0.55099   0.00000  Uiso   1.00
C1095  C     0.44120   0.41728   0.52570   0.00000  Uiso   1.00
C1096  C     0.52242   0.65230   0.75495   0.00000  Uiso   1.00
C1097  C     0.47688   0.34788   0.75182   0.00000  Uiso   1.00
C1098  C     0.50062   0.49832   0.83620   0.00000  Uiso   1.00
C1099  C     0.49944   0.50171   0.66371   0.00000  Uiso   1.00
C1100  C     0.46474   0.46622   0.59470   0.00000  Uiso   1.00
F1101  F     0.42727   0.43556   0.62038   0.00000  Uiso   1.00
F1102  F     0.57367   0.56366   0.87892   0.00000  Uiso   1.00
F1103  F     0.57606   0.33922   0.76311   0.00000  Uiso   1.00
F1104  F     0.42288   0.66115   0.74451   0.00000  Uiso   1.00
F1105  F     0.34320   0.45285   0.70925   0.00000  Uiso   1.00
F1106  F     0.65681   0.54717   0.79074   0.00000  Uiso   1.00
H1107  H     0.60450   0.59728   0.53500   0.00000  Uiso   1.00
H1108  H     0.39797   0.63875   0.89305   0.00000  Uiso   1.00
H1109  H     0.41796   0.65125   0.83485   0.00000  Uiso   1.00
H1110  H     0.46033   0.61036   0.86589   0.00000  Uiso   1.00
H1111  H     0.51120   0.36312   0.85923   0.00000  Uiso   1.00
H1112  H     0.48592   0.35271   0.91626   0.00000  Uiso   1.00
H1113  H     0.39498   0.40436   0.89546   0.00000  Uiso   1.00
H1114  H     0.43514   0.41791   0.84608   0.00000  Uiso   1.00
H1115  H     0.57834   0.39726   0.92748   0.00000  Uiso   1.00
H1116  H     0.65025   0.39154   0.94427   0.00000  Uiso   1.00
H1117  H     0.60030   0.42803   0.97907   0.00000  Uiso   1.00
H1118  H     0.41485   0.38809   0.96305   0.00000  Uiso   1.00
H1119  H     0.54065   0.34716   0.99483   0.00000  Uiso   1.00
H1120  H     0.61261   0.34345   0.51110   0.00000  Uiso   1.00
H1121  H     0.63769   0.62264   0.94193   0.00000  Uiso   1.00
H1122  H     0.56870   0.63510   0.92219   0.00000  Uiso   1.00
H1123  H     0.43421   0.59693   0.57046   0.00000  Uiso   1.00
H1124  H     0.35989   0.61112   0.57471   0.00000  Uiso   1.00
H1125  H     0.38713   0.56894   0.52972   0.00000  Uiso   1.00
H1126  H     0.37416   0.65344   0.99937   0.00000  Uiso   1.00
H1127  H     0.44975   0.64520   0.50073   0.00000  Uiso   1.00
H1128  H     0.37303   0.37779   0.56637   0.00000  Uiso   1.00
H1129  H     0.48756   0.65381   0.65695   0.00000  Uiso   1.00
H1130  H     0.44458   0.36080   0.57684   0.00000  Uiso   1.00
H1131  H     0.55943   0.34507   0.66976   0.00000  Uiso   1.00
H1132  H     0.51949   0.37935   0.63212   0.00000  Uiso   1.00
H1133  H     0.59414   0.66260   0.59164   0.00000  Uiso   1.00
H1134  H     0.52383   0.64035   0.57699   0.00000  Uiso   1.00
H1135  H     0.56116   0.58336   0.65399   0.00000  Uiso   1.00
H1136  H     0.61378   0.57998   0.61039   0.00000  Uiso   1.00
N1137  N     0.65011   0.48598   0.73783   0.00000  Uiso   1.00
N1138  N     0.34989   0.51402   0.76217   0.00000  Uiso   1.00
O1139  O     0.46308   0.57952   0.75298   0.00000  Uiso   1.00
O1140  O     0.53692   0.42048   0.74701   0.00000  Uiso   1.00
O1141  O     0.55946   0.57054   0.74518   0.00000  Uiso   1.00
O1142  O     0.44054   0.42946   0.75482   0.00000  Uiso   1.00
O1143  O     0.45181   0.50450   0.81997   0.00000  Uiso   1.00
O1144  O     0.54819   0.49550   0.68002   0.00000  Uiso   1.00
O1145  O     0.54819   0.49552   0.81217   0.00000  Uiso   1.00
O1146  O     0.45181   0.50448   0.68782   0.00000  Uiso   1.00
Zn1147 Zn    0.43565   0.50600   0.75521   0.00000  Uiso   1.00
Zn1148 Zn    0.56435   0.49400   0.74479   0.00000  Uiso   1.00
C1149  C     0.84829   0.59807   0.75030   0.00000  Uiso   1.00
C1150  C     0.86980   0.53308   0.90486   0.00000  Uiso   1.00
C1151  C     0.83176   0.50456   0.61604   0.00000  Uiso   1.00
C1152  C     0.83555   0.49516   0.88363   0.00000  Uiso   1.00
C1153  C     0.86753   0.54155   0.59227   0.00000  Uiso   1.00
C1154  C     0.80376   0.45540   0.90698   0.00000  Uiso   1.00
C1155  C     0.87052   0.53727   0.54512   0.00000  Uiso   1.00
C1156  C     0.80379   0.45708   0.95409   0.00000  Uiso   1.00
C1157  C     0.83596   0.49850   0.52318   0.00000  Uiso   1.00
C1158  C     0.83611   0.49745   0.97620   0.00000  Uiso   1.00
C1159  C     0.80231   0.46029   0.54809   0.00000  Uiso   1.00
C1160  C     0.81837   0.40204   0.75203   0.00000  Uiso   1.00
C1161  C     0.86830   0.53692   0.95147   0.00000  Uiso   1.00
C1162  C     0.90632   0.57198   0.51948   0.00000  Uiso   1.00
C1163  C     0.77309   0.41849   0.97938   0.00000  Uiso   1.00
C1164  C     0.90087   0.58569   0.61721   0.00000  Uiso   1.00
C1165  C     0.88716   0.64136   0.60415   0.00000  Uiso   1.00
C1166  C     0.86162   0.34005   0.64339   0.00000  Uiso   1.00
C1167  C     0.77318   0.41006   0.88164   0.00000  Uiso   1.00
C1168  C     0.80542   0.35958   0.88235   0.00000  Uiso   1.00
C1169  C     0.76798   0.64546   0.86806   0.00000  Uiso   1.00
C1170  C     0.92512   0.62748   0.95214   0.00000  Uiso   1.00
C1171  C     0.89972   0.57748   0.97417   0.00000  Uiso   1.00
C1172  C     0.91916   0.34405   0.98201   0.00000  Uiso   1.00
C1173  C     0.93810   0.39318   0.95645   0.00000  Uiso   1.00
C1174  C     0.74907   0.36907   0.55035   0.00000  Uiso   1.00
C1175  C     0.74313   0.65144   0.52174   0.00000  Uiso   1.00
C1176  C     0.73032   0.60414   0.55099   0.00000  Uiso   1.00
C1177  C     0.77454   0.41728   0.52570   0.00000  Uiso   1.00
C1178  C     0.85576   0.65230   0.75495   0.00000  Uiso   1.00
C1179  C     0.81021   0.34788   0.75182   0.00000  Uiso   1.00
C1180  C     0.83396   0.49832   0.83620   0.00000  Uiso   1.00
C1181  C     0.83277   0.50171   0.66371   0.00000  Uiso   1.00
C1182  C     0.79807   0.46622   0.59470   0.00000  Uiso   1.00
F1183  F     0.76060   0.43556   0.62038   0.00000  Uiso   1.00
F1184  F     0.90701   0.56366   0.87892   0.00000  Uiso   1.00
F1185  F     0.90939   0.33922   0.76311   0.00000  Uiso   1.00
F1186  F     0.75621   0.66115   0.74451   0.00000  Uiso   1.00
F1187  F     0.67654   0.45285   0.70925   0.00000  Uiso   1.00
F1188  F     0.99014   0.54717   0.79074   0.00000  Uiso   1.00
H1189  H     0.93783   0.59728   0.53500   0.00000  Uiso   1.00
H1190  H     0.73130   0.63875   0.89305   0.00000  Uiso   1.00
H1191  H     0.75129   0.65125   0.83485   0.00000  Uiso   1.00
H1192  H     0.79366   0.61036   0.86589   0.00000  Uiso   1.00
H1193  H     0.84453   0.36312   0.85923   0.00000  Uiso   1.00
H1194  H     0.81925   0.35271   0.91626   0.00000  Uiso   1.00
H1195  H     0.72831   0.40436   0.89546   0.00000  Uiso   1.00
H1196  H     0.76847   0.41791   0.84608   0.00000  Uiso   1.00
H1197  H     0.91167   0.39726   0.92748   0.00000  Uiso   1.00
H1198  H     0.98358   0.39154   0.94427   0.00000  Uiso   1.00
H1199  H     0.93364   0.42803   0.97907   0.00000  Uiso   1.00
H1200  H     0.74818   0.38809   0.96305   0.00000  Uiso   1.00
H1201  H     0.87399   0.34716   0.99483   0.00000  Uiso   1.00
H1202  H     0.94594   0.34345   0.51110   0.00000  Uiso   1.00
H1203  H     0.97102   0.62264   0.94193   0.00000  Uiso   1.00
H1204  H     0.90204   0.63510   0.92219   0.00000  Uiso   1.00
H1205  H     0.76755   0.59693   0.57046   0.00000  Uiso   1.00
H1206  H     0.69322   0.61112   0.57471   0.00000  Uiso   1.00
H1207  H     0.72046   0.56894   0.52972   0.00000  Uiso   1.00
H1208  H     0.70749   0.65344   0.99937   0.00000  Uiso   1.00
H1209  H     0.78308   0.64520   0.50073   0.00000  Uiso   1.00
H1210  H     0.70636   0.37779   0.56637   0.00000  Uiso   1.00
H1211  H     0.82089   0.65381   0.65695   0.00000  Uiso   1.00
H1212  H     0.77791   0.36080   0.57684   0.00000  Uiso   1.00
H1213  H     0.89277   0.34507   0.66976   0.00000  Uiso   1.00
H1214  H     0.85282   0.37935   0.63212   0.00000  Uiso   1.00
H1215  H     0.92747   0.66260   0.59164   0.00000  Uiso   1.00
H1216  H     0.85716   0.64035   0.57699   0.00000  Uiso   1.00
H1217  H     0.89450   0.58336   0.65399   0.00000  Uiso   1.00
H1218  H     0.94711   0.57998   0.61039   0.00000  Uiso   1.00
N1219  N     0.98344   0.48598   0.73783   0.00000  Uiso   1.00
N1220  N     0.68322   0.51402   0.76217   0.00000  Uiso   1.00
O1221  O     0.79642   0.57952   0.75298   0.00000  Uiso   1.00
O1222  O     0.87025   0.42048   0.74701   0.00000  Uiso   1.00
O1223  O     0.89280   0.57054   0.74518   0.00000  Uiso   1.00
O1224  O     0.77387   0.42946   0.75482   0.00000  Uiso   1.00
O1225  O     0.78514   0.50450   0.81997   0.00000  Uiso   1.00
O1226  O     0.88153   0.49550   0.68002   0.00000  Uiso   1.00
O1227  O     0.88152   0.49552   0.81217   0.00000  Uiso   1.00
O1228  O     0.78515   0.50448   0.68782   0.00000  Uiso   1.00
Zn1229 Zn    0.76898   0.50600   0.75521   0.00000  Uiso   1.00
Zn1230 Zn    0.89769   0.49400   0.74479   0.00000  Uiso   1.00
C1231  C     0.18162   0.93140   0.75030   0.00000  Uiso   1.00
C1232  C     0.20313   0.86641   0.90486   0.00000  Uiso   1.00
C1233  C     0.16509   0.83790   0.61604   0.00000  Uiso   1.00
C1234  C     0.16888   0.82849   0.88363   0.00000  Uiso   1.00
C1235  C     0.20087   0.87488   0.59227   0.00000  Uiso   1.00
C1236  C     0.13709   0.78873   0.90698   0.00000  Uiso   1.00
C1237  C     0.20385   0.87061   0.54512   0.00000  Uiso   1.00
C1238  C     0.13712   0.79041   0.95409   0.00000  Uiso   1.00
C1239  C     0.16929   0.83183   0.52318   0.00000  Uiso   1.00
C1240  C     0.16944   0.83079   0.97620   0.00000  Uiso   1.00
C1241  C     0.13564   0.79363   0.54809   0.00000  Uiso   1.00
C1242  C     0.15171   0.73537   0.75203   0.00000  Uiso   1.00
C1243  C     0.20163   0.87026   0.95147   0.00000  Uiso   1.00
C1244  C     0.23966   0.90531   0.51948   0.00000  Uiso   1.00
C1245  C     0.10643   0.75182   0.97938   0.00000  Uiso   1.00
C1246  C     0.23420   0.91902   0.61721   0.00000  Uiso   1.00
C1247  C     0.22049   0.97470   0.60415   0.00000  Uiso   1.00
C1248  C     0.19495   0.67338   0.64339   0.00000  Uiso   1.00
C1249  C     0.10651   0.74339   0.88164   0.00000  Uiso   1.00
C1250  C     0.13876   0.69292   0.88235   0.00000  Uiso   1.00
C1251  C     0.10132   0.97879   0.86806   0.00000  Uiso   1.00
C1252  C     0.25845   0.96081   0.95214   0.00000  Uiso   1.00
C1253  C     0.23306   0.91081   0.97417   0.00000  Uiso   1.00
C1254  C     0.25249   0.67738   0.98201   0.00000  Uiso   1.00
C1255  C     0.27144   0.72651   0.95645   0.00000  Uiso   1.00
C1256  C     0.08240   0.70240   0.55035   0.00000  Uiso   1.00
C1257  C     0.07647   0.98477   0.52174   0.00000  Uiso   1.00
C1258  C     0.06365   0.93748   0.55099   0.00000  Uiso   1.00
C1259  C     0.10787   0.75062   0.52570   0.00000  Uiso   1.00
C1260  C     0.18909   0.98564   0.75495   0.00000  Uiso   1.00
C1261  C     0.14355   0.68121   0.75182   0.00000  Uiso   1.00
C1262  C     0.16729   0.83165   0.83620   0.00000  Uiso   1.00
C1263  C     0.16610   0.83504   0.66371   0.00000  Uiso   1.00
C1264  C     0.13140   0.79955   0.59470   0.00000  Uiso   1.00
F1265  F     0.09394   0.76890   0.62038   0.00000  Uiso   1.00
F1266  F     0.24034   0.89699   0.87892   0.00000  Uiso   1.00
F1267  F     0.24272   0.67255   0.76311   0.00000  Uiso   1.00
F1268  F     0.08954   0.99449   0.74451   0.00000  Uiso   1.00
F1269  F     0.00987   0.78618   0.70925   0.00000  Uiso   1.00
F1270  F     0.32347   0.88050   0.79074   0.00000  Uiso   1.00
H1271  H     0.27116   0.93061   0.53500   0.00000  Uiso   1.00
H1272  H     0.06463   0.97209   0.89305   0.00000  Uiso   1.00
H1273  H     0.08462   0.98458   0.83485   0.00000  Uiso   1.00
H1274  H     0.12700   0.94369   0.86589   0.00000  Uiso   1.00
H1275  H     0.17786   0.69645   0.85923   0.00000  Uiso   1.00
H1276  H     0.15258   0.68605   0.91626   0.00000  Uiso   1.00
H1277  H     0.06165   0.73769   0.89546   0.00000  Uiso   1.00
H1278  H     0.10181   0.75125   0.84608   0.00000  Uiso   1.00
H1279  H     0.24500   0.73059   0.92748   0.00000  Uiso   1.00
H1280  H     0.31692   0.72488   0.94427   0.00000  Uiso   1.00
H1281  H     0.26697   0.76136   0.97907   0.00000  Uiso   1.00
H1282  H     0.08152   0.72142   0.96305   0.00000  Uiso   1.00
H1283  H     0.20732   0.68049   0.99483   0.00000  Uiso   1.00
H1284  H     0.27927   0.67678   0.51110   0.00000  Uiso   1.00
H1285  H     0.30435   0.95597   0.94193   0.00000  Uiso   1.00
H1286  H     0.23537   0.96843   0.92219   0.00000  Uiso   1.00
H1287  H     0.10088   0.93026   0.57046   0.00000  Uiso   1.00
H1288  H     0.02655   0.94446   0.57471   0.00000  Uiso   1.00
H1289  H     0.05379   0.90228   0.52972   0.00000  Uiso   1.00
H1290  H     0.04083   0.98677   0.99937   0.00000  Uiso   1.00
H1291  H     0.11641   0.97853   0.50073   0.00000  Uiso   1.00
H1292  H     0.03969   0.71112   0.56637   0.00000  Uiso   1.00
H1293  H     0.15423   0.98714   0.65695   0.00000  Uiso   1.00
H1294  H     0.11125   0.69414   0.57684   0.00000  Uiso   1.00
H1295  H     0.22610   0.67840   0.66976   0.00000  Uiso   1.00
H1296  H     0.18616   0.71268   0.63212   0.00000  Uiso   1.00
H1297  H     0.26080   0.99594   0.59164   0.00000  Uiso   1.00
H1298  H     0.19050   0.97368   0.57699   0.00000  Uiso   1.00
H1299  H     0.22783   0.91669   0.65399   0.00000  Uiso   1.00
H1300  H     0.28044   0.91331   0.61039   0.00000  Uiso   1.00
N1301  N     0.31678   0.81932   0.73783   0.00000  Uiso   1.00
N1302  N     0.01656   0.84735   0.76217   0.00000  Uiso   1.00
O1303  O     0.12975   0.91286   0.75298   0.00000  Uiso   1.00
O1304  O     0.20358   0.75381   0.74701   0.00000  Uiso   1.00
O1305  O     0.22613   0.90387   0.74518   0.00000  Uiso   1.00
O1306  O     0.10720   0.76279   0.75482   0.00000  Uiso   1.00
O1307  O     0.11847   0.83784   0.81997   0.00000  Uiso   1.00
O1308  O     0.21486   0.82883   0.68002   0.00000  Uiso   1.00
O1309  O     0.21485   0.82885   0.81217   0.00000  Uiso   1.00
O1310  O     0.11848   0.83781   0.68782   0.00000  Uiso   1.00
Zn1311 Zn    0.10231   0.83933   0.75521   0.00000  Uiso   1.00
Zn1312 Zn    0.23102   0.82734   0.74479   0.00000  Uiso   1.00
C1313  C     0.51496   0.93140   0.75030   0.00000  Uiso   1.00
C1314  C     0.53646   0.86641   0.90486   0.00000  Uiso   1.00
C1315  C     0.49842   0.83790   0.61604   0.00000  Uiso   1.00
C1316  C     0.50222   0.82849   0.88363   0.00000  Uiso   1.00
C1317  C     0.53420   0.87488   0.59227   0.00000  Uiso   1.00
C1318  C     0.47043   0.78873   0.90698   0.00000  Uiso   1.00
C1319  C     0.53719   0.87061   0.54512   0.00000  Uiso   1.00
C1320  C     0.47046   0.79041   0.95409   0.00000  Uiso   1.00
C1321  C     0.50263   0.83183   0.52318   0.00000  Uiso   1.00
C1322  C     0.50278   0.83079   0.97620   0.00000  Uiso   1.00
C1323  C     0.46897   0.79363   0.54809   0.00000  Uiso   1.00
C1324  C     0.48504   0.73537   0.75203   0.00000  Uiso   1.00
C1325  C     0.53497   0.87026   0.95147   0.00000  Uiso   1.00
C1326  C     0.57299   0.90531   0.51948   0.00000  Uiso   1.00
C1327  C     0.43976   0.75182   0.97938   0.00000  Uiso   1.00
C1328  C     0.56754   0.91902   0.61721   0.00000  Uiso   1.00
C1329  C     0.55383   0.97470   0.60415   0.00000  Uiso   1.00
C1330  C     0.52828   0.67338   0.64339   0.00000  Uiso   1.00
C1331  C     0.43985   0.74339   0.88164   0.00000  Uiso   1.00
C1332  C     0.47209   0.69292   0.88235   0.00000  Uiso   1.00
C1333  C     0.43465   0.97879   0.86806   0.00000  Uiso   1.00
C1334  C     0.59179   0.96081   0.95214   0.00000  Uiso   1.00
C1335  C     0.56639   0.91081   0.97417   0.00000  Uiso   1.00
C1336  C     0.58582   0.67738   0.98201   0.00000  Uiso   1.00
C1337  C     0.60477   0.72651   0.95645   0.00000  Uiso   1.00
C1338  C     0.41574   0.70240   0.55035   0.00000  Uiso   1.00
C1339  C     0.40980   0.98477   0.52174   0.00000  Uiso   1.00
C1340  C     0.39698   0.93748   0.55099   0.00000  Uiso   1.00
C1341  C     0.44120   0.75062   0.52570   0.00000  Uiso   1.00
C1342  C     0.52242   0.98564   0.75495   0.00000  Uiso   1.00
C1343  C     0.47688   0.68121   0.75182   0.00000  Uiso   1.00
C1344  C     0.50062   0.83165   0.83620   0.00000  Uiso   1.00
C1345  C     0.49944   0.83504   0.66371   0.00000  Uiso   1.00
C1346  C     0.46474   0.79955   0.59470   0.00000  Uiso   1.00
F1347  F     0.42727   0.76890   0.62038   0.00000  Uiso   1.00
F1348  F     0.57367   0.89699   0.87892   0.00000  Uiso   1.00
F1349  F     0.57606   0.67255   0.76311   0.00000  Uiso   1.00
F1350  F     0.42288   0.99449   0.74451   0.00000  Uiso   1.00
F1351  F     0.34320   0.78618   0.70925   0.00000  Uiso   1.00
F1352  F     0.65681   0.88050   0.79074   0.00000  Uiso   1.00
H1353  H     0.60450   0.93061   0.53500   0.00000  Uiso   1.00
H1354  H     0.39797   0.97209   0.89305   0.00000  Uiso   1.00
H1355  H     0.41796   0.98458   0.83485   0.00000  Uiso   1.00
H1356  H     0.46033   0.94369   0.86589   0.00000  Uiso   1.00
H1357  H     0.51120   0.69645   0.85923   0.00000  Uiso   1.00
H1358  H     0.48592   0.68605   0.91626   0.00000  Uiso   1.00
H1359  H     0.39498   0.73769   0.89546   0.00000  Uiso   1.00
H1360  H     0.43514   0.75125   0.84608   0.00000  Uiso   1.00
H1361  H     0.57834   0.73059   0.92748   0.00000  Uiso   1.00
H1362  H     0.65025   0.72488   0.94427   0.00000  Uiso   1.00
H1363  H     0.60030   0.76136   0.97907   0.00000  Uiso   1.00
H1364  H     0.41485   0.72142   0.96305   0.00000  Uiso   1.00
H1365  H     0.54065   0.68049   0.99483   0.00000  Uiso   1.00
H1366  H     0.61261   0.67678   0.51110   0.00000  Uiso   1.00
H1367  H     0.63769   0.95597   0.94193   0.00000  Uiso   1.00
H1368  H     0.56870   0.96843   0.92219   0.00000  Uiso   1.00
H1369  H     0.43421   0.93026   0.57046   0.00000  Uiso   1.00
H1370  H     0.35989   0.94446   0.57471   0.00000  Uiso   1.00
H1371  H     0.38713   0.90228   0.52972   0.00000  Uiso   1.00
H1372  H     0.37416   0.98677   0.99937   0.00000  Uiso   1.00
H1373  H     0.44975   0.97853   0.50073   0.00000  Uiso   1.00
H1374  H     0.37303   0.71112   0.56637   0.00000  Uiso   1.00
H1375  H     0.48756   0.98714   0.65695   0.00000  Uiso   1.00
H1376  H     0.44458   0.69414   0.57684   0.00000  Uiso   1.00
H1377  H     0.55943   0.67840   0.66976   0.00000  Uiso   1.00
H1378  H     0.51949   0.71268   0.63212   0.00000  Uiso   1.00
H1379  H     0.59414   0.99594   0.59164   0.00000  Uiso   1.00
H1380  H     0.52383   0.97368   0.57699   0.00000  Uiso   1.00
H1381  H     0.56116   0.91669   0.65399   0.00000  Uiso   1.00
H1382  H     0.61378   0.91331   0.61039   0.00000  Uiso   1.00
N1383  N     0.65011   0.81932   0.73783   0.00000  Uiso   1.00
N1384  N     0.34989   0.84735   0.76217   0.00000  Uiso   1.00
O1385  O     0.46308   0.91286   0.75298   0.00000  Uiso   1.00
O1386  O     0.53692   0.75381   0.74701   0.00000  Uiso   1.00
O1387  O     0.55946   0.90387   0.74518   0.00000  Uiso   1.00
O1388  O     0.44054   0.76279   0.75482   0.00000  Uiso   1.00
O1389  O     0.45181   0.83784   0.81997   0.00000  Uiso   1.00
O1390  O     0.54819   0.82883   0.68002   0.00000  Uiso   1.00
O1391  O     0.54819   0.82885   0.81217   0.00000  Uiso   1.00
O1392  O     0.45181   0.83781   0.68782   0.00000  Uiso   1.00
Zn1393 Zn    0.43565   0.83933   0.75521   0.00000  Uiso   1.00
Zn1394 Zn    0.56435   0.82734   0.74479   0.00000  Uiso   1.00
C1395  C     0.84829   0.93140   0.75030   0.00000  Uiso   1.00
C1396  C     0.86980   0.86641   0.90486   0.00000  Uiso   1.00
C1397  C     0.83176   0.83790   0.61604   0.00000  Uiso   1.00
C1398  C     0.83555   0.82849   0.88363   0.00000  Uiso   1.00
C1399  C     0.86753   0.87488   0.59227   0.00000  Uiso   1.00
C1400  C     0.80376   0.78873   0.90698   0.00000  Uiso   1.00
C1401  C     0.87052   0.87061   0.54512   0.00000  Uiso   1.00
C1402  C     0.80379   0.79041   0.95409   0.00000  Uiso   1.00
C1403  C     0.83596   0.83183   0.52318   0.00000  Uiso   1.00
C1404  C     0.83611   0.83079   0.97620   0.00000  Uiso   1.00
C1405  C     0.80231   0.79363   0.54809   0.00000  Uiso   1.00
C1406  C     0.81837   0.73537   0.75203   0.00000  Uiso   1.00
C1407  C     0.86830   0.87026   0.95147   0.00000  Uiso   1.00
C1408  C     0.90632   0.90531   0.51948   0.00000  Uiso   1.00
C1409  C     0.77309   0.75182   0.97938   0.00000  Uiso   1.00
C1410  C     0.90087   0.91902   0.61721   0.00000  Uiso   1.00
C1411  C     0.88716   0.97470   0.60415   0.00000  Uiso   1.00
C1412  C     0.86162   0.67338   0.64339   0.00000  Uiso   1.00
C1413  C     0.77318   0.74339   0.88164   0.00000  Uiso   1.00
C1414  C     0.80542   0.69292   0.88235   0.00000  Uiso   1.00
C1415  C     0.76798   0.97879   0.86806   0.00000  Uiso   1.00
C1416  C     0.92512   0.96081   0.95214   0.00000  Uiso   1.00
C1417  C     0.89972   0.91081   0.97417   0.00000  Uiso   1.00
C1418  C     0.91916   0.67738   0.98201   0.00000  Uiso   1.00
C1419  C     0.93810   0.72651   0.95645   0.00000  Uiso   1.00
C1420  C     0.74907   0.70240   0.55035   0.00000  Uiso   1.00
C1421  C     0.74313   0.98477   0.52174   0.00000  Uiso   1.00
C1422  C     0.73032   0.93748   0.55099   0.00000  Uiso   1.00
C1423  C     0.77454   0.75062   0.52570   0.00000  Uiso   1.00
C1424  C     0.85576   0.98564   0.75495   0.00000  Uiso   1.00
C1425  C     0.81021   0.68121   0.75182   0.00000  Uiso   1.00
C1426  C     0.83396   0.83165   0.83620   0.00000  Uiso   1.00
C1427  C     0.83277   0.83504   0.66371   0.00000  Uiso   1.00
C1428  C     0.79807   0.79955   0.59470   0.00000  Uiso   1.00
F1429  F     0.76060   0.76890   0.62038   0.00000  Uiso   1.00
F1430  F     0.90701   0.89699   0.87892   0.00000  Uiso   1.00
F1431  F     0.90939   0.67255   0.76311   0.00000  Uiso   1.00
F1432  F     0.75621   0.99449   0.74451   0.00000  Uiso   1.00
F1433  F     0.67654   0.78618   0.70925   0.00000  Uiso   1.00
F1434  F     0.99014   0.88050   0.79074   0.00000  Uiso   1.00
H1435  H     0.93783   0.93061   0.53500   0.00000  Uiso   1.00
H1436  H     0.73130   0.97209   0.89305   0.00000  Uiso   1.00
H1437  H     0.75129   0.98458   0.83485   0.00000  Uiso   1.00
H1438  H     0.79366   0.94369   0.86589   0.00000  Uiso   1.00
H1439  H     0.84453   0.69645   0.85923   0.00000  Uiso   1.00
H1440  H     0.81925   0.68605   0.91626   0.00000  Uiso   1.00
H1441  H     0.72831   0.73769   0.89546   0.00000  Uiso   1.00
H1442  H     0.76847   0.75125   0.84608   0.00000  Uiso   1.00
H1443  H     0.91167   0.73059   0.92748   0.00000  Uiso   1.00
H1444  H     0.98358   0.72488   0.94427   0.00000  Uiso   1.00
H1445  H     0.93364   0.76136   0.97907   0.00000  Uiso   1.00
H1446  H     0.74818   0.72142   0.96305   0.00000  Uiso   1.00
H1447  H     0.87399   0.68049   0.99483   0.00000  Uiso   1.00
H1448  H     0.94594   0.67678   0.51110   0.00000  Uiso   1.00
H1449  H     0.97102   0.95597   0.94193   0.00000  Uiso   1.00
H1450  H     0.90204   0.96843   0.92219   0.00000  Uiso   1.00
H1451  H     0.76755   0.93026   0.57046   0.00000  Uiso   1.00
H1452  H     0.69322   0.94446   0.57471   0.00000  Uiso   1.00
H1453  H     0.72046   0.90228   0.52972   0.00000  Uiso   1.00
H1454  H     0.70749   0.98677   0.99937   0.00000  Uiso   1.00
H1455  H     0.78308   0.97853   0.50073   0.00000  Uiso   1.00
H1456  H     0.70636   0.71112   0.56637   0.00000  Uiso   1.00
H1457  H     0.82089   0.98714   0.65695   0.00000  Uiso   1.00
H1458  H     0.77791   0.69414   0.57684   0.00000  Uiso   1.00
H1459  H     0.89277   0.67840   0.66976   0.00000  Uiso   1.00
H1460  H     0.85282   0.71268   0.63212   0.00000  Uiso   1.00
H1461  H     0.92747   0.99594   0.59164   0.00000  Uiso   1.00
H1462  H     0.85716   0.97368   0.57699   0.00000  Uiso   1.00
H1463  H     0.89450   0.91669   0.65399   0.00000  Uiso   1.00
H1464  H     0.94711   0.91331   0.61039   0.00000  Uiso   1.00
N1465  N     0.98344   0.81932   0.73783   0.00000  Uiso   1.00
N1466  N     0.68322   0.84735   0.76217   0.00000  Uiso   1.00
O1467  O     0.79642   0.91286   0.75298   0.00000  Uiso   1.00
O1468  O     0.87025   0.75381   0.74701   0.00000  Uiso   1.00
O1469  O     0.89280   0.90387   0.74518   0.00000  Uiso   1.00
O1470  O     0.77387   0.76279   0.75482   0.00000  Uiso   1.00
O1471  O     0.78514   0.83784   0.81997   0.00000  Uiso   1.00
O1472  O     0.88153   0.82883   0.68002   0.00000  Uiso   1.00
O1473  O     0.88152   0.82885   0.81217   0.00000  Uiso   1.00
O1474  O     0.78515   0.83781   0.68782   0.00000  Uiso   1.00
Zn1475 Zn    0.76898   0.83933   0.75521   0.00000  Uiso   1.00
Zn1476 Zn    0.89769   0.82734   0.74479   0.00000  Uiso   1.00
loop_
_geom_bond_atom_site_label_1
_geom_bond_atom_site_label_2
_geom_bond_distance
_geom_bond_site_symmetry_2
_ccdc_geom_bond_type
C1     O75     1.291   .     A
C1     O73     1.277   .     A
C1     C30     1.397   .     S
C2     C13     1.394   .     A
C2     C4      1.390   .     A
C2     F36     1.360   .     S
C3     C33     1.433   .     S
C3     C34     1.391   .     A
C3     C5      1.408   .     A
C4     C6      1.405   .     A
C4     C32     1.428   .     S
C5     C16     1.540   .     S
C5     C7      1.410   .     A
C6     C19     1.537   .     S
C6     C8      1.410   .     A
C7     C14     1.400   .     A
C7     C9      1.418   .     A
C8     C15     1.402   .     A
C8     C10     1.420   .     A
C9     C11     1.421   .     A
C9     C748    1.405   1_554 S
C10    C13     1.425   .     A
C10    C747    1.405   .     S
C11    C34     1.396   .     A
C11    C29     1.421   .     A
C12    O74     1.279   .     A
C12    O76     1.287   .     A
C12    C31     1.393   .     S
C13    C23     1.421   .     A
C14    H41     1.073   .     S
C14    C761    1.388   1_554 S
C15    H52     1.072   .     S
C15    C767    1.391   .     S
C16    C17     1.551   .     S
C16    H70     1.106   .     S
C16    H69     1.105   .     S
C17    H67     1.112   .     S
C17    H68     1.107   .     S
C17    C264    1.522   .     S
C18    H65     1.109   .     S
C18    H66     1.109   .     S
C18    C509    1.522   1_545 S
C18    H555    1.110   1_545 S
C19    C20     1.538   .     S
C19    H47     1.107   .     S
C19    H48     1.103   .     S
C20    H45     1.112   .     S
C20    H46     1.108   .     S
C20    C513    1.526   1_545 S
C21    H43     1.109   .     S
C21    H44     1.110   .     S
C21    H42     1.111   .     S
C21    C266    1.526   .     S
C22    H56     1.105   .     S
C22    H55     1.111   .     S
C22    C23     1.533   .     S
C22    C270    1.546   .     S
C23    C752    1.388   .     S
C24    C25     1.525   .     S
C24    H53     1.107   .     S
C24    C514    1.546   1_545 S
C24    H792    1.107   .     S
C25    H50     1.105   .     S
C25    H51     1.110   .     S
C25    H49     1.109   .     S
C26    H64     1.108   .     S
C26    H62     1.112   .     S
C26    C29     1.532   .     S
C26    C519    1.545   1_545 S
C27    H61     1.109   .     S
C27    C28     1.524   .     S
C27    C272    1.545   .     S
C27    H798    1.108   1_554 S
C28    H57     1.107   .     S
C28    H59     1.111   .     S
C28    H58     1.104   .     S
C29    C753    1.391   1_554 S
C30    C277    1.344   .     S
C30    F283    1.365   .     S
C31    C522    1.344   1_545 S
C31    F530    1.366   1_545 S
C32    O77     1.291   .     A
C32    O79     1.289   .     A
C33    O80     1.292   .     A
C33    O78     1.291   .     A
C34    F35     1.360   .     S
F37    C522    1.365   1_545 S
F38    C277    1.366   .     S
F39    N235    1.335   1_455 S
F40    N154    1.335   .     S
H54    C762    1.107   1_554 S
H60    C765    1.108   .     S
H63    C264    1.110   .     S
N71    Zn82    2.026   .     S
N71    F121    1.335   .     S
N71    N154    1.275   .     S
N72    Zn81    2.026   .     S
N72    N235    1.275   1_455 S
N72    F204    1.335   1_455 S
O73    Zn81    1.961   .     S
O74    Zn82    1.961   .     S
O75    Zn82    1.975   .     S
O76    Zn81    1.975   .     S
O77    Zn81    2.001   .     S
O78    Zn82    2.001   .     S
O79    Zn82    2.027   .     S
O80    Zn81    2.027   .     S
C83    O157    1.291   .     A
C83    O155    1.277   .     A
C83    C112    1.397   .     S
C84    C95     1.394   .     A
C84    C86     1.390   .     A
C84    F118    1.360   .     S
C85    C115    1.433   .     S
C85    C116    1.391   .     A
C85    C87     1.408   .     A
C86    C88     1.405   .     A
C86    C114    1.428   .     S
C87    C98     1.540   .     S
C87    C89     1.410   .     A
C88    C101    1.537   .     S
C88    C90     1.410   .     A
C89    C96     1.400   .     A
C89    C91     1.418   .     A
C90    C97     1.402   .     A
C90    C92     1.420   .     A
C91    C93     1.421   .     A
C91    C830    1.405   1_554 S
C92    C95     1.425   .     A
C92    C829    1.405   .     S
C93    C116    1.396   .     A
C93    C111    1.421   .     A
C94    O156    1.279   .     A
C94    O158    1.287   .     A
C94    C113    1.393   .     S
C95    C105    1.421   .     A
C96    H123    1.073   .     S
C96    C843    1.388   1_554 S
C97    H134    1.072   .     S
C97    C849    1.391   .     S
C98    C99     1.551   .     S
C98    H152    1.106   .     S
C98    H151    1.105   .     S
C99    H149    1.112   .     S
C99    H150    1.107   .     S
C99    C346    1.522   .     S
C100   H147    1.109   .     S
C100   H148    1.109   .     S
C100   C591    1.522   1_545 S
C100   H637    1.110   1_545 S
C101   C102    1.538   .     S
C101   H129    1.107   .     S
C101   H130    1.103   .     S
C102   H127    1.112   .     S
C102   H128    1.108   .     S
C102   C595    1.526   1_545 S
C103   H125    1.109   .     S
C103   H126    1.110   .     S
C103   H124    1.111   .     S
C103   C348    1.526   .     S
C104   H138    1.105   .     S
C104   H137    1.111   .     S
C104   C105    1.533   .     S
C104   C352    1.546   .     S
C105   C834    1.388   .     S
C106   C107    1.525   .     S
C106   H135    1.107   .     S
C106   C596    1.546   1_545 S
C106   H874    1.107   .     S
C107   H132    1.105   .     S
C107   H133    1.110   .     S
C107   H131    1.109   .     S
C108   H146    1.108   .     S
C108   H144    1.112   .     S
C108   C111    1.532   .     S
C108   C601    1.545   1_545 S
C109   H143    1.109   .     S
C109   C110    1.524   .     S
C109   C354    1.545   .     S
C109   H880    1.108   1_554 S
C110   H139    1.107   .     S
C110   H141    1.111   .     S
C110   H140    1.104   .     S
C111   C835    1.391   1_554 S
C112   C359    1.344   .     S
C112   F365    1.365   .     S
C113   C604    1.344   1_545 S
C113   F612    1.366   1_545 S
C114   O159    1.291   .     A
C114   O161    1.289   .     A
C115   O162    1.292   .     A
C115   O160    1.291   .     A
C116   F117    1.360   .     S
F119   C604    1.365   1_545 S
F120   C359    1.366   .     S
F122   N236    1.335   .     S
H136   C844    1.107   1_554 S
H142   C847    1.108   .     S
H145   C346    1.110   .     S
N153   Zn164   2.026   .     S
N153   F203    1.335   .     S
N153   N236    1.275   .     S
N154   Zn163   2.026   .     S
O155   Zn163   1.961   .     S
O156   Zn164   1.961   .     S
O157   Zn164   1.975   .     S
O158   Zn163   1.975   .     S
O159   Zn163   2.001   .     S
O160   Zn164   2.001   .     S
O161   Zn164   2.027   .     S
O162   Zn163   2.027   .     S
C165   O239    1.291   .     A
C165   O237    1.277   .     A
C165   C194    1.397   .     S
C166   C177    1.394   .     A
C166   C168    1.390   .     A
C166   F200    1.360   .     S
C167   C197    1.433   .     S
C167   C198    1.391   .     A
C167   C169    1.408   .     A
C168   C170    1.405   .     A
C168   C196    1.428   .     S
C169   C180    1.540   .     S
C169   C171    1.410   .     A
C170   C183    1.537   .     S
C170   C172    1.410   .     A
C171   C178    1.400   .     A
C171   C173    1.418   .     A
C172   C179    1.402   .     A
C172   C174    1.420   .     A
C173   C175    1.421   .     A
C173   C912    1.405   1_554 S
C174   C177    1.425   .     A
C174   C911    1.405   .     S
C175   C198    1.396   .     A
C175   C193    1.421   .     A
C176   O238    1.279   .     A
C176   O240    1.287   .     A
C176   C195    1.393   .     S
C177   C187    1.421   .     A
C178   H205    1.073   .     S
C178   C925    1.388   1_554 S
C179   H216    1.072   .     S
C179   C931    1.391   .     S
C180   C181    1.551   .     S
C180   H234    1.106   .     S
C180   H233    1.105   .     S
C181   H231    1.112   .     S
C181   H232    1.107   .     S
C181   C428    1.522   .     S
C182   H229    1.109   .     S
C182   H230    1.109   .     S
C182   C673    1.522   1_545 S
C182   H719    1.110   1_545 S
C183   C184    1.538   .     S
C183   H211    1.107   .     S
C183   H212    1.103   .     S
C184   H209    1.112   .     S
C184   H210    1.108   .     S
C184   C677    1.526   1_545 S
C185   H207    1.109   .     S
C185   H208    1.110   .     S
C185   H206    1.111   .     S
C185   C430    1.526   .     S
C186   H220    1.105   .     S
C186   H219    1.111   .     S
C186   C187    1.533   .     S
C186   C434    1.546   .     S
C187   C916    1.388   .     S
C188   C189    1.525   .     S
C188   H217    1.107   .     S
C188   C678    1.546   1_545 S
C188   H956    1.107   .     S
C189   H214    1.105   .     S
C189   H215    1.110   .     S
C189   H213    1.109   .     S
C190   H228    1.108   .     S
C190   H226    1.112   .     S
C190   C193    1.532   .     S
C190   C683    1.545   1_545 S
C191   H225    1.109   .     S
C191   C192    1.524   .     S
C191   C436    1.545   .     S
C191   H962    1.108   1_554 S
C192   H221    1.107   .     S
C192   H223    1.111   .     S
C192   H222    1.104   .     S
C193   C917    1.391   1_554 S
C194   C441    1.344   .     S
C194   F447    1.365   .     S
C195   C686    1.344   1_545 S
C195   F694    1.366   1_545 S
C196   O241    1.291   .     A
C196   O243    1.289   .     A
C197   O244    1.292   .     A
C197   O242    1.291   .     A
C198   F199    1.360   .     S
F201   C686    1.365   1_545 S
F202   C441    1.366   .     S
F204   N72     1.335   1_655 S
H218   C926    1.107   1_554 S
H224   C929    1.108   .     S
H227   C428    1.110   .     S
N235   Zn246   2.026   .     S
N235   F39     1.335   1_655 S
N235   N72     1.275   1_655 S
N236   Zn245   2.026   .     S
O237   Zn245   1.961   .     S
O238   Zn246   1.961   .     S
O239   Zn246   1.975   .     S
O240   Zn245   1.975   .     S
O241   Zn245   2.001   .     S
O242   Zn246   2.001   .     S
O243   Zn246   2.027   .     S
O244   Zn245   2.027   .     S
C247   O321    1.291   .     A
C247   O319    1.277   .     A
C247   C276    1.397   .     S
C248   C259    1.394   .     A
C248   C250    1.390   .     A
C248   F282    1.360   .     S
C249   C279    1.433   .     S
C249   C280    1.391   .     A
C249   C251    1.408   .     A
C250   C252    1.405   .     A
C250   C278    1.428   .     S
C251   C262    1.540   .     S
C251   C253    1.410   .     A
C252   C265    1.537   .     S
C252   C254    1.410   .     A
C253   C260    1.400   .     A
C253   C255    1.418   .     A
C254   C261    1.402   .     A
C254   C256    1.420   .     A
C255   C257    1.421   .     A
C255   C994    1.405   1_554 S
C256   C259    1.425   .     A
C256   C993    1.405   .     S
C257   C280    1.396   .     A
C257   C275    1.421   .     A
C258   O320    1.279   .     A
C258   O322    1.287   .     A
C258   C277    1.393   .     S
C259   C269    1.421   .     A
C260   H287    1.073   .     S
C260   C1007   1.388   1_554 S
C261   H298    1.072   .     S
C261   C1013   1.391   .     S
C262   C263    1.551   .     S
C262   H316    1.106   .     S
C262   H315    1.105   .     S
C263   H313    1.112   .     S
C263   H314    1.107   .     S
C263   C510    1.522   .     S
C264   H311    1.109   .     S
C264   H312    1.109   .     S
C265   C266    1.538   .     S
C265   H293    1.107   .     S
C265   H294    1.103   .     S
C266   H291    1.112   .     S
C266   H292    1.108   .     S
C267   H289    1.109   .     S
C267   H290    1.110   .     S
C267   H288    1.111   .     S
C267   C512    1.526   .     S
C268   H302    1.105   .     S
C268   H301    1.111   .     S
C268   C269    1.533   .     S
C268   C516    1.546   .     S
C269   C998    1.388   .     S
C270   C271    1.525   .     S
C270   H299    1.107   .     S
C270   H1038   1.107   .     S
C271   H296    1.105   .     S
C271   H297    1.110   .     S
C271   H295    1.109   .     S
C272   H310    1.108   .     S
C272   H308    1.112   .     S
C272   C275    1.532   .     S
C273   H307    1.109   .     S
C273   C274    1.524   .     S
C273   C518    1.545   .     S
C273   H1044   1.108   1_554 S
C274   H303    1.107   .     S
C274   H305    1.111   .     S
C274   H304    1.104   .     S
C275   C999    1.391   1_554 S
C276   C523    1.344   .     S
C276   F529    1.365   .     S
C278   O323    1.291   .     A
C278   O325    1.289   .     A
C279   O326    1.292   .     A
C279   O324    1.291   .     A
C280   F281    1.360   .     S
F284   C523    1.366   .     S
F285   N481    1.335   1_455 S
F286   N400    1.335   .     S
H300   C1008   1.107   1_554 S
H306   C1011   1.108   .     S
H309   C510    1.110   .     S
N317   Zn328   2.026   .     S
N317   F367    1.335   .     S
N317   N400    1.275   .     S
N318   Zn327   2.026   .     S
N318   N481    1.275   1_455 S
N318   F450    1.335   1_455 S
O319   Zn327   1.961   .     S
O320   Zn328   1.961   .     S
O321   Zn328   1.975   .     S
O322   Zn327   1.975   .     S
O323   Zn327   2.001   .     S
O324   Zn328   2.001   .     S
O325   Zn328   2.027   .     S
O326   Zn327   2.027   .     S
C329   O403    1.291   .     A
C329   O401    1.277   .     A
C329   C358    1.397   .     S
C330   C341    1.394   .     A
C330   C332    1.390   .     A
C330   F364    1.360   .     S
C331   C361    1.433   .     S
C331   C362    1.391   .     A
C331   C333    1.408   .     A
C332   C334    1.405   .     A
C332   C360    1.428   .     S
C333   C344    1.540   .     S
C333   C335    1.410   .     A
C334   C347    1.537   .     S
C334   C336    1.410   .     A
C335   C342    1.400   .     A
C335   C337    1.418   .     A
C336   C343    1.402   .     A
C336   C338    1.420   .     A
C337   C339    1.421   .     A
C337   C1076   1.405   1_554 S
C338   C341    1.425   .     A
C338   C1075   1.405   .     S
C339   C362    1.396   .     A
C339   C357    1.421   .     A
C340   O402    1.279   .     A
C340   O404    1.287   .     A
C340   C359    1.393   .     S
C341   C351    1.421   .     A
C342   H369    1.073   .     S
C342   C1089   1.388   1_554 S
C343   H380    1.072   .     S
C343   C1095   1.391   .     S
C344   C345    1.551   .     S
C344   H398    1.106   .     S
C344   H397    1.105   .     S
C345   H395    1.112   .     S
C345   H396    1.107   .     S
C345   C592    1.522   .     S
C346   H393    1.109   .     S
C346   H394    1.109   .     S
C347   C348    1.538   .     S
C347   H375    1.107   .     S
C347   H376    1.103   .     S
C348   H373    1.112   .     S
C348   H374    1.108   .     S
C349   H371    1.109   .     S
C349   H372    1.110   .     S
C349   H370    1.111   .     S
C349   C594    1.526   .     S
C350   H384    1.105   .     S
C350   H383    1.111   .     S
C350   C351    1.533   .     S
C350   C598    1.546   .     S
C351   C1080   1.388   .     S
C352   C353    1.525   .     S
C352   H381    1.107   .     S
C352   H1120   1.107   .     S
C353   H378    1.105   .     S
C353   H379    1.110   .     S
C353   H377    1.109   .     S
C354   H392    1.108   .     S
C354   H390    1.112   .     S
C354   C357    1.532   .     S
C355   H389    1.109   .     S
C355   C356    1.524   .     S
C355   C600    1.545   .     S
C355   H1126   1.108   1_554 S
C356   H385    1.107   .     S
C356   H387    1.111   .     S
C356   H386    1.104   .     S
C357   C1081   1.391   1_554 S
C358   C605    1.344   .     S
C358   F611    1.365   .     S
C360   O405    1.291   .     A
C360   O407    1.289   .     A
C361   O408    1.292   .     A
C361   O406    1.291   .     A
C362   F363    1.360   .     S
F366   C605    1.366   .     S
F368   N482    1.335   .     S
H382   C1090   1.107   1_554 S
H388   C1093   1.108   .     S
H391   C592    1.110   .     S
N399   Zn410   2.026   .     S
N399   F449    1.335   .     S
N399   N482    1.275   .     S
N400   Zn409   2.026   .     S
O401   Zn409   1.961   .     S
O402   Zn410   1.961   .     S
O403   Zn410   1.975   .     S
O404   Zn409   1.975   .     S
O405   Zn409   2.001   .     S
O406   Zn410   2.001   .     S
O407   Zn410   2.027   .     S
O408   Zn409   2.027   .     S
C411   O485    1.291   .     A
C411   O483    1.277   .     A
C411   C440    1.397   .     S
C412   C423    1.394   .     A
C412   C414    1.390   .     A
C412   F446    1.360   .     S
C413   C443    1.433   .     S
C413   C444    1.391   .     A
C413   C415    1.408   .     A
C414   C416    1.405   .     A
C414   C442    1.428   .     S
C415   C426    1.540   .     S
C415   C417    1.410   .     A
C416   C429    1.537   .     S
C416   C418    1.410   .     A
C417   C424    1.400   .     A
C417   C419    1.418   .     A
C418   C425    1.402   .     A
C418   C420    1.420   .     A
C419   C421    1.421   .     A
C419   C1158   1.405   1_554 S
C420   C423    1.425   .     A
C420   C1157   1.405   .     S
C421   C444    1.396   .     A
C421   C439    1.421   .     A
C422   O484    1.279   .     A
C422   O486    1.287   .     A
C422   C441    1.393   .     S
C423   C433    1.421   .     A
C424   H451    1.073   .     S
C424   C1171   1.388   1_554 S
C425   H462    1.072   .     S
C425   C1177   1.391   .     S
C426   C427    1.551   .     S
C426   H480    1.106   .     S
C426   H479    1.105   .     S
C427   H477    1.112   .     S
C427   H478    1.107   .     S
C427   C674    1.522   .     S
C428   H475    1.109   .     S
C428   H476    1.109   .     S
C429   C430    1.538   .     S
C429   H457    1.107   .     S
C429   H458    1.103   .     S
C430   H455    1.112   .     S
C430   H456    1.108   .     S
C431   H453    1.109   .     S
C431   H454    1.110   .     S
C431   H452    1.111   .     S
C431   C676    1.526   .     S
C432   H466    1.105   .     S
C432   H465    1.111   .     S
C432   C433    1.533   .     S
C432   C680    1.546   .     S
C433   C1162   1.388   .     S
C434   C435    1.525   .     S
C434   H463    1.107   .     S
C434   H1202   1.107   .     S
C435   H460    1.105   .     S
C435   H461    1.110   .     S
C435   H459    1.109   .     S
C436   H474    1.108   .     S
C436   H472    1.112   .     S
C436   C439    1.532   .     S
C437   H471    1.109   .     S
C437   C438    1.524   .     S
C437   C682    1.545   .     S
C437   H1208   1.108   1_554 S
C438   H467    1.107   .     S
C438   H469    1.111   .     S
C438   H468    1.104   .     S
C439   C1163   1.391   1_554 S
C440   C687    1.344   .     S
C440   F693    1.365   .     S
C442   O487    1.291   .     A
C442   O489    1.289   .     A
C443   O490    1.292   .     A
C443   O488    1.291   .     A
C444   F445    1.360   .     S
F448   C687    1.366   .     S
F450   N318    1.335   1_655 S
H464   C1172   1.107   1_554 S
H470   C1175   1.108   .     S
H473   C674    1.110   .     S
N481   Zn492   2.026   .     S
N481   F285    1.335   1_655 S
N481   N318    1.275   1_655 S
N482   Zn491   2.026   .     S
O483   Zn491   1.961   .     S
O484   Zn492   1.961   .     S
O485   Zn492   1.975   .     S
O486   Zn491   1.975   .     S
O487   Zn491   2.001   .     S
O488   Zn492   2.001   .     S
O489   Zn492   2.027   .     S
O490   Zn491   2.027   .     S
C493   O567    1.291   .     A
C493   O565    1.277   .     A
C493   C522    1.397   .     S
C494   C505    1.394   .     A
C494   C496    1.390   .     A
C494   F528    1.360   .     S
C495   C525    1.433   .     S
C495   C526    1.391   .     A
C495   C497    1.408   .     A
C496   C498    1.405   .     A
C496   C524    1.428   .     S
C497   C508    1.540   .     S
C497   C499    1.410   .     A
C498   C511    1.537   .     S
C498   C500    1.410   .     A
C499   C506    1.400   .     A
C499   C501    1.418   .     A
C500   C507    1.402   .     A
C500   C502    1.420   .     A
C501   C503    1.421   .     A
C501   C1240   1.405   1_554 S
C502   C505    1.425   .     A
C502   C1239   1.405   .     S
C503   C526    1.396   .     A
C503   C521    1.421   .     A
C504   O566    1.279   .     A
C504   O568    1.287   .     A
C504   C523    1.393   .     S
C505   C515    1.421   .     A
C506   H533    1.073   .     S
C506   C1253   1.388   1_554 S
C507   H544    1.072   .     S
C507   C1259   1.391   .     S
C508   C509    1.551   .     S
C508   H562    1.106   .     S
C508   H561    1.105   .     S
C509   H559    1.112   .     S
C509   H560    1.107   .     S
C509   C18     1.522   1_565 S
C510   H557    1.109   .     S
C510   H558    1.109   .     S
C511   C512    1.538   .     S
C511   H539    1.107   .     S
C511   H540    1.103   .     S
C512   H537    1.112   .     S
C512   H538    1.108   .     S
C513   H535    1.109   .     S
C513   H536    1.110   .     S
C513   H534    1.111   .     S
C513   C20     1.526   1_565 S
C514   H548    1.105   .     S
C514   H547    1.111   .     S
C514   C515    1.533   .     S
C514   C24     1.546   1_565 S
C515   C1244   1.388   .     S
C516   C517    1.525   .     S
C516   H545    1.107   .     S
C516   H1284   1.107   .     S
C517   H542    1.105   .     S
C517   H543    1.110   .     S
C517   H541    1.109   .     S
C518   H556    1.108   .     S
C518   H554    1.112   .     S
C518   C521    1.532   .     S
C519   H553    1.109   .     S
C519   C520    1.524   .     S
C519   C26     1.545   1_565 S
C519   H1290   1.108   1_554 S
C520   H549    1.107   .     S
C520   H551    1.111   .     S
C520   H550    1.104   .     S
C521   C1245   1.391   1_554 S
C522   C31     1.344   1_565 S
C522   F37     1.365   1_565 S
C524   O569    1.291   .     A
C524   O571    1.289   .     A
C525   O572    1.292   .     A
C525   O570    1.291   .     A
C526   F527    1.360   .     S
F530   C31     1.366   1_565 S
F531   N727    1.335   1_455 S
F532   N646    1.335   .     S
H546   C1254   1.107   1_554 S
H552   C1257   1.108   .     S
H555   C18     1.110   1_565 S
N563   Zn574   2.026   .     S
N563   F613    1.335   .     S
N563   N646    1.275   .     S
N564   Zn573   2.026   .     S
N564   N727    1.275   1_455 S
N564   F696    1.335   1_455 S
O565   Zn573   1.961   .     S
O566   Zn574   1.961   .     S
O567   Zn574   1.975   .     S
O568   Zn573   1.975   .     S
O569   Zn573   2.001   .     S
O570   Zn574   2.001   .     S
O571   Zn574   2.027   .     S
O572   Zn573   2.027   .     S
C575   O649    1.291   .     A
C575   O647    1.277   .     A
C575   C604    1.397   .     S
C576   C587    1.394   .     A
C576   C578    1.390   .     A
C576   F610    1.360   .     S
C577   C607    1.433   .     S
C577   C608    1.391   .     A
C577   C579    1.408   .     A
C578   C580    1.405   .     A
C578   C606    1.428   .     S
C579   C590    1.540   .     S
C579   C581    1.410   .     A
C580   C593    1.537   .     S
C580   C582    1.410   .     A
C581   C588    1.400   .     A
C581   C583    1.418   .     A
C582   C589    1.402   .     A
C582   C584    1.420   .     A
C583   C585    1.421   .     A
C583   C1322   1.405   1_554 S
C584   C587    1.425   .     A
C584   C1321   1.405   .     S
C585   C608    1.396   .     A
C585   C603    1.421   .     A
C586   O648    1.279   .     A
C586   O650    1.287   .     A
C586   C605    1.393   .     S
C587   C597    1.421   .     A
C588   H615    1.073   .     S
C588   C1335   1.388   1_554 S
C589   H626    1.072   .     S
C589   C1341   1.391   .     S
C590   C591    1.551   .     S
C590   H644    1.106   .     S
C590   H643    1.105   .     S
C591   H641    1.112   .     S
C591   H642    1.107   .     S
C591   C100    1.522   1_565 S
C592   H639    1.109   .     S
C592   H640    1.109   .     S
C593   C594    1.538   .     S
C593   H621    1.107   .     S
C593   H622    1.103   .     S
C594   H619    1.112   .     S
C594   H620    1.108   .     S
C595   H617    1.109   .     S
C595   H618    1.110   .     S
C595   H616    1.111   .     S
C595   C102    1.526   1_565 S
C596   H630    1.105   .     S
C596   H629    1.111   .     S
C596   C597    1.533   .     S
C596   C106    1.546   1_565 S
C597   C1326   1.388   .     S
C598   C599    1.525   .     S
C598   H627    1.107   .     S
C598   H1366   1.107   .     S
C599   H624    1.105   .     S
C599   H625    1.110   .     S
C599   H623    1.109   .     S
C600   H638    1.108   .     S
C600   H636    1.112   .     S
C600   C603    1.532   .     S
C601   H635    1.109   .     S
C601   C602    1.524   .     S
C601   C108    1.545   1_565 S
C601   H1372   1.108   1_554 S
C602   H631    1.107   .     S
C602   H633    1.111   .     S
C602   H632    1.104   .     S
C603   C1327   1.391   1_554 S
C604   C113    1.344   1_565 S
C604   F119    1.365   1_565 S
C606   O651    1.291   .     A
C606   O653    1.289   .     A
C607   O654    1.292   .     A
C607   O652    1.291   .     A
C608   F609    1.360   .     S
F612   C113    1.366   1_565 S
F614   N728    1.335   .     S
H628   C1336   1.107   1_554 S
H634   C1339   1.108   .     S
H637   C100    1.110   1_565 S
N645   Zn656   2.026   .     S
N645   F695    1.335   .     S
N645   N728    1.275   .     S
N646   Zn655   2.026   .     S
O647   Zn655   1.961   .     S
O648   Zn656   1.961   .     S
O649   Zn656   1.975   .     S
O650   Zn655   1.975   .     S
O651   Zn655   2.001   .     S
O652   Zn656   2.001   .     S
O653   Zn656   2.027   .     S
O654   Zn655   2.027   .     S
C657   O731    1.291   .     A
C657   O729    1.277   .     A
C657   C686    1.397   .     S
C658   C669    1.394   .     A
C658   C660    1.390   .     A
C658   F692    1.360   .     S
C659   C689    1.433   .     S
C659   C690    1.391   .     A
C659   C661    1.408   .     A
C660   C662    1.405   .     A
C660   C688    1.428   .     S
C661   C672    1.540   .     S
C661   C663    1.410   .     A
C662   C675    1.537   .     S
C662   C664    1.410   .     A
C663   C670    1.400   .     A
C663   C665    1.418   .     A
C664   C671    1.402   .     A
C664   C666    1.420   .     A
C665   C667    1.421   .     A
C665   C1404   1.405   1_554 S
C666   C669    1.425   .     A
C666   C1403   1.405   .     S
C667   C690    1.396   .     A
C667   C685    1.421   .     A
C668   O730    1.279   .     A
C668   O732    1.287   .     A
C668   C687    1.393   .     S
C669   C679    1.421   .     A
C670   H697    1.073   .     S
C670   C1417   1.388   1_554 S
C671   H708    1.072   .     S
C671   C1423   1.391   .     S
C672   C673    1.551   .     S
C672   H726    1.106   .     S
C672   H725    1.105   .     S
C673   H723    1.112   .     S
C673   H724    1.107   .     S
C673   C182    1.522   1_565 S
C674   H721    1.109   .     S
C674   H722    1.109   .     S
C675   C676    1.538   .     S
C675   H703    1.107   .     S
C675   H704    1.103   .     S
C676   H701    1.112   .     S
C676   H702    1.108   .     S
C677   H699    1.109   .     S
C677   H700    1.110   .     S
C677   H698    1.111   .     S
C677   C184    1.526   1_565 S
C678   H712    1.105   .     S
C678   H711    1.111   .     S
C678   C679    1.533   .     S
C678   C188    1.546   1_565 S
C679   C1408   1.388   .     S
C680   C681    1.525   .     S
C680   H709    1.107   .     S
C680   H1448   1.107   .     S
C681   H706    1.105   .     S
C681   H707    1.110   .     S
C681   H705    1.109   .     S
C682   H720    1.108   .     S
C682   H718    1.112   .     S
C682   C685    1.532   .     S
C683   H717    1.109   .     S
C683   C684    1.524   .     S
C683   C190    1.545   1_565 S
C683   H1454   1.108   1_554 S
C684   H713    1.107   .     S
C684   H715    1.111   .     S
C684   H714    1.104   .     S
C685   C1409   1.391   1_554 S
C686   C195    1.344   1_565 S
C686   F201    1.365   1_565 S
C688   O733    1.291   .     A
C688   O735    1.289   .     A
C689   O736    1.292   .     A
C689   O734    1.291   .     A
C690   F691    1.360   .     S
F694   C195    1.366   1_565 S
F696   N564    1.335   1_655 S
H710   C1418   1.107   1_554 S
H716   C1421   1.108   .     S
H719   C182    1.110   1_565 S
N727   Zn738   2.026   .     S
N727   F531    1.335   1_655 S
N727   N564    1.275   1_655 S
N728   Zn737   2.026   .     S
O729   Zn737   1.961   .     S
O730   Zn738   1.961   .     S
O731   Zn738   1.975   .     S
O732   Zn737   1.975   .     S
O733   Zn737   2.001   .     S
O734   Zn738   2.001   .     S
O735   Zn738   2.027   .     S
O736   Zn737   2.027   .     S
C739   O813    1.291   .     A
C739   O811    1.277   .     A
C739   C768    1.397   .     S
C740   C751    1.394   .     A
C740   C742    1.390   .     A
C740   F774    1.360   .     S
C741   C771    1.433   .     S
C741   C772    1.391   .     A
C741   C743    1.408   .     A
C742   C744    1.405   .     A
C742   C770    1.428   .     S
C743   C754    1.540   .     S
C743   C745    1.410   .     A
C744   C757    1.537   .     S
C744   C746    1.410   .     A
C745   C752    1.400   .     A
C745   C747    1.418   .     A
C746   C753    1.402   .     A
C746   C748    1.420   .     A
C747   C749    1.421   .     A
C748   C751    1.425   .     A
C748   C9      1.405   1_556 S
C749   C772    1.396   .     A
C749   C767    1.421   .     A
C750   O812    1.279   .     A
C750   O814    1.287   .     A
C750   C769    1.393   .     S
C751   C761    1.421   .     A
C752   H779    1.073   .     S
C753   H790    1.072   .     S
C753   C29     1.391   1_556 S
C754   C755    1.551   .     S
C754   H808    1.106   .     S
C754   H807    1.105   .     S
C755   H805    1.112   .     S
C755   H806    1.107   .     S
C755   C1002   1.522   .     S
C756   H803    1.109   .     S
C756   H804    1.109   .     S
C756   C1247   1.522   1_545 S
C756   H1293   1.110   1_545 S
C757   C758    1.538   .     S
C757   H785    1.107   .     S
C757   H786    1.103   .     S
C758   H783    1.112   .     S
C758   H784    1.108   .     S
C758   C1251   1.526   1_545 S
C759   H781    1.109   .     S
C759   H782    1.110   .     S
C759   H780    1.111   .     S
C759   C1004   1.526   .     S
C760   H794    1.105   .     S
C760   H793    1.111   .     S
C760   C761    1.533   .     S
C760   C1008   1.546   .     S
C761   C14     1.388   1_556 S
C762   C763    1.525   .     S
C762   H791    1.107   .     S
C762   C1252   1.546   1_545 S
C762   H54     1.107   1_556 S
C763   H788    1.105   .     S
C763   H789    1.110   .     S
C763   H787    1.109   .     S
C764   H802    1.108   .     S
C764   H800    1.112   .     S
C764   C767    1.532   .     S
C764   C1257   1.545   1_545 S
C765   H799    1.109   .     S
C765   C766    1.524   .     S
C765   C1010   1.545   .     S
C766   H795    1.107   .     S
C766   H797    1.111   .     S
C766   H796    1.104   .     S
C768   C1015   1.344   .     S
C768   F1021   1.365   .     S
C769   C1260   1.344   1_545 S
C769   F1268   1.366   1_545 S
C770   O815    1.291   .     A
C770   O817    1.289   .     A
C771   O818    1.292   .     A
C771   O816    1.291   .     A
C772   F773    1.360   .     S
F775   C1260   1.365   1_545 S
F776   C1015   1.366   .     S
F777   N973    1.335   1_455 S
F778   N892    1.335   .     S
H798   C27     1.108   1_556 S
H801   C1002   1.110   .     S
N809   Zn820   2.026   .     S
N809   F859    1.335   .     S
N809   N892    1.275   .     S
N810   Zn819   2.026   .     S
N810   N973    1.275   1_455 S
N810   F942    1.335   1_455 S
O811   Zn819   1.961   .     S
O812   Zn820   1.961   .     S
O813   Zn820   1.975   .     S
O814   Zn819   1.975   .     S
O815   Zn819   2.001   .     S
O816   Zn820   2.001   .     S
O817   Zn820   2.027   .     S
O818   Zn819   2.027   .     S
C821   O895    1.291   .     A
C821   O893    1.277   .     A
C821   C850    1.397   .     S
C822   C833    1.394   .     A
C822   C824    1.390   .     A
C822   F856    1.360   .     S
C823   C853    1.433   .     S
C823   C854    1.391   .     A
C823   C825    1.408   .     A
C824   C826    1.405   .     A
C824   C852    1.428   .     S
C825   C836    1.540   .     S
C825   C827    1.410   .     A
C826   C839    1.537   .     S
C826   C828    1.410   .     A
C827   C834    1.400   .     A
C827   C829    1.418   .     A
C828   C835    1.402   .     A
C828   C830    1.420   .     A
C829   C831    1.421   .     A
C830   C833    1.425   .     A
C830   C91     1.405   1_556 S
C831   C854    1.396   .     A
C831   C849    1.421   .     A
C832   O894    1.279   .     A
C832   O896    1.287   .     A
C832   C851    1.393   .     S
C833   C843    1.421   .     A
C834   H861    1.073   .     S
C835   H872    1.072   .     S
C835   C111    1.391   1_556 S
C836   C837    1.551   .     S
C836   H890    1.106   .     S
C836   H889    1.105   .     S
C837   H887    1.112   .     S
C837   H888    1.107   .     S
C837   C1084   1.522   .     S
C838   H885    1.109   .     S
C838   H886    1.109   .     S
C838   C1329   1.522   1_545 S
C838   H1375   1.110   1_545 S
C839   C840    1.538   .     S
C839   H867    1.107   .     S
C839   H868    1.103   .     S
C840   H865    1.112   .     S
C840   H866    1.108   .     S
C840   C1333   1.526   1_545 S
C841   H863    1.109   .     S
C841   H864    1.110   .     S
C841   H862    1.111   .     S
C841   C1086   1.526   .     S
C842   H876    1.105   .     S
C842   H875    1.111   .     S
C842   C843    1.533   .     S
C842   C1090   1.546   .     S
C843   C96     1.388   1_556 S
C844   C845    1.525   .     S
C844   H873    1.107   .     S
C844   C1334   1.546   1_545 S
C844   H136    1.107   1_556 S
C845   H870    1.105   .     S
C845   H871    1.110   .     S
C845   H869    1.109   .     S
C846   H884    1.108   .     S
C846   H882    1.112   .     S
C846   C849    1.532   .     S
C846   C1339   1.545   1_545 S
C847   H881    1.109   .     S
C847   C848    1.524   .     S
C847   C1092   1.545   .     S
C848   H877    1.107   .     S
C848   H879    1.111   .     S
C848   H878    1.104   .     S
C850   C1097   1.344   .     S
C850   F1103   1.365   .     S
C851   C1342   1.344   1_545 S
C851   F1350   1.366   1_545 S
C852   O897    1.291   .     A
C852   O899    1.289   .     A
C853   O900    1.292   .     A
C853   O898    1.291   .     A
C854   F855    1.360   .     S
F857   C1342   1.365   1_545 S
F858   C1097   1.366   .     S
F860   N974    1.335   .     S
H880   C109    1.108   1_556 S
H883   C1084   1.110   .     S
N891   Zn902   2.026   .     S
N891   F941    1.335   .     S
N891   N974    1.275   .     S
N892   Zn901   2.026   .     S
O893   Zn901   1.961   .     S
O894   Zn902   1.961   .     S
O895   Zn902   1.975   .     S
O896   Zn901   1.975   .     S
O897   Zn901   2.001   .     S
O898   Zn902   2.001   .     S
O899   Zn902   2.027   .     S
O900   Zn901   2.027   .     S
C903   O977    1.291   .     A
C903   O975    1.277   .     A
C903   C932    1.397   .     S
C904   C915    1.394   .     A
C904   C906    1.390   .     A
C904   F938    1.360   .     S
C905   C935    1.433   .     S
C905   C936    1.391   .     A
C905   C907    1.408   .     A
C906   C908    1.405   .     A
C906   C934    1.428   .     S
C907   C918    1.540   .     S
C907   C909    1.410   .     A
C908   C921    1.537   .     S
C908   C910    1.410   .     A
C909   C916    1.400   .     A
C909   C911    1.418   .     A
C910   C917    1.402   .     A
C910   C912    1.420   .     A
C911   C913    1.421   .     A
C912   C915    1.425   .     A
C912   C173    1.405   1_556 S
C913   C936    1.396   .     A
C913   C931    1.421   .     A
C914   O976    1.279   .     A
C914   O978    1.287   .     A
C914   C933    1.393   .     S
C915   C925    1.421   .     A
C916   H943    1.073   .     S
C917   H954    1.072   .     S
C917   C193    1.391   1_556 S
C918   C919    1.551   .     S
C918   H972    1.106   .     S
C918   H971    1.105   .     S
C919   H969    1.112   .     S
C919   H970    1.107   .     S
C919   C1166   1.522   .     S
C920   H967    1.109   .     S
C920   H968    1.109   .     S
C920   C1411   1.522   1_545 S
C920   H1457   1.110   1_545 S
C921   C922    1.538   .     S
C921   H949    1.107   .     S
C921   H950    1.103   .     S
C922   H947    1.112   .     S
C922   H948    1.108   .     S
C922   C1415   1.526   1_545 S
C923   H945    1.109   .     S
C923   H946    1.110   .     S
C923   H944    1.111   .     S
C923   C1168   1.526   .     S
C924   H958    1.105   .     S
C924   H957    1.111   .     S
C924   C925    1.533   .     S
C924   C1172   1.546   .     S
C925   C178    1.388   1_556 S
C926   C927    1.525   .     S
C926   H955    1.107   .     S
C926   C1416   1.546   1_545 S
C926   H218    1.107   1_556 S
C927   H952    1.105   .     S
C927   H953    1.110   .     S
C927   H951    1.109   .     S
C928   H966    1.108   .     S
C928   H964    1.112   .     S
C928   C931    1.532   .     S
C928   C1421   1.545   1_545 S
C929   H963    1.109   .     S
C929   C930    1.524   .     S
C929   C1174   1.545   .     S
C930   H959    1.107   .     S
C930   H961    1.111   .     S
C930   H960    1.104   .     S
C932   C1179   1.344   .     S
C932   F1185   1.365   .     S
C933   C1424   1.344   1_545 S
C933   F1432   1.366   1_545 S
C934   O979    1.291   .     A
C934   O981    1.289   .     A
C935   O982    1.292   .     A
C935   O980    1.291   .     A
C936   F937    1.360   .     S
F939   C1424   1.365   1_545 S
F940   C1179   1.366   .     S
F942   N810    1.335   1_655 S
H962   C191    1.108   1_556 S
H965   C1166   1.110   .     S
N973   Zn984   2.026   .     S
N973   F777    1.335   1_655 S
N973   N810    1.275   1_655 S
N974   Zn983   2.026   .     S
O975   Zn983   1.961   .     S
O976   Zn984   1.961   .     S
O977   Zn984   1.975   .     S
O978   Zn983   1.975   .     S
O979   Zn983   2.001   .     S
O980   Zn984   2.001   .     S
O981   Zn984   2.027   .     S
O982   Zn983   2.027   .     S
C985   O1059   1.291   .     A
C985   O1057   1.277   .     A
C985   C1014   1.397   .     S
C986   C997    1.394   .     A
C986   C988    1.390   .     A
C986   F1020   1.360   .     S
C987   C1017   1.433   .     S
C987   C1018   1.391   .     A
C987   C989    1.408   .     A
C988   C990    1.405   .     A
C988   C1016   1.428   .     S
C989   C1000   1.540   .     S
C989   C991    1.410   .     A
C990   C1003   1.537   .     S
C990   C992    1.410   .     A
C991   C998    1.400   .     A
C991   C993    1.418   .     A
C992   C999    1.402   .     A
C992   C994    1.420   .     A
C993   C995    1.421   .     A
C994   C997    1.425   .     A
C994   C255    1.405   1_556 S
C995   C1018   1.396   .     A
C995   C1013   1.421   .     A
C996   O1058   1.279   .     A
C996   O1060   1.287   .     A
C996   C1015   1.393   .     S
C997   C1007   1.421   .     A
C998   H1025   1.073   .     S
C999   H1036   1.072   .     S
C999   C275    1.391   1_556 S
C1000  C1001   1.551   .     S
C1000  H1054   1.106   .     S
C1000  H1053   1.105   .     S
C1001  H1051   1.112   .     S
C1001  H1052   1.107   .     S
C1001  C1248   1.522   .     S
C1002  H1049   1.109   .     S
C1002  H1050   1.109   .     S
C1003  C1004   1.538   .     S
C1003  H1031   1.107   .     S
C1003  H1032   1.103   .     S
C1004  H1029   1.112   .     S
C1004  H1030   1.108   .     S
C1005  H1027   1.109   .     S
C1005  H1028   1.110   .     S
C1005  H1026   1.111   .     S
C1005  C1250   1.526   .     S
C1006  H1040   1.105   .     S
C1006  H1039   1.111   .     S
C1006  C1007   1.533   .     S
C1006  C1254   1.546   .     S
C1007  C260    1.388   1_556 S
C1008  C1009   1.525   .     S
C1008  H1037   1.107   .     S
C1008  H300    1.107   1_556 S
C1009  H1034   1.105   .     S
C1009  H1035   1.110   .     S
C1009  H1033   1.109   .     S
C1010  H1048   1.108   .     S
C1010  H1046   1.112   .     S
C1010  C1013   1.532   .     S
C1011  H1045   1.109   .     S
C1011  C1012   1.524   .     S
C1011  C1256   1.545   .     S
C1012  H1041   1.107   .     S
C1012  H1043   1.111   .     S
C1012  H1042   1.104   .     S
C1014  C1261   1.344   .     S
C1014  F1267   1.365   .     S
C1016  O1061   1.291   .     A
C1016  O1063   1.289   .     A
C1017  O1064   1.292   .     A
C1017  O1062   1.291   .     A
C1018  F1019   1.360   .     S
F1022  C1261   1.366   .     S
F1023  N1219   1.335   1_455 S
F1024  N1138   1.335   .     S
H1044  C273    1.108   1_556 S
H1047  C1248   1.110   .     S
N1055  Zn1066  2.026   .     S
N1055  F1105   1.335   .     S
N1055  N1138   1.275   .     S
N1056  Zn1065  2.026   .     S
N1056  N1219   1.275   1_455 S
N1056  F1188   1.335   1_455 S
O1057  Zn1065  1.961   .     S
O1058  Zn1066  1.961   .     S
O1059  Zn1066  1.975   .     S
O1060  Zn1065  1.975   .     S
O1061  Zn1065  2.001   .     S
O1062  Zn1066  2.001   .     S
O1063  Zn1066  2.027   .     S
O1064  Zn1065  2.027   .     S
C1067  O1141   1.291   .     A
C1067  O1139   1.277   .     A
C1067  C1096   1.397   .     S
C1068  C1079   1.394   .     A
C1068  C1070   1.390   .     A
C1068  F1102   1.360   .     S
C1069  C1099   1.433   .     S
C1069  C1100   1.391   .     A
C1069  C1071   1.408   .     A
C1070  C1072   1.405   .     A
C1070  C1098   1.428   .     S
C1071  C1082   1.540   .     S
C1071  C1073   1.410   .     A
C1072  C1085   1.537   .     S
C1072  C1074   1.410   .     A
C1073  C1080   1.400   .     A
C1073  C1075   1.418   .     A
C1074  C1081   1.402   .     A
C1074  C1076   1.420   .     A
C1075  C1077   1.421   .     A
C1076  C1079   1.425   .     A
C1076  C337    1.405   1_556 S
C1077  C1100   1.396   .     A
C1077  C1095   1.421   .     A
C1078  O1140   1.279   .     A
C1078  O1142   1.287   .     A
C1078  C1097   1.393   .     S
C1079  C1089   1.421   .     A
C1080  H1107   1.073   .     S
C1081  H1118   1.072   .     S
C1081  C357    1.391   1_556 S
C1082  C1083   1.551   .     S
C1082  H1136   1.106   .     S
C1082  H1135   1.105   .     S
C1083  H1133   1.112   .     S
C1083  H1134   1.107   .     S
C1083  C1330   1.522   .     S
C1084  H1131   1.109   .     S
C1084  H1132   1.109   .     S
C1085  C1086   1.538   .     S
C1085  H1113   1.107   .     S
C1085  H1114   1.103   .     S
C1086  H1111   1.112   .     S
C1086  H1112   1.108   .     S
C1087  H1109   1.109   .     S
C1087  H1110   1.110   .     S
C1087  H1108   1.111   .     S
C1087  C1332   1.526   .     S
C1088  H1122   1.105   .     S
C1088  H1121   1.111   .     S
C1088  C1089   1.533   .     S
C1088  C1336   1.546   .     S
C1089  C342    1.388   1_556 S
C1090  C1091   1.525   .     S
C1090  H1119   1.107   .     S
C1090  H382    1.107   1_556 S
C1091  H1116   1.105   .     S
C1091  H1117   1.110   .     S
C1091  H1115   1.109   .     S
C1092  H1130   1.108   .     S
C1092  H1128   1.112   .     S
C1092  C1095   1.532   .     S
C1093  H1127   1.109   .     S
C1093  C1094   1.524   .     S
C1093  C1338   1.545   .     S
C1094  H1123   1.107   .     S
C1094  H1125   1.111   .     S
C1094  H1124   1.104   .     S
C1096  C1343   1.344   .     S
C1096  F1349   1.365   .     S
C1098  O1143   1.291   .     A
C1098  O1145   1.289   .     A
C1099  O1146   1.292   .     A
C1099  O1144   1.291   .     A
C1100  F1101   1.360   .     S
F1104  C1343   1.366   .     S
F1106  N1220   1.335   .     S
H1126  C355    1.108   1_556 S
H1129  C1330   1.110   .     S
N1137  Zn1148  2.026   .     S
N1137  F1187   1.335   .     S
N1137  N1220   1.275   .     S
N1138  Zn1147  2.026   .     S
O1139  Zn1147  1.961   .     S
O1140  Zn1148  1.961   .     S
O1141  Zn1148  1.975   .     S
O1142  Zn1147  1.975   .     S
O1143  Zn1147  2.001   .     S
O1144  Zn1148  2.001   .     S
O1145  Zn1148  2.027   .     S
O1146  Zn1147  2.027   .     S
C1149  O1223   1.291   .     A
C1149  O1221   1.277   .     A
C1149  C1178   1.397   .     S
C1150  C1161   1.394   .     A
C1150  C1152   1.390   .     A
C1150  F1184   1.360   .     S
C1151  C1181   1.433   .     S
C1151  C1182   1.391   .     A
C1151  C1153   1.408   .     A
C1152  C1154   1.405   .     A
C1152  C1180   1.428   .     S
C1153  C1164   1.540   .     S
C1153  C1155   1.410   .     A
C1154  C1167   1.537   .     S
C1154  C1156   1.410   .     A
C1155  C1162   1.400   .     A
C1155  C1157   1.418   .     A
C1156  C1163   1.402   .     A
C1156  C1158   1.420   .     A
C1157  C1159   1.421   .     A
C1158  C1161   1.425   .     A
C1158  C419    1.405   1_556 S
C1159  C1182   1.396   .     A
C1159  C1177   1.421   .     A
C1160  O1222   1.279   .     A
C1160  O1224   1.287   .     A
C1160  C1179   1.393   .     S
C1161  C1171   1.421   .     A
C1162  H1189   1.073   .     S
C1163  H1200   1.072   .     S
C1163  C439    1.391   1_556 S
C1164  C1165   1.551   .     S
C1164  H1218   1.106   .     S
C1164  H1217   1.105   .     S
C1165  H1215   1.112   .     S
C1165  H1216   1.107   .     S
C1165  C1412   1.522   .     S
C1166  H1213   1.109   .     S
C1166  H1214   1.109   .     S
C1167  C1168   1.538   .     S
C1167  H1195   1.107   .     S
C1167  H1196   1.103   .     S
C1168  H1193   1.112   .     S
C1168  H1194   1.108   .     S
C1169  H1191   1.109   .     S
C1169  H1192   1.110   .     S
C1169  H1190   1.111   .     S
C1169  C1414   1.526   .     S
C1170  H1204   1.105   .     S
C1170  H1203   1.111   .     S
C1170  C1171   1.533   .     S
C1170  C1418   1.546   .     S
C1171  C424    1.388   1_556 S
C1172  C1173   1.525   .     S
C1172  H1201   1.107   .     S
C1172  H464    1.107   1_556 S
C1173  H1198   1.105   .     S
C1173  H1199   1.110   .     S
C1173  H1197   1.109   .     S
C1174  H1212   1.108   .     S
C1174  H1210   1.112   .     S
C1174  C1177   1.532   .     S
C1175  H1209   1.109   .     S
C1175  C1176   1.524   .     S
C1175  C1420   1.545   .     S
C1176  H1205   1.107   .     S
C1176  H1207   1.111   .     S
C1176  H1206   1.104   .     S
C1178  C1425   1.344   .     S
C1178  F1431   1.365   .     S
C1180  O1225   1.291   .     A
C1180  O1227   1.289   .     A
C1181  O1228   1.292   .     A
C1181  O1226   1.291   .     A
C1182  F1183   1.360   .     S
F1186  C1425   1.366   .     S
F1188  N1056   1.335   1_655 S
H1208  C437    1.108   1_556 S
H1211  C1412   1.110   .     S
N1219  Zn1230  2.026   .     S
N1219  F1023   1.335   1_655 S
N1219  N1056   1.275   1_655 S
N1220  Zn1229  2.026   .     S
O1221  Zn1229  1.961   .     S
O1222  Zn1230  1.961   .     S
O1223  Zn1230  1.975   .     S
O1224  Zn1229  1.975   .     S
O1225  Zn1229  2.001   .     S
O1226  Zn1230  2.001   .     S
O1227  Zn1230  2.027   .     S
O1228  Zn1229  2.027   .     S
C1231  O1305   1.291   .     A
C1231  O1303   1.277   .     A
C1231  C1260   1.397   .     S
C1232  C1243   1.394   .     A
C1232  C1234   1.390   .     A
C1232  F1266   1.360   .     S
C1233  C1263   1.433   .     S
C1233  C1264   1.391   .     A
C1233  C1235   1.408   .     A
C1234  C1236   1.405   .     A
C1234  C1262   1.428   .     S
C1235  C1246   1.540   .     S
C1235  C1237   1.410   .     A
C1236  C1249   1.537   .     S
C1236  C1238   1.410   .     A
C1237  C1244   1.400   .     A
C1237  C1239   1.418   .     A
C1238  C1245   1.402   .     A
C1238  C1240   1.420   .     A
C1239  C1241   1.421   .     A
C1240  C1243   1.425   .     A
C1240  C501    1.405   1_556 S
C1241  C1264   1.396   .     A
C1241  C1259   1.421   .     A
C1242  O1304   1.279   .     A
C1242  O1306   1.287   .     A
C1242  C1261   1.393   .     S
C1243  C1253   1.421   .     A
C1244  H1271   1.073   .     S
C1245  H1282   1.072   .     S
C1245  C521    1.391   1_556 S
C1246  C1247   1.551   .     S
C1246  H1300   1.106   .     S
C1246  H1299   1.105   .     S
C1247  H1297   1.112   .     S
C1247  H1298   1.107   .     S
C1247  C756    1.522   1_565 S
C1248  H1295   1.109   .     S
C1248  H1296   1.109   .     S
C1249  C1250   1.538   .     S
C1249  H1277   1.107   .     S
C1249  H1278   1.103   .     S
C1250  H1275   1.112   .     S
C1250  H1276   1.108   .     S
C1251  H1273   1.109   .     S
C1251  H1274   1.110   .     S
C1251  H1272   1.111   .     S
C1251  C758    1.526   1_565 S
C1252  H1286   1.105   .     S
C1252  H1285   1.111   .     S
C1252  C1253   1.533   .     S
C1252  C762    1.546   1_565 S
C1253  C506    1.388   1_556 S
C1254  C1255   1.525   .     S
C1254  H1283   1.107   .     S
C1254  H546    1.107   1_556 S
C1255  H1280   1.105   .     S
C1255  H1281   1.110   .     S
C1255  H1279   1.109   .     S
C1256  H1294   1.108   .     S
C1256  H1292   1.112   .     S
C1256  C1259   1.532   .     S
C1257  H1291   1.109   .     S
C1257  C1258   1.524   .     S
C1257  C764    1.545   1_565 S
C1258  H1287   1.107   .     S
C1258  H1289   1.111   .     S
C1258  H1288   1.104   .     S
C1260  C769    1.344   1_565 S
C1260  F775    1.365   1_565 S
C1262  O1307   1.291   .     A
C1262  O1309   1.289   .     A
C1263  O1310   1.292   .     A
C1263  O1308   1.291   .     A
C1264  F1265   1.360   .     S
F1268  C769    1.366   1_565 S
F1269  N1465   1.335   1_455 S
F1270  N1384   1.335   .     S
H1290  C519    1.108   1_556 S
H1293  C756    1.110   1_565 S
N1301  Zn1312  2.026   .     S
N1301  F1351   1.335   .     S
N1301  N1384   1.275   .     S
N1302  Zn1311  2.026   .     S
N1302  N1465   1.275   1_455 S
N1302  F1434   1.335   1_455 S
O1303  Zn1311  1.961   .     S
O1304  Zn1312  1.961   .     S
O1305  Zn1312  1.975   .     S
O1306  Zn1311  1.975   .     S
O1307  Zn1311  2.001   .     S
O1308  Zn1312  2.001   .     S
O1309  Zn1312  2.027   .     S
O1310  Zn1311  2.027   .     S
C1313  O1387   1.291   .     A
C1313  O1385   1.277   .     A
C1313  C1342   1.397   .     S
C1314  C1325   1.394   .     A
C1314  C1316   1.390   .     A
C1314  F1348   1.360   .     S
C1315  C1345   1.433   .     S
C1315  C1346   1.391   .     A
C1315  C1317   1.408   .     A
C1316  C1318   1.405   .     A
C1316  C1344   1.428   .     S
C1317  C1328   1.540   .     S
C1317  C1319   1.410   .     A
C1318  C1331   1.537   .     S
C1318  C1320   1.410   .     A
C1319  C1326   1.400   .     A
C1319  C1321   1.418   .     A
C1320  C1327   1.402   .     A
C1320  C1322   1.420   .     A
C1321  C1323   1.421   .     A
C1322  C1325   1.425   .     A
C1322  C583    1.405   1_556 S
C1323  C1346   1.396   .     A
C1323  C1341   1.421   .     A
C1324  O1386   1.279   .     A
C1324  O1388   1.287   .     A
C1324  C1343   1.393   .     S
C1325  C1335   1.421   .     A
C1326  H1353   1.073   .     S
C1327  H1364   1.072   .     S
C1327  C603    1.391   1_556 S
C1328  C1329   1.551   .     S
C1328  H1382   1.106   .     S
C1328  H1381   1.105   .     S
C1329  H1379   1.112   .     S
C1329  H1380   1.107   .     S
C1329  C838    1.522   1_565 S
C1330  H1377   1.109   .     S
C1330  H1378   1.109   .     S
C1331  C1332   1.538   .     S
C1331  H1359   1.107   .     S
C1331  H1360   1.103   .     S
C1332  H1357   1.112   .     S
C1332  H1358   1.108   .     S
C1333  H1355   1.109   .     S
C1333  H1356   1.110   .     S
C1333  H1354   1.111   .     S
C1333  C840    1.526   1_565 S
C1334  H1368   1.105   .     S
C1334  H1367   1.111   .     S
C1334  C1335   1.533   .     S
C1334  C844    1.546   1_565 S
C1335  C588    1.388   1_556 S
C1336  C1337   1.525   .     S
C1336  H1365   1.107   .     S
C1336  H628    1.107   1_556 S
C1337  H1362   1.105   .     S
C1337  H1363   1.110   .     S
C1337  H1361   1.109   .     S
C1338  H1376   1.108   .     S
C1338  H1374   1.112   .     S
C1338  C1341   1.532   .     S
C1339  H1373   1.109   .     S
C1339  C1340   1.524   .     S
C1339  C846    1.545   1_565 S
C1340  H1369   1.107   .     S
C1340  H1371   1.111   .     S
C1340  H1370   1.104   .     S
C1342  C851    1.344   1_565 S
C1342  F857    1.365   1_565 S
C1344  O1389   1.291   .     A
C1344  O1391   1.289   .     A
C1345  O1392   1.292   .     A
C1345  O1390   1.291   .     A
C1346  F1347   1.360   .     S
F1350  C851    1.366   1_565 S
F1352  N1466   1.335   .     S
H1372  C601    1.108   1_556 S
H1375  C838    1.110   1_565 S
N1383  Zn1394  2.026   .     S
N1383  F1433   1.335   .     S
N1383  N1466   1.275   .     S
N1384  Zn1393  2.026   .     S
O1385  Zn1393  1.961   .     S
O1386  Zn1394  1.961   .     S
O1387  Zn1394  1.975   .     S
O1388  Zn1393  1.975   .     S
O1389  Zn1393  2.001   .     S
O1390  Zn1394  2.001   .     S
O1391  Zn1394  2.027   .     S
O1392  Zn1393  2.027   .     S
C1395  O1469   1.291   .     A
C1395  O1467   1.277   .     A
C1395  C1424   1.397   .     S
C1396  C1407   1.394   .     A
C1396  C1398   1.390   .     A
C1396  F1430   1.360   .     S
C1397  C1427   1.433   .     S
C1397  C1428   1.391   .     A
C1397  C1399   1.408   .     A
C1398  C1400   1.405   .     A
C1398  C1426   1.428   .     S
C1399  C1410   1.540   .     S
C1399  C1401   1.410   .     A
C1400  C1413   1.537   .     S
C1400  C1402   1.410   .     A
C1401  C1408   1.400   .     A
C1401  C1403   1.418   .     A
C1402  C1409   1.402   .     A
C1402  C1404   1.420   .     A
C1403  C1405   1.421   .     A
C1404  C1407   1.425   .     A
C1404  C665    1.405   1_556 S
C1405  C1428   1.396   .     A
C1405  C1423   1.421   .     A
C1406  O1468   1.279   .     A
C1406  O1470   1.287   .     A
C1406  C1425   1.393   .     S
C1407  C1417   1.421   .     A
C1408  H1435   1.073   .     S
C1409  H1446   1.072   .     S
C1409  C685    1.391   1_556 S
C1410  C1411   1.551   .     S
C1410  H1464   1.106   .     S
C1410  H1463   1.105   .     S
C1411  H1461   1.112   .     S
C1411  H1462   1.107   .     S
C1411  C920    1.522   1_565 S
C1412  H1459   1.109   .     S
C1412  H1460   1.109   .     S
C1413  C1414   1.538   .     S
C1413  H1441   1.107   .     S
C1413  H1442   1.103   .     S
C1414  H1439   1.112   .     S
C1414  H1440   1.108   .     S
C1415  H1437   1.109   .     S
C1415  H1438   1.110   .     S
C1415  H1436   1.111   .     S
C1415  C922    1.526   1_565 S
C1416  H1450   1.105   .     S
C1416  H1449   1.111   .     S
C1416  C1417   1.533   .     S
C1416  C926    1.546   1_565 S
C1417  C670    1.388   1_556 S
C1418  C1419   1.525   .     S
C1418  H1447   1.107   .     S
C1418  H710    1.107   1_556 S
C1419  H1444   1.105   .     S
C1419  H1445   1.110   .     S
C1419  H1443   1.109   .     S
C1420  H1458   1.108   .     S
C1420  H1456   1.112   .     S
C1420  C1423   1.532   .     S
C1421  H1455   1.109   .     S
C1421  C1422   1.524   .     S
C1421  C928    1.545   1_565 S
C1422  H1451   1.107   .     S
C1422  H1453   1.111   .     S
C1422  H1452   1.104   .     S
C1424  C933    1.344   1_565 S
C1424  F939    1.365   1_565 S
C1426  O1471   1.291   .     A
C1426  O1473   1.289   .     A
C1427  O1474   1.292   .     A
C1427  O1472   1.291   .     A
C1428  F1429   1.360   .     S
F1432  C933    1.366   1_565 S
F1434  N1302   1.335   1_655 S
H1454  C683    1.108   1_556 S
H1457  C920    1.110   1_565 S
N1465  Zn1476  2.026   .     S
N1465  F1269   1.335   1_655 S
N1465  N1302   1.275   1_655 S
N1466  Zn1475  2.026   .     S
O1467  Zn1475  1.961   .     S
O1468  Zn1476  1.961   .     S
O1469  Zn1476  1.975   .     S
O1470  Zn1475  1.975   .     S
O1471  Zn1475  2.001   .     S
O1472  Zn1476  2.001   .     S
O1473  Zn1476  2.027   .     S
O1474  Zn1475  2.027   .     S
