data_str_m3_o1_o18_pcu_sym.101
_audit_creation_date              2020-01-03
_audit_creation_method            'Materials Studio'
_symmetry_space_group_name_H-M    'P1'
_symmetry_Int_Tables_number       1
_symmetry_cell_setting            triclinic
loop_
_symmetry_equiv_pos_as_xyz
  x,y,z
_cell_length_a                    29.5614
_cell_length_b                    32.0042
_cell_length_c                    30.5195
_cell_angle_alpha                 90.2503
_cell_angle_beta                  67.3877
_cell_angle_gamma                 89.9157
loop_
_atom_site_label
_atom_site_type_symbol
_atom_site_fract_x
_atom_site_fract_y
_atom_site_fract_z
_atom_site_U_iso_or_equiv
_atom_site_adp_type
_atom_site_occupancy
O1     O     0.12846   0.22775   0.25001   0.00000  Uiso   1.00
O2     O     0.20488   0.10558   0.25000   0.00000  Uiso   1.00
O3     O     0.20490   0.22774   0.25000   0.00000  Uiso   1.00
O4     O     0.12843   0.10559   0.25000   0.00000  Uiso   1.00
C5     C     0.16664   0.24663   0.25005   0.00000  Uiso   1.00
C6     C     0.16672   0.08671   0.24990   0.00000  Uiso   1.00
O7     O     0.10661   0.16667   0.31613   0.00000  Uiso   1.00
O8     O     0.22672   0.16666   0.18388   0.00000  Uiso   1.00
O9     O     0.18305   0.16666   0.31612   0.00000  Uiso   1.00
O10    O     0.15028   0.16667   0.18388   0.00000  Uiso   1.00
C11    C     0.13590   0.16492   0.33864   0.00000  Uiso   1.00
C12    C     0.19743   0.16614   0.16149   0.00000  Uiso   1.00
Zn13   Zn    0.11562   0.16667   0.25000   0.00000  Uiso   1.00
Zn14   Zn    0.21771   0.16666   0.25000   0.00000  Uiso   1.00
C15    C     0.11533   0.15916   0.39065   0.00000  Uiso   1.00
C16    C     0.21655   0.15678   0.11065   0.00000  Uiso   1.00
C17    C     0.04983   0.17302   0.46705   0.00000  Uiso   1.00
C18    C     0.25696   0.10377   0.05146   0.00000  Uiso   1.00
C19    C     0.06729   0.17260   0.41771   0.00000  Uiso   1.00
C20    C     0.25254   0.12562   0.09247   0.00000  Uiso   1.00
C21    C     0.14410   0.14125   0.41364   0.00000  Uiso   1.00
C22    C     0.18894   0.16919   0.08442   0.00000  Uiso   1.00
C23    C     0.12579   0.14032   0.46394   0.00000  Uiso   1.00
C24    C     0.18564   0.14131   0.04975   0.00000  Uiso   1.00
C25    C     0.08006   0.15980   0.49031   0.00000  Uiso   1.00
C26    C     0.22221   0.10995   0.03100   0.00000  Uiso   1.00
C27    C     0.15441   0.12546   0.48877   0.00000  Uiso   1.00
C28    C     0.14733   0.14387   0.03285   0.00000  Uiso   1.00
C29    C     0.10085   0.16126   0.05971   0.00000  Uiso   1.00
C30    C     0.18851   0.09237   0.47241   0.00000  Uiso   1.00
C31    C     0.06669   0.16734   0.03910   0.00000  Uiso   1.00
C32    C     0.22196   0.08462   0.49344   0.00000  Uiso   1.00
C33    C     0.20898   0.31168   0.22105   0.00000  Uiso   1.00
C34    C     0.12438   0.02167   0.27882   0.00000  Uiso   1.00
C35    C     0.20900   0.02124   0.22099   0.00000  Uiso   1.00
C36    C     0.12435   0.31211   0.27887   0.00000  Uiso   1.00
C37    C     0.16672   0.04260   0.24991   0.00000  Uiso   1.00
C38    C     0.16664   0.29074   0.24998   0.00000  Uiso   1.00
C39    C     0.32079   0.13985   0.22138   0.00000  Uiso   1.00
C40    C     0.01251   0.19337   0.27878   0.00000  Uiso   1.00
C41    C     0.03537   0.13984   0.22138   0.00000  Uiso   1.00
C42    C     0.29796   0.19345   0.27868   0.00000  Uiso   1.00
N43    N     0.04759   0.16668   0.25001   0.00000  Uiso   1.00
N44    N     0.28574   0.16666   0.24999   0.00000  Uiso   1.00
F45    F     0.02233   0.18395   0.06613   0.00000  Uiso   1.00
F46    F     0.25395   0.05231   0.47680   0.00000  Uiso   1.00
N47    N     0.17018   0.21151   0.08855   0.00000  Uiso   1.00
O48    O     0.16729   0.22962   0.05160   0.00000  Uiso   1.00
O49    O     0.16545   0.23477   0.12515   0.00000  Uiso   1.00
N50    N     0.19392   0.12916   0.38613   0.00000  Uiso   1.00
O51    O     0.22996   0.15014   0.38987   0.00000  Uiso   1.00
O52    O     0.20330   0.09875   0.35538   0.00000  Uiso   1.00
F53    F     0.28128   0.11430   0.11601   0.00000  Uiso   1.00
F54    F     0.03819   0.18842   0.39651   0.00000  Uiso   1.00
F55    F     0.00442   0.18895   0.49168   0.00000  Uiso   1.00
F56    F     0.29253   0.07418   0.03453   0.00000  Uiso   1.00
F57    F     0.08705   0.16988   0.10668   0.00000  Uiso   1.00
F58    F     0.18599   0.06455   0.43977   0.00000  Uiso   1.00
F59    F     0.24950   0.29061   0.19214   0.00000  Uiso   1.00
F60    F     0.08386   0.04273   0.30774   0.00000  Uiso   1.00
F61    F     0.24947   0.04185   0.19190   0.00000  Uiso   1.00
F62    F     0.08386   0.29149   0.30794   0.00000  Uiso   1.00
F63    F     0.30963   0.11291   0.19275   0.00000  Uiso   1.00
F64    F     0.02358   0.21994   0.30785   0.00000  Uiso   1.00
F65    F     0.06939   0.11284   0.19274   0.00000  Uiso   1.00
F66    F     0.26391   0.22039   0.30739   0.00000  Uiso   1.00
O67    O     0.46179   0.22775   0.25001   0.00000  Uiso   1.00
O68    O     0.53821   0.10558   0.25000   0.00000  Uiso   1.00
O69    O     0.53823   0.22774   0.25000   0.00000  Uiso   1.00
O70    O     0.46177   0.10559   0.25000   0.00000  Uiso   1.00
C71    C     0.49997   0.24663   0.25005   0.00000  Uiso   1.00
C72    C     0.50005   0.08671   0.24990   0.00000  Uiso   1.00
O73    O     0.43994   0.16667   0.31613   0.00000  Uiso   1.00
O74    O     0.56006   0.16666   0.18388   0.00000  Uiso   1.00
O75    O     0.51639   0.16666   0.31612   0.00000  Uiso   1.00
O76    O     0.48361   0.16667   0.18388   0.00000  Uiso   1.00
C77    C     0.46923   0.16492   0.33864   0.00000  Uiso   1.00
C78    C     0.53077   0.16614   0.16149   0.00000  Uiso   1.00
Zn79   Zn    0.44896   0.16667   0.25000   0.00000  Uiso   1.00
Zn80   Zn    0.55104   0.16666   0.25000   0.00000  Uiso   1.00
C81    C     0.44866   0.15916   0.39065   0.00000  Uiso   1.00
C82    C     0.54988   0.15678   0.11065   0.00000  Uiso   1.00
C83    C     0.38316   0.17302   0.46705   0.00000  Uiso   1.00
C84    C     0.59029   0.10377   0.05146   0.00000  Uiso   1.00
C85    C     0.40062   0.17260   0.41771   0.00000  Uiso   1.00
C86    C     0.58587   0.12562   0.09247   0.00000  Uiso   1.00
C87    C     0.47744   0.14125   0.41364   0.00000  Uiso   1.00
C88    C     0.52228   0.16919   0.08442   0.00000  Uiso   1.00
C89    C     0.45912   0.14032   0.46394   0.00000  Uiso   1.00
C90    C     0.51897   0.14131   0.04975   0.00000  Uiso   1.00
C91    C     0.41339   0.15980   0.49031   0.00000  Uiso   1.00
C92    C     0.55555   0.10995   0.03100   0.00000  Uiso   1.00
C93    C     0.48774   0.12546   0.48877   0.00000  Uiso   1.00
C94    C     0.48066   0.14387   0.03285   0.00000  Uiso   1.00
C95    C     0.43418   0.16126   0.05971   0.00000  Uiso   1.00
C96    C     0.52185   0.09237   0.47241   0.00000  Uiso   1.00
C97    C     0.40002   0.16734   0.03910   0.00000  Uiso   1.00
C98    C     0.55530   0.08462   0.49344   0.00000  Uiso   1.00
C99    C     0.54231   0.31168   0.22105   0.00000  Uiso   1.00
C100   C     0.45771   0.02167   0.27882   0.00000  Uiso   1.00
C101   C     0.54233   0.02124   0.22099   0.00000  Uiso   1.00
C102   C     0.45768   0.31211   0.27887   0.00000  Uiso   1.00
C103   C     0.50005   0.04260   0.24991   0.00000  Uiso   1.00
C104   C     0.49997   0.29074   0.24998   0.00000  Uiso   1.00
C105   C     0.65413   0.13985   0.22138   0.00000  Uiso   1.00
C106   C     0.34584   0.19337   0.27878   0.00000  Uiso   1.00
C107   C     0.36870   0.13984   0.22138   0.00000  Uiso   1.00
C108   C     0.63129   0.19345   0.27868   0.00000  Uiso   1.00
N109   N     0.38093   0.16668   0.25001   0.00000  Uiso   1.00
N110   N     0.61907   0.16666   0.24999   0.00000  Uiso   1.00
F111   F     0.35567   0.18395   0.06613   0.00000  Uiso   1.00
F112   F     0.58729   0.05231   0.47680   0.00000  Uiso   1.00
N113   N     0.50352   0.21151   0.08855   0.00000  Uiso   1.00
O114   O     0.50062   0.22962   0.05160   0.00000  Uiso   1.00
O115   O     0.49878   0.23477   0.12515   0.00000  Uiso   1.00
N116   N     0.52725   0.12916   0.38613   0.00000  Uiso   1.00
O117   O     0.56329   0.15014   0.38987   0.00000  Uiso   1.00
O118   O     0.53664   0.09875   0.35538   0.00000  Uiso   1.00
F119   F     0.61462   0.11430   0.11601   0.00000  Uiso   1.00
F120   F     0.37153   0.18842   0.39651   0.00000  Uiso   1.00
F121   F     0.33775   0.18895   0.49168   0.00000  Uiso   1.00
F122   F     0.62586   0.07418   0.03453   0.00000  Uiso   1.00
F123   F     0.42038   0.16988   0.10668   0.00000  Uiso   1.00
F124   F     0.51933   0.06455   0.43977   0.00000  Uiso   1.00
F125   F     0.58283   0.29061   0.19214   0.00000  Uiso   1.00
F126   F     0.41719   0.04273   0.30774   0.00000  Uiso   1.00
F127   F     0.58281   0.04185   0.19190   0.00000  Uiso   1.00
F128   F     0.41719   0.29149   0.30794   0.00000  Uiso   1.00
F129   F     0.64296   0.11291   0.19275   0.00000  Uiso   1.00
F130   F     0.35691   0.21994   0.30785   0.00000  Uiso   1.00
F131   F     0.40273   0.11284   0.19274   0.00000  Uiso   1.00
F132   F     0.59725   0.22039   0.30739   0.00000  Uiso   1.00
O133   O     0.79512   0.22775   0.25001   0.00000  Uiso   1.00
O134   O     0.87154   0.10558   0.25000   0.00000  Uiso   1.00
O135   O     0.87157   0.22774   0.25000   0.00000  Uiso   1.00
O136   O     0.79510   0.10559   0.25000   0.00000  Uiso   1.00
C137   C     0.83331   0.24663   0.25005   0.00000  Uiso   1.00
C138   C     0.83338   0.08671   0.24990   0.00000  Uiso   1.00
O139   O     0.77328   0.16667   0.31613   0.00000  Uiso   1.00
O140   O     0.89339   0.16666   0.18388   0.00000  Uiso   1.00
O141   O     0.84972   0.16666   0.31612   0.00000  Uiso   1.00
O142   O     0.81695   0.16667   0.18388   0.00000  Uiso   1.00
C143   C     0.80256   0.16492   0.33864   0.00000  Uiso   1.00
C144   C     0.86410   0.16614   0.16149   0.00000  Uiso   1.00
Zn145  Zn    0.78229   0.16667   0.25000   0.00000  Uiso   1.00
Zn146  Zn    0.88438   0.16666   0.25000   0.00000  Uiso   1.00
C147   C     0.78200   0.15916   0.39065   0.00000  Uiso   1.00
C148   C     0.88322   0.15678   0.11065   0.00000  Uiso   1.00
C149   C     0.71650   0.17302   0.46705   0.00000  Uiso   1.00
C150   C     0.92362   0.10377   0.05146   0.00000  Uiso   1.00
C151   C     0.73395   0.17260   0.41771   0.00000  Uiso   1.00
C152   C     0.91921   0.12562   0.09247   0.00000  Uiso   1.00
C153   C     0.81077   0.14125   0.41364   0.00000  Uiso   1.00
C154   C     0.85561   0.16919   0.08442   0.00000  Uiso   1.00
C155   C     0.79245   0.14032   0.46394   0.00000  Uiso   1.00
C156   C     0.85230   0.14131   0.04975   0.00000  Uiso   1.00
C157   C     0.74673   0.15980   0.49031   0.00000  Uiso   1.00
C158   C     0.88888   0.10995   0.03100   0.00000  Uiso   1.00
C159   C     0.82108   0.12546   0.48877   0.00000  Uiso   1.00
C160   C     0.81399   0.14387   0.03285   0.00000  Uiso   1.00
C161   C     0.76752   0.16126   0.05971   0.00000  Uiso   1.00
C162   C     0.85518   0.09237   0.47241   0.00000  Uiso   1.00
C163   C     0.73336   0.16734   0.03910   0.00000  Uiso   1.00
C164   C     0.88863   0.08462   0.49344   0.00000  Uiso   1.00
C165   C     0.87564   0.31168   0.22105   0.00000  Uiso   1.00
C166   C     0.79104   0.02167   0.27882   0.00000  Uiso   1.00
C167   C     0.87567   0.02124   0.22099   0.00000  Uiso   1.00
C168   C     0.79101   0.31211   0.27887   0.00000  Uiso   1.00
C169   C     0.83339   0.04260   0.24991   0.00000  Uiso   1.00
C170   C     0.83331   0.29074   0.24998   0.00000  Uiso   1.00
C171   C     0.98746   0.13985   0.22138   0.00000  Uiso   1.00
C172   C     0.67917   0.19337   0.27878   0.00000  Uiso   1.00
C173   C     0.70204   0.13984   0.22138   0.00000  Uiso   1.00
C174   C     0.96462   0.19345   0.27868   0.00000  Uiso   1.00
N175   N     0.71426   0.16668   0.25001   0.00000  Uiso   1.00
N176   N     0.95241   0.16666   0.24999   0.00000  Uiso   1.00
F177   F     0.68900   0.18395   0.06613   0.00000  Uiso   1.00
F178   F     0.92062   0.05231   0.47680   0.00000  Uiso   1.00
N179   N     0.83685   0.21151   0.08855   0.00000  Uiso   1.00
O180   O     0.83396   0.22962   0.05160   0.00000  Uiso   1.00
O181   O     0.83212   0.23477   0.12515   0.00000  Uiso   1.00
N182   N     0.86058   0.12916   0.38613   0.00000  Uiso   1.00
O183   O     0.89662   0.15014   0.38987   0.00000  Uiso   1.00
O184   O     0.86997   0.09875   0.35538   0.00000  Uiso   1.00
F185   F     0.94795   0.11430   0.11601   0.00000  Uiso   1.00
F186   F     0.70486   0.18842   0.39651   0.00000  Uiso   1.00
F187   F     0.67109   0.18895   0.49168   0.00000  Uiso   1.00
F188   F     0.95919   0.07418   0.03453   0.00000  Uiso   1.00
F189   F     0.75371   0.16988   0.10668   0.00000  Uiso   1.00
F190   F     0.85266   0.06455   0.43977   0.00000  Uiso   1.00
F191   F     0.91617   0.29061   0.19214   0.00000  Uiso   1.00
F192   F     0.75052   0.04273   0.30774   0.00000  Uiso   1.00
F193   F     0.91614   0.04185   0.19190   0.00000  Uiso   1.00
F194   F     0.75053   0.29149   0.30794   0.00000  Uiso   1.00
F195   F     0.97629   0.11291   0.19275   0.00000  Uiso   1.00
F196   F     0.69024   0.21994   0.30785   0.00000  Uiso   1.00
F197   F     0.73606   0.11284   0.19274   0.00000  Uiso   1.00
F198   F     0.93058   0.22039   0.30739   0.00000  Uiso   1.00
O199   O     0.12846   0.56108   0.25001   0.00000  Uiso   1.00
O200   O     0.20488   0.43892   0.25000   0.00000  Uiso   1.00
O201   O     0.20490   0.56107   0.25000   0.00000  Uiso   1.00
O202   O     0.12843   0.43893   0.25000   0.00000  Uiso   1.00
C203   C     0.16664   0.57996   0.25005   0.00000  Uiso   1.00
C204   C     0.16672   0.42004   0.24990   0.00000  Uiso   1.00
O205   O     0.10661   0.50001   0.31613   0.00000  Uiso   1.00
O206   O     0.22672   0.49999   0.18388   0.00000  Uiso   1.00
O207   O     0.18305   0.50000   0.31612   0.00000  Uiso   1.00
O208   O     0.15028   0.50000   0.18388   0.00000  Uiso   1.00
C209   C     0.13590   0.49825   0.33864   0.00000  Uiso   1.00
C210   C     0.19743   0.49947   0.16149   0.00000  Uiso   1.00
Zn211  Zn    0.11562   0.50001   0.25000   0.00000  Uiso   1.00
Zn212  Zn    0.21771   0.49999   0.25000   0.00000  Uiso   1.00
C213   C     0.11533   0.49249   0.39065   0.00000  Uiso   1.00
C214   C     0.21655   0.49012   0.11065   0.00000  Uiso   1.00
C215   C     0.04983   0.50635   0.46705   0.00000  Uiso   1.00
C216   C     0.25696   0.43710   0.05146   0.00000  Uiso   1.00
C217   C     0.06729   0.50594   0.41771   0.00000  Uiso   1.00
C218   C     0.25254   0.45895   0.09247   0.00000  Uiso   1.00
C219   C     0.14410   0.47458   0.41364   0.00000  Uiso   1.00
C220   C     0.18894   0.50252   0.08442   0.00000  Uiso   1.00
C221   C     0.12579   0.47365   0.46394   0.00000  Uiso   1.00
C222   C     0.18564   0.47464   0.04975   0.00000  Uiso   1.00
C223   C     0.08006   0.49314   0.49031   0.00000  Uiso   1.00
C224   C     0.22221   0.44329   0.03100   0.00000  Uiso   1.00
C225   C     0.15441   0.45880   0.48877   0.00000  Uiso   1.00
C226   C     0.14733   0.47720   0.03285   0.00000  Uiso   1.00
C227   C     0.10085   0.49460   0.05971   0.00000  Uiso   1.00
C228   C     0.18851   0.42571   0.47241   0.00000  Uiso   1.00
C229   C     0.06669   0.50067   0.03910   0.00000  Uiso   1.00
C230   C     0.22196   0.41795   0.49344   0.00000  Uiso   1.00
C231   C     0.20898   0.64501   0.22105   0.00000  Uiso   1.00
C232   C     0.12438   0.35500   0.27882   0.00000  Uiso   1.00
C233   C     0.20900   0.35457   0.22099   0.00000  Uiso   1.00
C234   C     0.12435   0.64544   0.27887   0.00000  Uiso   1.00
C235   C     0.16672   0.37594   0.24991   0.00000  Uiso   1.00
C236   C     0.16664   0.62407   0.24998   0.00000  Uiso   1.00
C237   C     0.32079   0.47318   0.22138   0.00000  Uiso   1.00
C238   C     0.01251   0.52670   0.27878   0.00000  Uiso   1.00
C239   C     0.03537   0.47317   0.22138   0.00000  Uiso   1.00
C240   C     0.29796   0.52679   0.27868   0.00000  Uiso   1.00
N241   N     0.04759   0.50001   0.25001   0.00000  Uiso   1.00
N242   N     0.28574   0.49999   0.24999   0.00000  Uiso   1.00
F243   F     0.02233   0.51728   0.06613   0.00000  Uiso   1.00
F244   F     0.25395   0.38564   0.47680   0.00000  Uiso   1.00
N245   N     0.17018   0.54484   0.08855   0.00000  Uiso   1.00
O246   O     0.16729   0.56296   0.05160   0.00000  Uiso   1.00
O247   O     0.16545   0.56810   0.12515   0.00000  Uiso   1.00
N248   N     0.19392   0.46249   0.38613   0.00000  Uiso   1.00
O249   O     0.22996   0.48348   0.38987   0.00000  Uiso   1.00
O250   O     0.20330   0.43208   0.35538   0.00000  Uiso   1.00
F251   F     0.28128   0.44763   0.11601   0.00000  Uiso   1.00
F252   F     0.03819   0.52175   0.39651   0.00000  Uiso   1.00
F253   F     0.00442   0.52229   0.49168   0.00000  Uiso   1.00
F254   F     0.29253   0.40751   0.03453   0.00000  Uiso   1.00
F255   F     0.08705   0.50321   0.10668   0.00000  Uiso   1.00
F256   F     0.18599   0.39788   0.43977   0.00000  Uiso   1.00
F257   F     0.24950   0.62395   0.19214   0.00000  Uiso   1.00
F258   F     0.08386   0.37606   0.30774   0.00000  Uiso   1.00
F259   F     0.24947   0.37519   0.19190   0.00000  Uiso   1.00
F260   F     0.08386   0.62483   0.30794   0.00000  Uiso   1.00
F261   F     0.30963   0.44624   0.19275   0.00000  Uiso   1.00
F262   F     0.02358   0.55328   0.30785   0.00000  Uiso   1.00
F263   F     0.06939   0.44617   0.19274   0.00000  Uiso   1.00
F264   F     0.26391   0.55373   0.30739   0.00000  Uiso   1.00
O265   O     0.46179   0.56108   0.25001   0.00000  Uiso   1.00
O266   O     0.53821   0.43892   0.25000   0.00000  Uiso   1.00
O267   O     0.53823   0.56107   0.25000   0.00000  Uiso   1.00
O268   O     0.46177   0.43893   0.25000   0.00000  Uiso   1.00
C269   C     0.49997   0.57996   0.25005   0.00000  Uiso   1.00
C270   C     0.50005   0.42004   0.24990   0.00000  Uiso   1.00
O271   O     0.43994   0.50001   0.31613   0.00000  Uiso   1.00
O272   O     0.56006   0.49999   0.18388   0.00000  Uiso   1.00
O273   O     0.51639   0.50000   0.31612   0.00000  Uiso   1.00
O274   O     0.48361   0.50000   0.18388   0.00000  Uiso   1.00
C275   C     0.46923   0.49825   0.33864   0.00000  Uiso   1.00
C276   C     0.53077   0.49947   0.16149   0.00000  Uiso   1.00
Zn277  Zn    0.44896   0.50001   0.25000   0.00000  Uiso   1.00
Zn278  Zn    0.55104   0.49999   0.25000   0.00000  Uiso   1.00
C279   C     0.44866   0.49249   0.39065   0.00000  Uiso   1.00
C280   C     0.54988   0.49012   0.11065   0.00000  Uiso   1.00
C281   C     0.38316   0.50635   0.46705   0.00000  Uiso   1.00
C282   C     0.59029   0.43710   0.05146   0.00000  Uiso   1.00
C283   C     0.40062   0.50594   0.41771   0.00000  Uiso   1.00
C284   C     0.58587   0.45895   0.09247   0.00000  Uiso   1.00
C285   C     0.47744   0.47458   0.41364   0.00000  Uiso   1.00
C286   C     0.52228   0.50252   0.08442   0.00000  Uiso   1.00
C287   C     0.45912   0.47365   0.46394   0.00000  Uiso   1.00
C288   C     0.51897   0.47464   0.04975   0.00000  Uiso   1.00
C289   C     0.41339   0.49314   0.49031   0.00000  Uiso   1.00
C290   C     0.55555   0.44329   0.03100   0.00000  Uiso   1.00
C291   C     0.48774   0.45880   0.48877   0.00000  Uiso   1.00
C292   C     0.48066   0.47720   0.03285   0.00000  Uiso   1.00
C293   C     0.43418   0.49460   0.05971   0.00000  Uiso   1.00
C294   C     0.52185   0.42571   0.47241   0.00000  Uiso   1.00
C295   C     0.40002   0.50067   0.03910   0.00000  Uiso   1.00
C296   C     0.55530   0.41795   0.49344   0.00000  Uiso   1.00
C297   C     0.54231   0.64501   0.22105   0.00000  Uiso   1.00
C298   C     0.45771   0.35500   0.27882   0.00000  Uiso   1.00
C299   C     0.54233   0.35457   0.22099   0.00000  Uiso   1.00
C300   C     0.45768   0.64544   0.27887   0.00000  Uiso   1.00
C301   C     0.50005   0.37594   0.24991   0.00000  Uiso   1.00
C302   C     0.49997   0.62407   0.24998   0.00000  Uiso   1.00
C303   C     0.65413   0.47318   0.22138   0.00000  Uiso   1.00
C304   C     0.34584   0.52670   0.27878   0.00000  Uiso   1.00
C305   C     0.36870   0.47317   0.22138   0.00000  Uiso   1.00
C306   C     0.63129   0.52679   0.27868   0.00000  Uiso   1.00
N307   N     0.38093   0.50001   0.25001   0.00000  Uiso   1.00
N308   N     0.61907   0.49999   0.24999   0.00000  Uiso   1.00
F309   F     0.35567   0.51728   0.06613   0.00000  Uiso   1.00
F310   F     0.58729   0.38564   0.47680   0.00000  Uiso   1.00
N311   N     0.50352   0.54484   0.08855   0.00000  Uiso   1.00
O312   O     0.50062   0.56296   0.05160   0.00000  Uiso   1.00
O313   O     0.49878   0.56810   0.12515   0.00000  Uiso   1.00
N314   N     0.52725   0.46249   0.38613   0.00000  Uiso   1.00
O315   O     0.56329   0.48348   0.38987   0.00000  Uiso   1.00
O316   O     0.53664   0.43208   0.35538   0.00000  Uiso   1.00
F317   F     0.61462   0.44763   0.11601   0.00000  Uiso   1.00
F318   F     0.37153   0.52175   0.39651   0.00000  Uiso   1.00
F319   F     0.33775   0.52229   0.49168   0.00000  Uiso   1.00
F320   F     0.62586   0.40751   0.03453   0.00000  Uiso   1.00
F321   F     0.42038   0.50321   0.10668   0.00000  Uiso   1.00
F322   F     0.51933   0.39788   0.43977   0.00000  Uiso   1.00
F323   F     0.58283   0.62395   0.19214   0.00000  Uiso   1.00
F324   F     0.41719   0.37606   0.30774   0.00000  Uiso   1.00
F325   F     0.58281   0.37519   0.19190   0.00000  Uiso   1.00
F326   F     0.41719   0.62483   0.30794   0.00000  Uiso   1.00
F327   F     0.64296   0.44624   0.19275   0.00000  Uiso   1.00
F328   F     0.35691   0.55328   0.30785   0.00000  Uiso   1.00
F329   F     0.40273   0.44617   0.19274   0.00000  Uiso   1.00
F330   F     0.59725   0.55373   0.30739   0.00000  Uiso   1.00
O331   O     0.79512   0.56108   0.25001   0.00000  Uiso   1.00
O332   O     0.87154   0.43892   0.25000   0.00000  Uiso   1.00
O333   O     0.87157   0.56107   0.25000   0.00000  Uiso   1.00
O334   O     0.79510   0.43893   0.25000   0.00000  Uiso   1.00
C335   C     0.83331   0.57996   0.25005   0.00000  Uiso   1.00
C336   C     0.83338   0.42004   0.24990   0.00000  Uiso   1.00
O337   O     0.77328   0.50001   0.31613   0.00000  Uiso   1.00
O338   O     0.89339   0.49999   0.18388   0.00000  Uiso   1.00
O339   O     0.84972   0.50000   0.31612   0.00000  Uiso   1.00
O340   O     0.81695   0.50000   0.18388   0.00000  Uiso   1.00
C341   C     0.80256   0.49825   0.33864   0.00000  Uiso   1.00
C342   C     0.86410   0.49947   0.16149   0.00000  Uiso   1.00
Zn343  Zn    0.78229   0.50001   0.25000   0.00000  Uiso   1.00
Zn344  Zn    0.88438   0.49999   0.25000   0.00000  Uiso   1.00
C345   C     0.78200   0.49249   0.39065   0.00000  Uiso   1.00
C346   C     0.88322   0.49012   0.11065   0.00000  Uiso   1.00
C347   C     0.71650   0.50635   0.46705   0.00000  Uiso   1.00
C348   C     0.92362   0.43710   0.05146   0.00000  Uiso   1.00
C349   C     0.73395   0.50594   0.41771   0.00000  Uiso   1.00
C350   C     0.91921   0.45895   0.09247   0.00000  Uiso   1.00
C351   C     0.81077   0.47458   0.41364   0.00000  Uiso   1.00
C352   C     0.85561   0.50252   0.08442   0.00000  Uiso   1.00
C353   C     0.79245   0.47365   0.46394   0.00000  Uiso   1.00
C354   C     0.85230   0.47464   0.04975   0.00000  Uiso   1.00
C355   C     0.74673   0.49314   0.49031   0.00000  Uiso   1.00
C356   C     0.88888   0.44329   0.03100   0.00000  Uiso   1.00
C357   C     0.82108   0.45880   0.48877   0.00000  Uiso   1.00
C358   C     0.81399   0.47720   0.03285   0.00000  Uiso   1.00
C359   C     0.76752   0.49460   0.05971   0.00000  Uiso   1.00
C360   C     0.85518   0.42571   0.47241   0.00000  Uiso   1.00
C361   C     0.73336   0.50067   0.03910   0.00000  Uiso   1.00
C362   C     0.88863   0.41795   0.49344   0.00000  Uiso   1.00
C363   C     0.87564   0.64501   0.22105   0.00000  Uiso   1.00
C364   C     0.79104   0.35500   0.27882   0.00000  Uiso   1.00
C365   C     0.87567   0.35457   0.22099   0.00000  Uiso   1.00
C366   C     0.79101   0.64544   0.27887   0.00000  Uiso   1.00
C367   C     0.83339   0.37594   0.24991   0.00000  Uiso   1.00
C368   C     0.83331   0.62407   0.24998   0.00000  Uiso   1.00
C369   C     0.98746   0.47318   0.22138   0.00000  Uiso   1.00
C370   C     0.67917   0.52670   0.27878   0.00000  Uiso   1.00
C371   C     0.70204   0.47317   0.22138   0.00000  Uiso   1.00
C372   C     0.96462   0.52679   0.27868   0.00000  Uiso   1.00
N373   N     0.71426   0.50001   0.25001   0.00000  Uiso   1.00
N374   N     0.95241   0.49999   0.24999   0.00000  Uiso   1.00
F375   F     0.68900   0.51728   0.06613   0.00000  Uiso   1.00
F376   F     0.92062   0.38564   0.47680   0.00000  Uiso   1.00
N377   N     0.83685   0.54484   0.08855   0.00000  Uiso   1.00
O378   O     0.83396   0.56296   0.05160   0.00000  Uiso   1.00
O379   O     0.83212   0.56810   0.12515   0.00000  Uiso   1.00
N380   N     0.86058   0.46249   0.38613   0.00000  Uiso   1.00
O381   O     0.89662   0.48348   0.38987   0.00000  Uiso   1.00
O382   O     0.86997   0.43208   0.35538   0.00000  Uiso   1.00
F383   F     0.94795   0.44763   0.11601   0.00000  Uiso   1.00
F384   F     0.70486   0.52175   0.39651   0.00000  Uiso   1.00
F385   F     0.67109   0.52229   0.49168   0.00000  Uiso   1.00
F386   F     0.95919   0.40751   0.03453   0.00000  Uiso   1.00
F387   F     0.75371   0.50321   0.10668   0.00000  Uiso   1.00
F388   F     0.85266   0.39788   0.43977   0.00000  Uiso   1.00
F389   F     0.91617   0.62395   0.19214   0.00000  Uiso   1.00
F390   F     0.75052   0.37606   0.30774   0.00000  Uiso   1.00
F391   F     0.91614   0.37519   0.19190   0.00000  Uiso   1.00
F392   F     0.75053   0.62483   0.30794   0.00000  Uiso   1.00
F393   F     0.97629   0.44624   0.19275   0.00000  Uiso   1.00
F394   F     0.69024   0.55328   0.30785   0.00000  Uiso   1.00
F395   F     0.73606   0.44617   0.19274   0.00000  Uiso   1.00
F396   F     0.93058   0.55373   0.30739   0.00000  Uiso   1.00
O397   O     0.12846   0.89442   0.25001   0.00000  Uiso   1.00
O398   O     0.20488   0.77225   0.25000   0.00000  Uiso   1.00
O399   O     0.20490   0.89441   0.25000   0.00000  Uiso   1.00
O400   O     0.12843   0.77226   0.25000   0.00000  Uiso   1.00
C401   C     0.16664   0.91329   0.25005   0.00000  Uiso   1.00
C402   C     0.16672   0.75337   0.24990   0.00000  Uiso   1.00
O403   O     0.10661   0.83334   0.31613   0.00000  Uiso   1.00
O404   O     0.22672   0.83333   0.18388   0.00000  Uiso   1.00
O405   O     0.18305   0.83333   0.31612   0.00000  Uiso   1.00
O406   O     0.15028   0.83334   0.18388   0.00000  Uiso   1.00
C407   C     0.13590   0.83158   0.33864   0.00000  Uiso   1.00
C408   C     0.19743   0.83281   0.16149   0.00000  Uiso   1.00
Zn409  Zn    0.11562   0.83334   0.25000   0.00000  Uiso   1.00
Zn410  Zn    0.21771   0.83333   0.25000   0.00000  Uiso   1.00
C411   C     0.11533   0.82583   0.39065   0.00000  Uiso   1.00
C412   C     0.21655   0.82345   0.11065   0.00000  Uiso   1.00
C413   C     0.04983   0.83969   0.46705   0.00000  Uiso   1.00
C414   C     0.25696   0.77044   0.05146   0.00000  Uiso   1.00
C415   C     0.06729   0.83927   0.41771   0.00000  Uiso   1.00
C416   C     0.25254   0.79229   0.09247   0.00000  Uiso   1.00
C417   C     0.14410   0.80791   0.41364   0.00000  Uiso   1.00
C418   C     0.18894   0.83585   0.08442   0.00000  Uiso   1.00
C419   C     0.12579   0.80698   0.46394   0.00000  Uiso   1.00
C420   C     0.18564   0.80797   0.04975   0.00000  Uiso   1.00
C421   C     0.08006   0.82647   0.49031   0.00000  Uiso   1.00
C422   C     0.22221   0.77662   0.03100   0.00000  Uiso   1.00
C423   C     0.15441   0.79213   0.48877   0.00000  Uiso   1.00
C424   C     0.14733   0.81053   0.03285   0.00000  Uiso   1.00
C425   C     0.10085   0.82793   0.05971   0.00000  Uiso   1.00
C426   C     0.18851   0.75904   0.47241   0.00000  Uiso   1.00
C427   C     0.06669   0.83400   0.03910   0.00000  Uiso   1.00
C428   C     0.22196   0.75129   0.49344   0.00000  Uiso   1.00
C429   C     0.20898   0.97834   0.22105   0.00000  Uiso   1.00
C430   C     0.12438   0.68833   0.27882   0.00000  Uiso   1.00
C431   C     0.20900   0.68791   0.22099   0.00000  Uiso   1.00
C432   C     0.12435   0.97877   0.27887   0.00000  Uiso   1.00
C433   C     0.16672   0.70927   0.24991   0.00000  Uiso   1.00
C434   C     0.16664   0.95740   0.24998   0.00000  Uiso   1.00
C435   C     0.32079   0.80651   0.22138   0.00000  Uiso   1.00
C436   C     0.01251   0.86003   0.27878   0.00000  Uiso   1.00
C437   C     0.03537   0.80651   0.22138   0.00000  Uiso   1.00
C438   C     0.29796   0.86012   0.27868   0.00000  Uiso   1.00
N439   N     0.04759   0.83334   0.25001   0.00000  Uiso   1.00
N440   N     0.28574   0.83332   0.24999   0.00000  Uiso   1.00
F441   F     0.02233   0.85062   0.06613   0.00000  Uiso   1.00
F442   F     0.25395   0.71898   0.47680   0.00000  Uiso   1.00
N443   N     0.17018   0.87817   0.08855   0.00000  Uiso   1.00
O444   O     0.16729   0.89629   0.05160   0.00000  Uiso   1.00
O445   O     0.16545   0.90144   0.12515   0.00000  Uiso   1.00
N446   N     0.19392   0.79583   0.38613   0.00000  Uiso   1.00
O447   O     0.22996   0.81681   0.38987   0.00000  Uiso   1.00
O448   O     0.20330   0.76542   0.35538   0.00000  Uiso   1.00
F449   F     0.28128   0.78097   0.11601   0.00000  Uiso   1.00
F450   F     0.03819   0.85508   0.39651   0.00000  Uiso   1.00
F451   F     0.00442   0.85562   0.49168   0.00000  Uiso   1.00
F452   F     0.29253   0.74085   0.03453   0.00000  Uiso   1.00
F453   F     0.08705   0.83654   0.10668   0.00000  Uiso   1.00
F454   F     0.18599   0.73122   0.43977   0.00000  Uiso   1.00
F455   F     0.24950   0.95728   0.19214   0.00000  Uiso   1.00
F456   F     0.08386   0.70939   0.30774   0.00000  Uiso   1.00
F457   F     0.24947   0.70852   0.19190   0.00000  Uiso   1.00
F458   F     0.08386   0.95816   0.30794   0.00000  Uiso   1.00
F459   F     0.30963   0.77957   0.19275   0.00000  Uiso   1.00
F460   F     0.02358   0.88661   0.30785   0.00000  Uiso   1.00
F461   F     0.06939   0.77951   0.19274   0.00000  Uiso   1.00
F462   F     0.26391   0.88706   0.30739   0.00000  Uiso   1.00
O463   O     0.46179   0.89442   0.25001   0.00000  Uiso   1.00
O464   O     0.53821   0.77225   0.25000   0.00000  Uiso   1.00
O465   O     0.53823   0.89441   0.25000   0.00000  Uiso   1.00
O466   O     0.46177   0.77226   0.25000   0.00000  Uiso   1.00
C467   C     0.49997   0.91329   0.25005   0.00000  Uiso   1.00
C468   C     0.50005   0.75337   0.24990   0.00000  Uiso   1.00
O469   O     0.43994   0.83334   0.31613   0.00000  Uiso   1.00
O470   O     0.56006   0.83333   0.18388   0.00000  Uiso   1.00
O471   O     0.51639   0.83333   0.31612   0.00000  Uiso   1.00
O472   O     0.48361   0.83334   0.18388   0.00000  Uiso   1.00
C473   C     0.46923   0.83158   0.33864   0.00000  Uiso   1.00
C474   C     0.53077   0.83281   0.16149   0.00000  Uiso   1.00
Zn475  Zn    0.44896   0.83334   0.25000   0.00000  Uiso   1.00
Zn476  Zn    0.55104   0.83333   0.25000   0.00000  Uiso   1.00
C477   C     0.44866   0.82583   0.39065   0.00000  Uiso   1.00
C478   C     0.54988   0.82345   0.11065   0.00000  Uiso   1.00
C479   C     0.38316   0.83969   0.46705   0.00000  Uiso   1.00
C480   C     0.59029   0.77044   0.05146   0.00000  Uiso   1.00
C481   C     0.40062   0.83927   0.41771   0.00000  Uiso   1.00
C482   C     0.58587   0.79229   0.09247   0.00000  Uiso   1.00
C483   C     0.47744   0.80791   0.41364   0.00000  Uiso   1.00
C484   C     0.52228   0.83585   0.08442   0.00000  Uiso   1.00
C485   C     0.45912   0.80698   0.46394   0.00000  Uiso   1.00
C486   C     0.51897   0.80797   0.04975   0.00000  Uiso   1.00
C487   C     0.41339   0.82647   0.49031   0.00000  Uiso   1.00
C488   C     0.55555   0.77662   0.03100   0.00000  Uiso   1.00
C489   C     0.48774   0.79213   0.48877   0.00000  Uiso   1.00
C490   C     0.48066   0.81053   0.03285   0.00000  Uiso   1.00
C491   C     0.43418   0.82793   0.05971   0.00000  Uiso   1.00
C492   C     0.52185   0.75904   0.47241   0.00000  Uiso   1.00
C493   C     0.40002   0.83400   0.03910   0.00000  Uiso   1.00
C494   C     0.55530   0.75129   0.49344   0.00000  Uiso   1.00
C495   C     0.54231   0.97834   0.22105   0.00000  Uiso   1.00
C496   C     0.45771   0.68833   0.27882   0.00000  Uiso   1.00
C497   C     0.54233   0.68791   0.22099   0.00000  Uiso   1.00
C498   C     0.45768   0.97877   0.27887   0.00000  Uiso   1.00
C499   C     0.50005   0.70927   0.24991   0.00000  Uiso   1.00
C500   C     0.49997   0.95740   0.24998   0.00000  Uiso   1.00
C501   C     0.65413   0.80651   0.22138   0.00000  Uiso   1.00
C502   C     0.34584   0.86003   0.27878   0.00000  Uiso   1.00
C503   C     0.36870   0.80651   0.22138   0.00000  Uiso   1.00
C504   C     0.63129   0.86012   0.27868   0.00000  Uiso   1.00
N505   N     0.38093   0.83334   0.25001   0.00000  Uiso   1.00
N506   N     0.61907   0.83332   0.24999   0.00000  Uiso   1.00
F507   F     0.35567   0.85062   0.06613   0.00000  Uiso   1.00
F508   F     0.58729   0.71898   0.47680   0.00000  Uiso   1.00
N509   N     0.50352   0.87817   0.08855   0.00000  Uiso   1.00
O510   O     0.50062   0.89629   0.05160   0.00000  Uiso   1.00
O511   O     0.49878   0.90144   0.12515   0.00000  Uiso   1.00
N512   N     0.52725   0.79583   0.38613   0.00000  Uiso   1.00
O513   O     0.56329   0.81681   0.38987   0.00000  Uiso   1.00
O514   O     0.53664   0.76542   0.35538   0.00000  Uiso   1.00
F515   F     0.61462   0.78097   0.11601   0.00000  Uiso   1.00
F516   F     0.37153   0.85508   0.39651   0.00000  Uiso   1.00
F517   F     0.33775   0.85562   0.49168   0.00000  Uiso   1.00
F518   F     0.62586   0.74085   0.03453   0.00000  Uiso   1.00
F519   F     0.42038   0.83654   0.10668   0.00000  Uiso   1.00
F520   F     0.51933   0.73122   0.43977   0.00000  Uiso   1.00
F521   F     0.58283   0.95728   0.19214   0.00000  Uiso   1.00
F522   F     0.41719   0.70939   0.30774   0.00000  Uiso   1.00
F523   F     0.58281   0.70852   0.19190   0.00000  Uiso   1.00
F524   F     0.41719   0.95816   0.30794   0.00000  Uiso   1.00
F525   F     0.64296   0.77957   0.19275   0.00000  Uiso   1.00
F526   F     0.35691   0.88661   0.30785   0.00000  Uiso   1.00
F527   F     0.40273   0.77951   0.19274   0.00000  Uiso   1.00
F528   F     0.59725   0.88706   0.30739   0.00000  Uiso   1.00
O529   O     0.79512   0.89442   0.25001   0.00000  Uiso   1.00
O530   O     0.87154   0.77225   0.25000   0.00000  Uiso   1.00
O531   O     0.87157   0.89441   0.25000   0.00000  Uiso   1.00
O532   O     0.79510   0.77226   0.25000   0.00000  Uiso   1.00
C533   C     0.83331   0.91329   0.25005   0.00000  Uiso   1.00
C534   C     0.83338   0.75337   0.24990   0.00000  Uiso   1.00
O535   O     0.77328   0.83334   0.31613   0.00000  Uiso   1.00
O536   O     0.89339   0.83333   0.18388   0.00000  Uiso   1.00
O537   O     0.84972   0.83333   0.31612   0.00000  Uiso   1.00
O538   O     0.81695   0.83334   0.18388   0.00000  Uiso   1.00
C539   C     0.80256   0.83158   0.33864   0.00000  Uiso   1.00
C540   C     0.86410   0.83281   0.16149   0.00000  Uiso   1.00
Zn541  Zn    0.78229   0.83334   0.25000   0.00000  Uiso   1.00
Zn542  Zn    0.88438   0.83333   0.25000   0.00000  Uiso   1.00
C543   C     0.78200   0.82583   0.39065   0.00000  Uiso   1.00
C544   C     0.88322   0.82345   0.11065   0.00000  Uiso   1.00
C545   C     0.71650   0.83969   0.46705   0.00000  Uiso   1.00
C546   C     0.92362   0.77044   0.05146   0.00000  Uiso   1.00
C547   C     0.73395   0.83927   0.41771   0.00000  Uiso   1.00
C548   C     0.91921   0.79229   0.09247   0.00000  Uiso   1.00
C549   C     0.81077   0.80791   0.41364   0.00000  Uiso   1.00
C550   C     0.85561   0.83585   0.08442   0.00000  Uiso   1.00
C551   C     0.79245   0.80698   0.46394   0.00000  Uiso   1.00
C552   C     0.85230   0.80797   0.04975   0.00000  Uiso   1.00
C553   C     0.74673   0.82647   0.49031   0.00000  Uiso   1.00
C554   C     0.88888   0.77662   0.03100   0.00000  Uiso   1.00
C555   C     0.82108   0.79213   0.48877   0.00000  Uiso   1.00
C556   C     0.81399   0.81053   0.03285   0.00000  Uiso   1.00
C557   C     0.76752   0.82793   0.05971   0.00000  Uiso   1.00
C558   C     0.85518   0.75904   0.47241   0.00000  Uiso   1.00
C559   C     0.73336   0.83400   0.03910   0.00000  Uiso   1.00
C560   C     0.88863   0.75129   0.49344   0.00000  Uiso   1.00
C561   C     0.87564   0.97834   0.22105   0.00000  Uiso   1.00
C562   C     0.79104   0.68833   0.27882   0.00000  Uiso   1.00
C563   C     0.87567   0.68791   0.22099   0.00000  Uiso   1.00
C564   C     0.79101   0.97877   0.27887   0.00000  Uiso   1.00
C565   C     0.83339   0.70927   0.24991   0.00000  Uiso   1.00
C566   C     0.83331   0.95740   0.24998   0.00000  Uiso   1.00
C567   C     0.98746   0.80651   0.22138   0.00000  Uiso   1.00
C568   C     0.67917   0.86003   0.27878   0.00000  Uiso   1.00
C569   C     0.70204   0.80651   0.22138   0.00000  Uiso   1.00
C570   C     0.96462   0.86012   0.27868   0.00000  Uiso   1.00
N571   N     0.71426   0.83334   0.25001   0.00000  Uiso   1.00
N572   N     0.95241   0.83332   0.24999   0.00000  Uiso   1.00
F573   F     0.68900   0.85062   0.06613   0.00000  Uiso   1.00
F574   F     0.92062   0.71898   0.47680   0.00000  Uiso   1.00
N575   N     0.83685   0.87817   0.08855   0.00000  Uiso   1.00
O576   O     0.83396   0.89629   0.05160   0.00000  Uiso   1.00
O577   O     0.83212   0.90144   0.12515   0.00000  Uiso   1.00
N578   N     0.86058   0.79583   0.38613   0.00000  Uiso   1.00
O579   O     0.89662   0.81681   0.38987   0.00000  Uiso   1.00
O580   O     0.86997   0.76542   0.35538   0.00000  Uiso   1.00
F581   F     0.94795   0.78097   0.11601   0.00000  Uiso   1.00
F582   F     0.70486   0.85508   0.39651   0.00000  Uiso   1.00
F583   F     0.67109   0.85562   0.49168   0.00000  Uiso   1.00
F584   F     0.95919   0.74085   0.03453   0.00000  Uiso   1.00
F585   F     0.75371   0.83654   0.10668   0.00000  Uiso   1.00
F586   F     0.85266   0.73122   0.43977   0.00000  Uiso   1.00
F587   F     0.91617   0.95728   0.19214   0.00000  Uiso   1.00
F588   F     0.75052   0.70939   0.30774   0.00000  Uiso   1.00
F589   F     0.91614   0.70852   0.19190   0.00000  Uiso   1.00
F590   F     0.75053   0.95816   0.30794   0.00000  Uiso   1.00
F591   F     0.97629   0.77957   0.19275   0.00000  Uiso   1.00
F592   F     0.69024   0.88661   0.30785   0.00000  Uiso   1.00
F593   F     0.73606   0.77951   0.19274   0.00000  Uiso   1.00
F594   F     0.93058   0.88706   0.30739   0.00000  Uiso   1.00
O595   O     0.12846   0.22775   0.75001   0.00000  Uiso   1.00
O596   O     0.20488   0.10558   0.75000   0.00000  Uiso   1.00
O597   O     0.20490   0.22774   0.75000   0.00000  Uiso   1.00
O598   O     0.12843   0.10559   0.75000   0.00000  Uiso   1.00
C599   C     0.16664   0.24663   0.75005   0.00000  Uiso   1.00
C600   C     0.16672   0.08671   0.74990   0.00000  Uiso   1.00
O601   O     0.10661   0.16667   0.81613   0.00000  Uiso   1.00
O602   O     0.22672   0.16666   0.68388   0.00000  Uiso   1.00
O603   O     0.18305   0.16666   0.81612   0.00000  Uiso   1.00
O604   O     0.15028   0.16667   0.68388   0.00000  Uiso   1.00
C605   C     0.13590   0.16492   0.83864   0.00000  Uiso   1.00
C606   C     0.19743   0.16614   0.66149   0.00000  Uiso   1.00
Zn607  Zn    0.11562   0.16667   0.75000   0.00000  Uiso   1.00
Zn608  Zn    0.21771   0.16666   0.75000   0.00000  Uiso   1.00
C609   C     0.11533   0.15916   0.89065   0.00000  Uiso   1.00
C610   C     0.21655   0.15678   0.61065   0.00000  Uiso   1.00
C611   C     0.04983   0.17302   0.96705   0.00000  Uiso   1.00
C612   C     0.25696   0.10377   0.55146   0.00000  Uiso   1.00
C613   C     0.06729   0.17260   0.91771   0.00000  Uiso   1.00
C614   C     0.25254   0.12562   0.59247   0.00000  Uiso   1.00
C615   C     0.14410   0.14125   0.91364   0.00000  Uiso   1.00
C616   C     0.18894   0.16919   0.58442   0.00000  Uiso   1.00
C617   C     0.12579   0.14032   0.96394   0.00000  Uiso   1.00
C618   C     0.18564   0.14131   0.54975   0.00000  Uiso   1.00
C619   C     0.08006   0.15980   0.99031   0.00000  Uiso   1.00
C620   C     0.22221   0.10995   0.53100   0.00000  Uiso   1.00
C621   C     0.15441   0.12546   0.98877   0.00000  Uiso   1.00
C622   C     0.14733   0.14387   0.53285   0.00000  Uiso   1.00
C623   C     0.10085   0.16126   0.55971   0.00000  Uiso   1.00
C624   C     0.18851   0.09237   0.97241   0.00000  Uiso   1.00
C625   C     0.06669   0.16734   0.53910   0.00000  Uiso   1.00
C626   C     0.22196   0.08462   0.99344   0.00000  Uiso   1.00
C627   C     0.20898   0.31168   0.72105   0.00000  Uiso   1.00
C628   C     0.12438   0.02167   0.77882   0.00000  Uiso   1.00
C629   C     0.20900   0.02124   0.72099   0.00000  Uiso   1.00
C630   C     0.12435   0.31211   0.77887   0.00000  Uiso   1.00
C631   C     0.16672   0.04260   0.74991   0.00000  Uiso   1.00
C632   C     0.16664   0.29074   0.74998   0.00000  Uiso   1.00
C633   C     0.32079   0.13985   0.72138   0.00000  Uiso   1.00
C634   C     0.01251   0.19337   0.77878   0.00000  Uiso   1.00
C635   C     0.03537   0.13984   0.72138   0.00000  Uiso   1.00
C636   C     0.29796   0.19345   0.77868   0.00000  Uiso   1.00
N637   N     0.04759   0.16668   0.75001   0.00000  Uiso   1.00
N638   N     0.28574   0.16666   0.74999   0.00000  Uiso   1.00
F639   F     0.02233   0.18395   0.56613   0.00000  Uiso   1.00
F640   F     0.25395   0.05231   0.97680   0.00000  Uiso   1.00
N641   N     0.17018   0.21151   0.58855   0.00000  Uiso   1.00
O642   O     0.16729   0.22962   0.55160   0.00000  Uiso   1.00
O643   O     0.16545   0.23477   0.62515   0.00000  Uiso   1.00
N644   N     0.19392   0.12916   0.88613   0.00000  Uiso   1.00
O645   O     0.22996   0.15014   0.88987   0.00000  Uiso   1.00
O646   O     0.20330   0.09875   0.85538   0.00000  Uiso   1.00
F647   F     0.28128   0.11430   0.61601   0.00000  Uiso   1.00
F648   F     0.03819   0.18842   0.89651   0.00000  Uiso   1.00
F649   F     0.00442   0.18895   0.99168   0.00000  Uiso   1.00
F650   F     0.29253   0.07418   0.53453   0.00000  Uiso   1.00
F651   F     0.08705   0.16988   0.60668   0.00000  Uiso   1.00
F652   F     0.18599   0.06455   0.93977   0.00000  Uiso   1.00
F653   F     0.24950   0.29061   0.69214   0.00000  Uiso   1.00
F654   F     0.08386   0.04273   0.80774   0.00000  Uiso   1.00
F655   F     0.24947   0.04185   0.69190   0.00000  Uiso   1.00
F656   F     0.08386   0.29149   0.80794   0.00000  Uiso   1.00
F657   F     0.30963   0.11291   0.69275   0.00000  Uiso   1.00
F658   F     0.02358   0.21994   0.80785   0.00000  Uiso   1.00
F659   F     0.06939   0.11284   0.69274   0.00000  Uiso   1.00
F660   F     0.26391   0.22039   0.80739   0.00000  Uiso   1.00
O661   O     0.46179   0.22775   0.75001   0.00000  Uiso   1.00
O662   O     0.53821   0.10558   0.75000   0.00000  Uiso   1.00
O663   O     0.53823   0.22774   0.75000   0.00000  Uiso   1.00
O664   O     0.46177   0.10559   0.75000   0.00000  Uiso   1.00
C665   C     0.49997   0.24663   0.75005   0.00000  Uiso   1.00
C666   C     0.50005   0.08671   0.74990   0.00000  Uiso   1.00
O667   O     0.43994   0.16667   0.81613   0.00000  Uiso   1.00
O668   O     0.56006   0.16666   0.68388   0.00000  Uiso   1.00
O669   O     0.51639   0.16666   0.81612   0.00000  Uiso   1.00
O670   O     0.48361   0.16667   0.68388   0.00000  Uiso   1.00
C671   C     0.46923   0.16492   0.83864   0.00000  Uiso   1.00
C672   C     0.53077   0.16614   0.66149   0.00000  Uiso   1.00
Zn673  Zn    0.44896   0.16667   0.75000   0.00000  Uiso   1.00
Zn674  Zn    0.55104   0.16666   0.75000   0.00000  Uiso   1.00
C675   C     0.44866   0.15916   0.89065   0.00000  Uiso   1.00
C676   C     0.54988   0.15678   0.61065   0.00000  Uiso   1.00
C677   C     0.38316   0.17302   0.96705   0.00000  Uiso   1.00
C678   C     0.59029   0.10377   0.55146   0.00000  Uiso   1.00
C679   C     0.40062   0.17260   0.91771   0.00000  Uiso   1.00
C680   C     0.58587   0.12562   0.59247   0.00000  Uiso   1.00
C681   C     0.47744   0.14125   0.91364   0.00000  Uiso   1.00
C682   C     0.52228   0.16919   0.58442   0.00000  Uiso   1.00
C683   C     0.45912   0.14032   0.96394   0.00000  Uiso   1.00
C684   C     0.51897   0.14131   0.54975   0.00000  Uiso   1.00
C685   C     0.41339   0.15980   0.99031   0.00000  Uiso   1.00
C686   C     0.55555   0.10995   0.53100   0.00000  Uiso   1.00
C687   C     0.48774   0.12546   0.98877   0.00000  Uiso   1.00
C688   C     0.48066   0.14387   0.53285   0.00000  Uiso   1.00
C689   C     0.43418   0.16126   0.55971   0.00000  Uiso   1.00
C690   C     0.52185   0.09237   0.97241   0.00000  Uiso   1.00
C691   C     0.40002   0.16734   0.53910   0.00000  Uiso   1.00
C692   C     0.55530   0.08462   0.99344   0.00000  Uiso   1.00
C693   C     0.54231   0.31168   0.72105   0.00000  Uiso   1.00
C694   C     0.45771   0.02167   0.77882   0.00000  Uiso   1.00
C695   C     0.54233   0.02124   0.72099   0.00000  Uiso   1.00
C696   C     0.45768   0.31211   0.77887   0.00000  Uiso   1.00
C697   C     0.50005   0.04260   0.74991   0.00000  Uiso   1.00
C698   C     0.49997   0.29074   0.74998   0.00000  Uiso   1.00
C699   C     0.65413   0.13985   0.72138   0.00000  Uiso   1.00
C700   C     0.34584   0.19337   0.77878   0.00000  Uiso   1.00
C701   C     0.36870   0.13984   0.72138   0.00000  Uiso   1.00
C702   C     0.63129   0.19345   0.77868   0.00000  Uiso   1.00
N703   N     0.38093   0.16668   0.75001   0.00000  Uiso   1.00
N704   N     0.61907   0.16666   0.74999   0.00000  Uiso   1.00
F705   F     0.35567   0.18395   0.56613   0.00000  Uiso   1.00
F706   F     0.58729   0.05231   0.97680   0.00000  Uiso   1.00
N707   N     0.50352   0.21151   0.58855   0.00000  Uiso   1.00
O708   O     0.50062   0.22962   0.55160   0.00000  Uiso   1.00
O709   O     0.49878   0.23477   0.62515   0.00000  Uiso   1.00
N710   N     0.52725   0.12916   0.88613   0.00000  Uiso   1.00
O711   O     0.56329   0.15014   0.88987   0.00000  Uiso   1.00
O712   O     0.53664   0.09875   0.85538   0.00000  Uiso   1.00
F713   F     0.61462   0.11430   0.61601   0.00000  Uiso   1.00
F714   F     0.37153   0.18842   0.89651   0.00000  Uiso   1.00
F715   F     0.33775   0.18895   0.99168   0.00000  Uiso   1.00
F716   F     0.62586   0.07418   0.53453   0.00000  Uiso   1.00
F717   F     0.42038   0.16988   0.60668   0.00000  Uiso   1.00
F718   F     0.51933   0.06455   0.93977   0.00000  Uiso   1.00
F719   F     0.58283   0.29061   0.69214   0.00000  Uiso   1.00
F720   F     0.41719   0.04273   0.80774   0.00000  Uiso   1.00
F721   F     0.58281   0.04185   0.69190   0.00000  Uiso   1.00
F722   F     0.41719   0.29149   0.80794   0.00000  Uiso   1.00
F723   F     0.64296   0.11291   0.69275   0.00000  Uiso   1.00
F724   F     0.35691   0.21994   0.80785   0.00000  Uiso   1.00
F725   F     0.40273   0.11284   0.69274   0.00000  Uiso   1.00
F726   F     0.59725   0.22039   0.80739   0.00000  Uiso   1.00
O727   O     0.79512   0.22775   0.75001   0.00000  Uiso   1.00
O728   O     0.87154   0.10558   0.75000   0.00000  Uiso   1.00
O729   O     0.87157   0.22774   0.75000   0.00000  Uiso   1.00
O730   O     0.79510   0.10559   0.75000   0.00000  Uiso   1.00
C731   C     0.83331   0.24663   0.75005   0.00000  Uiso   1.00
C732   C     0.83338   0.08671   0.74990   0.00000  Uiso   1.00
O733   O     0.77328   0.16667   0.81613   0.00000  Uiso   1.00
O734   O     0.89339   0.16666   0.68388   0.00000  Uiso   1.00
O735   O     0.84972   0.16666   0.81612   0.00000  Uiso   1.00
O736   O     0.81695   0.16667   0.68388   0.00000  Uiso   1.00
C737   C     0.80256   0.16492   0.83864   0.00000  Uiso   1.00
C738   C     0.86410   0.16614   0.66149   0.00000  Uiso   1.00
Zn739  Zn    0.78229   0.16667   0.75000   0.00000  Uiso   1.00
Zn740  Zn    0.88438   0.16666   0.75000   0.00000  Uiso   1.00
C741   C     0.78200   0.15916   0.89065   0.00000  Uiso   1.00
C742   C     0.88322   0.15678   0.61065   0.00000  Uiso   1.00
C743   C     0.71650   0.17302   0.96705   0.00000  Uiso   1.00
C744   C     0.92362   0.10377   0.55146   0.00000  Uiso   1.00
C745   C     0.73395   0.17260   0.91771   0.00000  Uiso   1.00
C746   C     0.91921   0.12562   0.59247   0.00000  Uiso   1.00
C747   C     0.81077   0.14125   0.91364   0.00000  Uiso   1.00
C748   C     0.85561   0.16919   0.58442   0.00000  Uiso   1.00
C749   C     0.79245   0.14032   0.96394   0.00000  Uiso   1.00
C750   C     0.85230   0.14131   0.54975   0.00000  Uiso   1.00
C751   C     0.74673   0.15980   0.99031   0.00000  Uiso   1.00
C752   C     0.88888   0.10995   0.53100   0.00000  Uiso   1.00
C753   C     0.82108   0.12546   0.98877   0.00000  Uiso   1.00
C754   C     0.81399   0.14387   0.53285   0.00000  Uiso   1.00
C755   C     0.76752   0.16126   0.55971   0.00000  Uiso   1.00
C756   C     0.85518   0.09237   0.97241   0.00000  Uiso   1.00
C757   C     0.73336   0.16734   0.53910   0.00000  Uiso   1.00
C758   C     0.88863   0.08462   0.99344   0.00000  Uiso   1.00
C759   C     0.87564   0.31168   0.72105   0.00000  Uiso   1.00
C760   C     0.79104   0.02167   0.77882   0.00000  Uiso   1.00
C761   C     0.87567   0.02124   0.72099   0.00000  Uiso   1.00
C762   C     0.79101   0.31211   0.77887   0.00000  Uiso   1.00
C763   C     0.83339   0.04260   0.74991   0.00000  Uiso   1.00
C764   C     0.83331   0.29074   0.74998   0.00000  Uiso   1.00
C765   C     0.98746   0.13985   0.72138   0.00000  Uiso   1.00
C766   C     0.67917   0.19337   0.77878   0.00000  Uiso   1.00
C767   C     0.70204   0.13984   0.72138   0.00000  Uiso   1.00
C768   C     0.96462   0.19345   0.77868   0.00000  Uiso   1.00
N769   N     0.71426   0.16668   0.75001   0.00000  Uiso   1.00
N770   N     0.95241   0.16666   0.74999   0.00000  Uiso   1.00
F771   F     0.68900   0.18395   0.56613   0.00000  Uiso   1.00
F772   F     0.92062   0.05231   0.97680   0.00000  Uiso   1.00
N773   N     0.83685   0.21151   0.58855   0.00000  Uiso   1.00
O774   O     0.83396   0.22962   0.55160   0.00000  Uiso   1.00
O775   O     0.83212   0.23477   0.62515   0.00000  Uiso   1.00
N776   N     0.86058   0.12916   0.88613   0.00000  Uiso   1.00
O777   O     0.89662   0.15014   0.88987   0.00000  Uiso   1.00
O778   O     0.86997   0.09875   0.85538   0.00000  Uiso   1.00
F779   F     0.94795   0.11430   0.61601   0.00000  Uiso   1.00
F780   F     0.70486   0.18842   0.89651   0.00000  Uiso   1.00
F781   F     0.67109   0.18895   0.99168   0.00000  Uiso   1.00
F782   F     0.95919   0.07418   0.53453   0.00000  Uiso   1.00
F783   F     0.75371   0.16988   0.60668   0.00000  Uiso   1.00
F784   F     0.85266   0.06455   0.93977   0.00000  Uiso   1.00
F785   F     0.91617   0.29061   0.69214   0.00000  Uiso   1.00
F786   F     0.75052   0.04273   0.80774   0.00000  Uiso   1.00
F787   F     0.91614   0.04185   0.69190   0.00000  Uiso   1.00
F788   F     0.75053   0.29149   0.80794   0.00000  Uiso   1.00
F789   F     0.97629   0.11291   0.69275   0.00000  Uiso   1.00
F790   F     0.69024   0.21994   0.80785   0.00000  Uiso   1.00
F791   F     0.73606   0.11284   0.69274   0.00000  Uiso   1.00
F792   F     0.93058   0.22039   0.80739   0.00000  Uiso   1.00
O793   O     0.12846   0.56108   0.75001   0.00000  Uiso   1.00
O794   O     0.20488   0.43892   0.75000   0.00000  Uiso   1.00
O795   O     0.20490   0.56107   0.75000   0.00000  Uiso   1.00
O796   O     0.12843   0.43893   0.75000   0.00000  Uiso   1.00
C797   C     0.16664   0.57996   0.75005   0.00000  Uiso   1.00
C798   C     0.16672   0.42004   0.74990   0.00000  Uiso   1.00
O799   O     0.10661   0.50001   0.81613   0.00000  Uiso   1.00
O800   O     0.22672   0.49999   0.68388   0.00000  Uiso   1.00
O801   O     0.18305   0.50000   0.81612   0.00000  Uiso   1.00
O802   O     0.15028   0.50000   0.68388   0.00000  Uiso   1.00
C803   C     0.13590   0.49825   0.83864   0.00000  Uiso   1.00
C804   C     0.19743   0.49947   0.66149   0.00000  Uiso   1.00
Zn805  Zn    0.11562   0.50001   0.75000   0.00000  Uiso   1.00
Zn806  Zn    0.21771   0.49999   0.75000   0.00000  Uiso   1.00
C807   C     0.11533   0.49249   0.89065   0.00000  Uiso   1.00
C808   C     0.21655   0.49012   0.61065   0.00000  Uiso   1.00
C809   C     0.04983   0.50635   0.96705   0.00000  Uiso   1.00
C810   C     0.25696   0.43710   0.55146   0.00000  Uiso   1.00
C811   C     0.06729   0.50594   0.91771   0.00000  Uiso   1.00
C812   C     0.25254   0.45895   0.59247   0.00000  Uiso   1.00
C813   C     0.14410   0.47458   0.91364   0.00000  Uiso   1.00
C814   C     0.18894   0.50252   0.58442   0.00000  Uiso   1.00
C815   C     0.12579   0.47365   0.96394   0.00000  Uiso   1.00
C816   C     0.18564   0.47464   0.54975   0.00000  Uiso   1.00
C817   C     0.08006   0.49314   0.99031   0.00000  Uiso   1.00
C818   C     0.22221   0.44329   0.53100   0.00000  Uiso   1.00
C819   C     0.15441   0.45880   0.98877   0.00000  Uiso   1.00
C820   C     0.14733   0.47720   0.53285   0.00000  Uiso   1.00
C821   C     0.10085   0.49460   0.55971   0.00000  Uiso   1.00
C822   C     0.18851   0.42571   0.97241   0.00000  Uiso   1.00
C823   C     0.06669   0.50067   0.53910   0.00000  Uiso   1.00
C824   C     0.22196   0.41795   0.99344   0.00000  Uiso   1.00
C825   C     0.20898   0.64501   0.72105   0.00000  Uiso   1.00
C826   C     0.12438   0.35500   0.77882   0.00000  Uiso   1.00
C827   C     0.20900   0.35457   0.72099   0.00000  Uiso   1.00
C828   C     0.12435   0.64544   0.77887   0.00000  Uiso   1.00
C829   C     0.16672   0.37594   0.74991   0.00000  Uiso   1.00
C830   C     0.16664   0.62407   0.74998   0.00000  Uiso   1.00
C831   C     0.32079   0.47318   0.72138   0.00000  Uiso   1.00
C832   C     0.01251   0.52670   0.77878   0.00000  Uiso   1.00
C833   C     0.03537   0.47317   0.72138   0.00000  Uiso   1.00
C834   C     0.29796   0.52679   0.77868   0.00000  Uiso   1.00
N835   N     0.04759   0.50001   0.75001   0.00000  Uiso   1.00
N836   N     0.28574   0.49999   0.74999   0.00000  Uiso   1.00
F837   F     0.02233   0.51728   0.56613   0.00000  Uiso   1.00
F838   F     0.25395   0.38564   0.97680   0.00000  Uiso   1.00
N839   N     0.17018   0.54484   0.58855   0.00000  Uiso   1.00
O840   O     0.16729   0.56296   0.55160   0.00000  Uiso   1.00
O841   O     0.16545   0.56810   0.62515   0.00000  Uiso   1.00
N842   N     0.19392   0.46249   0.88613   0.00000  Uiso   1.00
O843   O     0.22996   0.48348   0.88987   0.00000  Uiso   1.00
O844   O     0.20330   0.43208   0.85538   0.00000  Uiso   1.00
F845   F     0.28128   0.44763   0.61601   0.00000  Uiso   1.00
F846   F     0.03819   0.52175   0.89651   0.00000  Uiso   1.00
F847   F     0.00442   0.52229   0.99168   0.00000  Uiso   1.00
F848   F     0.29253   0.40751   0.53453   0.00000  Uiso   1.00
F849   F     0.08705   0.50321   0.60668   0.00000  Uiso   1.00
F850   F     0.18599   0.39788   0.93977   0.00000  Uiso   1.00
F851   F     0.24950   0.62395   0.69214   0.00000  Uiso   1.00
F852   F     0.08386   0.37606   0.80774   0.00000  Uiso   1.00
F853   F     0.24947   0.37519   0.69190   0.00000  Uiso   1.00
F854   F     0.08386   0.62483   0.80794   0.00000  Uiso   1.00
F855   F     0.30963   0.44624   0.69275   0.00000  Uiso   1.00
F856   F     0.02358   0.55328   0.80785   0.00000  Uiso   1.00
F857   F     0.06939   0.44617   0.69274   0.00000  Uiso   1.00
F858   F     0.26391   0.55373   0.80739   0.00000  Uiso   1.00
O859   O     0.46179   0.56108   0.75001   0.00000  Uiso   1.00
O860   O     0.53821   0.43892   0.75000   0.00000  Uiso   1.00
O861   O     0.53823   0.56107   0.75000   0.00000  Uiso   1.00
O862   O     0.46177   0.43893   0.75000   0.00000  Uiso   1.00
C863   C     0.49997   0.57996   0.75005   0.00000  Uiso   1.00
C864   C     0.50005   0.42004   0.74990   0.00000  Uiso   1.00
O865   O     0.43994   0.50001   0.81613   0.00000  Uiso   1.00
O866   O     0.56006   0.49999   0.68388   0.00000  Uiso   1.00
O867   O     0.51639   0.50000   0.81612   0.00000  Uiso   1.00
O868   O     0.48361   0.50000   0.68388   0.00000  Uiso   1.00
C869   C     0.46923   0.49825   0.83864   0.00000  Uiso   1.00
C870   C     0.53077   0.49947   0.66149   0.00000  Uiso   1.00
Zn871  Zn    0.44896   0.50001   0.75000   0.00000  Uiso   1.00
Zn872  Zn    0.55104   0.49999   0.75000   0.00000  Uiso   1.00
C873   C     0.44866   0.49249   0.89065   0.00000  Uiso   1.00
C874   C     0.54988   0.49012   0.61065   0.00000  Uiso   1.00
C875   C     0.38316   0.50635   0.96705   0.00000  Uiso   1.00
C876   C     0.59029   0.43710   0.55146   0.00000  Uiso   1.00
C877   C     0.40062   0.50594   0.91771   0.00000  Uiso   1.00
C878   C     0.58587   0.45895   0.59247   0.00000  Uiso   1.00
C879   C     0.47744   0.47458   0.91364   0.00000  Uiso   1.00
C880   C     0.52228   0.50252   0.58442   0.00000  Uiso   1.00
C881   C     0.45912   0.47365   0.96394   0.00000  Uiso   1.00
C882   C     0.51897   0.47464   0.54975   0.00000  Uiso   1.00
C883   C     0.41339   0.49314   0.99031   0.00000  Uiso   1.00
C884   C     0.55555   0.44329   0.53100   0.00000  Uiso   1.00
C885   C     0.48774   0.45880   0.98877   0.00000  Uiso   1.00
C886   C     0.48066   0.47720   0.53285   0.00000  Uiso   1.00
C887   C     0.43418   0.49460   0.55971   0.00000  Uiso   1.00
C888   C     0.52185   0.42571   0.97241   0.00000  Uiso   1.00
C889   C     0.40002   0.50067   0.53910   0.00000  Uiso   1.00
C890   C     0.55530   0.41795   0.99344   0.00000  Uiso   1.00
C891   C     0.54231   0.64501   0.72105   0.00000  Uiso   1.00
C892   C     0.45771   0.35500   0.77882   0.00000  Uiso   1.00
C893   C     0.54233   0.35457   0.72099   0.00000  Uiso   1.00
C894   C     0.45768   0.64544   0.77887   0.00000  Uiso   1.00
C895   C     0.50005   0.37594   0.74991   0.00000  Uiso   1.00
C896   C     0.49997   0.62407   0.74998   0.00000  Uiso   1.00
C897   C     0.65413   0.47318   0.72138   0.00000  Uiso   1.00
C898   C     0.34584   0.52670   0.77878   0.00000  Uiso   1.00
C899   C     0.36870   0.47317   0.72138   0.00000  Uiso   1.00
C900   C     0.63129   0.52679   0.77868   0.00000  Uiso   1.00
N901   N     0.38093   0.50001   0.75001   0.00000  Uiso   1.00
N902   N     0.61907   0.49999   0.74999   0.00000  Uiso   1.00
F903   F     0.35567   0.51728   0.56613   0.00000  Uiso   1.00
F904   F     0.58729   0.38564   0.97680   0.00000  Uiso   1.00
N905   N     0.50352   0.54484   0.58855   0.00000  Uiso   1.00
O906   O     0.50062   0.56296   0.55160   0.00000  Uiso   1.00
O907   O     0.49878   0.56810   0.62515   0.00000  Uiso   1.00
N908   N     0.52725   0.46249   0.88613   0.00000  Uiso   1.00
O909   O     0.56329   0.48348   0.88987   0.00000  Uiso   1.00
O910   O     0.53664   0.43208   0.85538   0.00000  Uiso   1.00
F911   F     0.61462   0.44763   0.61601   0.00000  Uiso   1.00
F912   F     0.37153   0.52175   0.89651   0.00000  Uiso   1.00
F913   F     0.33775   0.52229   0.99168   0.00000  Uiso   1.00
F914   F     0.62586   0.40751   0.53453   0.00000  Uiso   1.00
F915   F     0.42038   0.50321   0.60668   0.00000  Uiso   1.00
F916   F     0.51933   0.39788   0.93977   0.00000  Uiso   1.00
F917   F     0.58283   0.62395   0.69214   0.00000  Uiso   1.00
F918   F     0.41719   0.37606   0.80774   0.00000  Uiso   1.00
F919   F     0.58281   0.37519   0.69190   0.00000  Uiso   1.00
F920   F     0.41719   0.62483   0.80794   0.00000  Uiso   1.00
F921   F     0.64296   0.44624   0.69275   0.00000  Uiso   1.00
F922   F     0.35691   0.55328   0.80785   0.00000  Uiso   1.00
F923   F     0.40273   0.44617   0.69274   0.00000  Uiso   1.00
F924   F     0.59725   0.55373   0.80739   0.00000  Uiso   1.00
O925   O     0.79512   0.56108   0.75001   0.00000  Uiso   1.00
O926   O     0.87154   0.43892   0.75000   0.00000  Uiso   1.00
O927   O     0.87157   0.56107   0.75000   0.00000  Uiso   1.00
O928   O     0.79510   0.43893   0.75000   0.00000  Uiso   1.00
C929   C     0.83331   0.57996   0.75005   0.00000  Uiso   1.00
C930   C     0.83338   0.42004   0.74990   0.00000  Uiso   1.00
O931   O     0.77328   0.50001   0.81613   0.00000  Uiso   1.00
O932   O     0.89339   0.49999   0.68388   0.00000  Uiso   1.00
O933   O     0.84972   0.50000   0.81612   0.00000  Uiso   1.00
O934   O     0.81695   0.50000   0.68388   0.00000  Uiso   1.00
C935   C     0.80256   0.49825   0.83864   0.00000  Uiso   1.00
C936   C     0.86410   0.49947   0.66149   0.00000  Uiso   1.00
Zn937  Zn    0.78229   0.50001   0.75000   0.00000  Uiso   1.00
Zn938  Zn    0.88438   0.49999   0.75000   0.00000  Uiso   1.00
C939   C     0.78200   0.49249   0.89065   0.00000  Uiso   1.00
C940   C     0.88322   0.49012   0.61065   0.00000  Uiso   1.00
C941   C     0.71650   0.50635   0.96705   0.00000  Uiso   1.00
C942   C     0.92362   0.43710   0.55146   0.00000  Uiso   1.00
C943   C     0.73395   0.50594   0.91771   0.00000  Uiso   1.00
C944   C     0.91921   0.45895   0.59247   0.00000  Uiso   1.00
C945   C     0.81077   0.47458   0.91364   0.00000  Uiso   1.00
C946   C     0.85561   0.50252   0.58442   0.00000  Uiso   1.00
C947   C     0.79245   0.47365   0.96394   0.00000  Uiso   1.00
C948   C     0.85230   0.47464   0.54975   0.00000  Uiso   1.00
C949   C     0.74673   0.49314   0.99031   0.00000  Uiso   1.00
C950   C     0.88888   0.44329   0.53100   0.00000  Uiso   1.00
C951   C     0.82108   0.45880   0.98877   0.00000  Uiso   1.00
C952   C     0.81399   0.47720   0.53285   0.00000  Uiso   1.00
C953   C     0.76752   0.49460   0.55971   0.00000  Uiso   1.00
C954   C     0.85518   0.42571   0.97241   0.00000  Uiso   1.00
C955   C     0.73336   0.50067   0.53910   0.00000  Uiso   1.00
C956   C     0.88863   0.41795   0.99344   0.00000  Uiso   1.00
C957   C     0.87564   0.64501   0.72105   0.00000  Uiso   1.00
C958   C     0.79104   0.35500   0.77882   0.00000  Uiso   1.00
C959   C     0.87567   0.35457   0.72099   0.00000  Uiso   1.00
C960   C     0.79101   0.64544   0.77887   0.00000  Uiso   1.00
C961   C     0.83339   0.37594   0.74991   0.00000  Uiso   1.00
C962   C     0.83331   0.62407   0.74998   0.00000  Uiso   1.00
C963   C     0.98746   0.47318   0.72138   0.00000  Uiso   1.00
C964   C     0.67917   0.52670   0.77878   0.00000  Uiso   1.00
C965   C     0.70204   0.47317   0.72138   0.00000  Uiso   1.00
C966   C     0.96462   0.52679   0.77868   0.00000  Uiso   1.00
N967   N     0.71426   0.50001   0.75001   0.00000  Uiso   1.00
N968   N     0.95241   0.49999   0.74999   0.00000  Uiso   1.00
F969   F     0.68900   0.51728   0.56613   0.00000  Uiso   1.00
F970   F     0.92062   0.38564   0.97680   0.00000  Uiso   1.00
N971   N     0.83685   0.54484   0.58855   0.00000  Uiso   1.00
O972   O     0.83396   0.56296   0.55160   0.00000  Uiso   1.00
O973   O     0.83212   0.56810   0.62515   0.00000  Uiso   1.00
N974   N     0.86058   0.46249   0.88613   0.00000  Uiso   1.00
O975   O     0.89662   0.48348   0.88987   0.00000  Uiso   1.00
O976   O     0.86997   0.43208   0.85538   0.00000  Uiso   1.00
F977   F     0.94795   0.44763   0.61601   0.00000  Uiso   1.00
F978   F     0.70486   0.52175   0.89651   0.00000  Uiso   1.00
F979   F     0.67109   0.52229   0.99168   0.00000  Uiso   1.00
F980   F     0.95919   0.40751   0.53453   0.00000  Uiso   1.00
F981   F     0.75371   0.50321   0.60668   0.00000  Uiso   1.00
F982   F     0.85266   0.39788   0.93977   0.00000  Uiso   1.00
F983   F     0.91617   0.62395   0.69214   0.00000  Uiso   1.00
F984   F     0.75052   0.37606   0.80774   0.00000  Uiso   1.00
F985   F     0.91614   0.37519   0.69190   0.00000  Uiso   1.00
F986   F     0.75053   0.62483   0.80794   0.00000  Uiso   1.00
F987   F     0.97629   0.44624   0.69275   0.00000  Uiso   1.00
F988   F     0.69024   0.55328   0.80785   0.00000  Uiso   1.00
F989   F     0.73606   0.44617   0.69274   0.00000  Uiso   1.00
F990   F     0.93058   0.55373   0.80739   0.00000  Uiso   1.00
O991   O     0.12846   0.89442   0.75001   0.00000  Uiso   1.00
O992   O     0.20488   0.77225   0.75000   0.00000  Uiso   1.00
O993   O     0.20490   0.89441   0.75000   0.00000  Uiso   1.00
O994   O     0.12843   0.77226   0.75000   0.00000  Uiso   1.00
C995   C     0.16664   0.91329   0.75005   0.00000  Uiso   1.00
C996   C     0.16672   0.75337   0.74990   0.00000  Uiso   1.00
O997   O     0.10661   0.83334   0.81613   0.00000  Uiso   1.00
O998   O     0.22672   0.83333   0.68388   0.00000  Uiso   1.00
O999   O     0.18305   0.83333   0.81612   0.00000  Uiso   1.00
O1000  O     0.15028   0.83334   0.68388   0.00000  Uiso   1.00
C1001  C     0.13590   0.83158   0.83864   0.00000  Uiso   1.00
C1002  C     0.19743   0.83281   0.66149   0.00000  Uiso   1.00
Zn1003 Zn    0.11562   0.83334   0.75000   0.00000  Uiso   1.00
Zn1004 Zn    0.21771   0.83333   0.75000   0.00000  Uiso   1.00
C1005  C     0.11533   0.82583   0.89065   0.00000  Uiso   1.00
C1006  C     0.21655   0.82345   0.61065   0.00000  Uiso   1.00
C1007  C     0.04983   0.83969   0.96705   0.00000  Uiso   1.00
C1008  C     0.25696   0.77044   0.55146   0.00000  Uiso   1.00
C1009  C     0.06729   0.83927   0.91771   0.00000  Uiso   1.00
C1010  C     0.25254   0.79229   0.59247   0.00000  Uiso   1.00
C1011  C     0.14410   0.80791   0.91364   0.00000  Uiso   1.00
C1012  C     0.18894   0.83585   0.58442   0.00000  Uiso   1.00
C1013  C     0.12579   0.80698   0.96394   0.00000  Uiso   1.00
C1014  C     0.18564   0.80797   0.54975   0.00000  Uiso   1.00
C1015  C     0.08006   0.82647   0.99031   0.00000  Uiso   1.00
C1016  C     0.22221   0.77662   0.53100   0.00000  Uiso   1.00
C1017  C     0.15441   0.79213   0.98877   0.00000  Uiso   1.00
C1018  C     0.14733   0.81053   0.53285   0.00000  Uiso   1.00
C1019  C     0.10085   0.82793   0.55971   0.00000  Uiso   1.00
C1020  C     0.18851   0.75904   0.97241   0.00000  Uiso   1.00
C1021  C     0.06669   0.83400   0.53910   0.00000  Uiso   1.00
C1022  C     0.22196   0.75129   0.99344   0.00000  Uiso   1.00
C1023  C     0.20898   0.97834   0.72105   0.00000  Uiso   1.00
C1024  C     0.12438   0.68833   0.77882   0.00000  Uiso   1.00
C1025  C     0.20900   0.68791   0.72099   0.00000  Uiso   1.00
C1026  C     0.12435   0.97877   0.77887   0.00000  Uiso   1.00
C1027  C     0.16672   0.70927   0.74991   0.00000  Uiso   1.00
C1028  C     0.16664   0.95740   0.74998   0.00000  Uiso   1.00
C1029  C     0.32079   0.80651   0.72138   0.00000  Uiso   1.00
C1030  C     0.01251   0.86003   0.77878   0.00000  Uiso   1.00
C1031  C     0.03537   0.80651   0.72138   0.00000  Uiso   1.00
C1032  C     0.29796   0.86012   0.77868   0.00000  Uiso   1.00
N1033  N     0.04759   0.83334   0.75001   0.00000  Uiso   1.00
N1034  N     0.28574   0.83332   0.74999   0.00000  Uiso   1.00
F1035  F     0.02233   0.85062   0.56613   0.00000  Uiso   1.00
F1036  F     0.25395   0.71898   0.97680   0.00000  Uiso   1.00
N1037  N     0.17018   0.87817   0.58855   0.00000  Uiso   1.00
O1038  O     0.16729   0.89629   0.55160   0.00000  Uiso   1.00
O1039  O     0.16545   0.90144   0.62515   0.00000  Uiso   1.00
N1040  N     0.19392   0.79583   0.88613   0.00000  Uiso   1.00
O1041  O     0.22996   0.81681   0.88987   0.00000  Uiso   1.00
O1042  O     0.20330   0.76542   0.85538   0.00000  Uiso   1.00
F1043  F     0.28128   0.78097   0.61601   0.00000  Uiso   1.00
F1044  F     0.03819   0.85508   0.89651   0.00000  Uiso   1.00
F1045  F     0.00442   0.85562   0.99168   0.00000  Uiso   1.00
F1046  F     0.29253   0.74085   0.53453   0.00000  Uiso   1.00
F1047  F     0.08705   0.83654   0.60668   0.00000  Uiso   1.00
F1048  F     0.18599   0.73122   0.93977   0.00000  Uiso   1.00
F1049  F     0.24950   0.95728   0.69214   0.00000  Uiso   1.00
F1050  F     0.08386   0.70939   0.80774   0.00000  Uiso   1.00
F1051  F     0.24947   0.70852   0.69190   0.00000  Uiso   1.00
F1052  F     0.08386   0.95816   0.80794   0.00000  Uiso   1.00
F1053  F     0.30963   0.77957   0.69275   0.00000  Uiso   1.00
F1054  F     0.02358   0.88661   0.80785   0.00000  Uiso   1.00
F1055  F     0.06939   0.77951   0.69274   0.00000  Uiso   1.00
F1056  F     0.26391   0.88706   0.80739   0.00000  Uiso   1.00
O1057  O     0.46179   0.89442   0.75001   0.00000  Uiso   1.00
O1058  O     0.53821   0.77225   0.75000   0.00000  Uiso   1.00
O1059  O     0.53823   0.89441   0.75000   0.00000  Uiso   1.00
O1060  O     0.46177   0.77226   0.75000   0.00000  Uiso   1.00
C1061  C     0.49997   0.91329   0.75005   0.00000  Uiso   1.00
C1062  C     0.50005   0.75337   0.74990   0.00000  Uiso   1.00
O1063  O     0.43994   0.83334   0.81613   0.00000  Uiso   1.00
O1064  O     0.56006   0.83333   0.68388   0.00000  Uiso   1.00
O1065  O     0.51639   0.83333   0.81612   0.00000  Uiso   1.00
O1066  O     0.48361   0.83334   0.68388   0.00000  Uiso   1.00
C1067  C     0.46923   0.83158   0.83864   0.00000  Uiso   1.00
C1068  C     0.53077   0.83281   0.66149   0.00000  Uiso   1.00
Zn1069 Zn    0.44896   0.83334   0.75000   0.00000  Uiso   1.00
Zn1070 Zn    0.55104   0.83333   0.75000   0.00000  Uiso   1.00
C1071  C     0.44866   0.82583   0.89065   0.00000  Uiso   1.00
C1072  C     0.54988   0.82345   0.61065   0.00000  Uiso   1.00
C1073  C     0.38316   0.83969   0.96705   0.00000  Uiso   1.00
C1074  C     0.59029   0.77044   0.55146   0.00000  Uiso   1.00
C1075  C     0.40062   0.83927   0.91771   0.00000  Uiso   1.00
C1076  C     0.58587   0.79229   0.59247   0.00000  Uiso   1.00
C1077  C     0.47744   0.80791   0.91364   0.00000  Uiso   1.00
C1078  C     0.52228   0.83585   0.58442   0.00000  Uiso   1.00
C1079  C     0.45912   0.80698   0.96394   0.00000  Uiso   1.00
C1080  C     0.51897   0.80797   0.54975   0.00000  Uiso   1.00
C1081  C     0.41339   0.82647   0.99031   0.00000  Uiso   1.00
C1082  C     0.55555   0.77662   0.53100   0.00000  Uiso   1.00
C1083  C     0.48774   0.79213   0.98877   0.00000  Uiso   1.00
C1084  C     0.48066   0.81053   0.53285   0.00000  Uiso   1.00
C1085  C     0.43418   0.82793   0.55971   0.00000  Uiso   1.00
C1086  C     0.52185   0.75904   0.97241   0.00000  Uiso   1.00
C1087  C     0.40002   0.83400   0.53910   0.00000  Uiso   1.00
C1088  C     0.55530   0.75129   0.99344   0.00000  Uiso   1.00
C1089  C     0.54231   0.97834   0.72105   0.00000  Uiso   1.00
C1090  C     0.45771   0.68833   0.77882   0.00000  Uiso   1.00
C1091  C     0.54233   0.68791   0.72099   0.00000  Uiso   1.00
C1092  C     0.45768   0.97877   0.77887   0.00000  Uiso   1.00
C1093  C     0.50005   0.70927   0.74991   0.00000  Uiso   1.00
C1094  C     0.49997   0.95740   0.74998   0.00000  Uiso   1.00
C1095  C     0.65413   0.80651   0.72138   0.00000  Uiso   1.00
C1096  C     0.34584   0.86003   0.77878   0.00000  Uiso   1.00
C1097  C     0.36870   0.80651   0.72138   0.00000  Uiso   1.00
C1098  C     0.63129   0.86012   0.77868   0.00000  Uiso   1.00
N1099  N     0.38093   0.83334   0.75001   0.00000  Uiso   1.00
N1100  N     0.61907   0.83332   0.74999   0.00000  Uiso   1.00
F1101  F     0.35567   0.85062   0.56613   0.00000  Uiso   1.00
F1102  F     0.58729   0.71898   0.97680   0.00000  Uiso   1.00
N1103  N     0.50352   0.87817   0.58855   0.00000  Uiso   1.00
O1104  O     0.50062   0.89629   0.55160   0.00000  Uiso   1.00
O1105  O     0.49878   0.90144   0.62515   0.00000  Uiso   1.00
N1106  N     0.52725   0.79583   0.88613   0.00000  Uiso   1.00
O1107  O     0.56329   0.81681   0.88987   0.00000  Uiso   1.00
O1108  O     0.53664   0.76542   0.85538   0.00000  Uiso   1.00
F1109  F     0.61462   0.78097   0.61601   0.00000  Uiso   1.00
F1110  F     0.37153   0.85508   0.89651   0.00000  Uiso   1.00
F1111  F     0.33775   0.85562   0.99168   0.00000  Uiso   1.00
F1112  F     0.62586   0.74085   0.53453   0.00000  Uiso   1.00
F1113  F     0.42038   0.83654   0.60668   0.00000  Uiso   1.00
F1114  F     0.51933   0.73122   0.93977   0.00000  Uiso   1.00
F1115  F     0.58283   0.95728   0.69214   0.00000  Uiso   1.00
F1116  F     0.41719   0.70939   0.80774   0.00000  Uiso   1.00
F1117  F     0.58281   0.70852   0.69190   0.00000  Uiso   1.00
F1118  F     0.41719   0.95816   0.80794   0.00000  Uiso   1.00
F1119  F     0.64296   0.77957   0.69275   0.00000  Uiso   1.00
F1120  F     0.35691   0.88661   0.80785   0.00000  Uiso   1.00
F1121  F     0.40273   0.77951   0.69274   0.00000  Uiso   1.00
F1122  F     0.59725   0.88706   0.80739   0.00000  Uiso   1.00
O1123  O     0.79512   0.89442   0.75001   0.00000  Uiso   1.00
O1124  O     0.87154   0.77225   0.75000   0.00000  Uiso   1.00
O1125  O     0.87157   0.89441   0.75000   0.00000  Uiso   1.00
O1126  O     0.79510   0.77226   0.75000   0.00000  Uiso   1.00
C1127  C     0.83331   0.91329   0.75005   0.00000  Uiso   1.00
C1128  C     0.83338   0.75337   0.74990   0.00000  Uiso   1.00
O1129  O     0.77328   0.83334   0.81613   0.00000  Uiso   1.00
O1130  O     0.89339   0.83333   0.68388   0.00000  Uiso   1.00
O1131  O     0.84972   0.83333   0.81612   0.00000  Uiso   1.00
O1132  O     0.81695   0.83334   0.68388   0.00000  Uiso   1.00
C1133  C     0.80256   0.83158   0.83864   0.00000  Uiso   1.00
C1134  C     0.86410   0.83281   0.66149   0.00000  Uiso   1.00
Zn1135 Zn    0.78229   0.83334   0.75000   0.00000  Uiso   1.00
Zn1136 Zn    0.88438   0.83333   0.75000   0.00000  Uiso   1.00
C1137  C     0.78200   0.82583   0.89065   0.00000  Uiso   1.00
C1138  C     0.88322   0.82345   0.61065   0.00000  Uiso   1.00
C1139  C     0.71650   0.83969   0.96705   0.00000  Uiso   1.00
C1140  C     0.92362   0.77044   0.55146   0.00000  Uiso   1.00
C1141  C     0.73395   0.83927   0.91771   0.00000  Uiso   1.00
C1142  C     0.91921   0.79229   0.59247   0.00000  Uiso   1.00
C1143  C     0.81077   0.80791   0.91364   0.00000  Uiso   1.00
C1144  C     0.85561   0.83585   0.58442   0.00000  Uiso   1.00
C1145  C     0.79245   0.80698   0.96394   0.00000  Uiso   1.00
C1146  C     0.85230   0.80797   0.54975   0.00000  Uiso   1.00
C1147  C     0.74673   0.82647   0.99031   0.00000  Uiso   1.00
C1148  C     0.88888   0.77662   0.53100   0.00000  Uiso   1.00
C1149  C     0.82108   0.79213   0.98877   0.00000  Uiso   1.00
C1150  C     0.81399   0.81053   0.53285   0.00000  Uiso   1.00
C1151  C     0.76752   0.82793   0.55971   0.00000  Uiso   1.00
C1152  C     0.85518   0.75904   0.97241   0.00000  Uiso   1.00
C1153  C     0.73336   0.83400   0.53910   0.00000  Uiso   1.00
C1154  C     0.88863   0.75129   0.99344   0.00000  Uiso   1.00
C1155  C     0.87564   0.97834   0.72105   0.00000  Uiso   1.00
C1156  C     0.79104   0.68833   0.77882   0.00000  Uiso   1.00
C1157  C     0.87567   0.68791   0.72099   0.00000  Uiso   1.00
C1158  C     0.79101   0.97877   0.77887   0.00000  Uiso   1.00
C1159  C     0.83339   0.70927   0.74991   0.00000  Uiso   1.00
C1160  C     0.83331   0.95740   0.74998   0.00000  Uiso   1.00
C1161  C     0.98746   0.80651   0.72138   0.00000  Uiso   1.00
C1162  C     0.67917   0.86003   0.77878   0.00000  Uiso   1.00
C1163  C     0.70204   0.80651   0.72138   0.00000  Uiso   1.00
C1164  C     0.96462   0.86012   0.77868   0.00000  Uiso   1.00
N1165  N     0.71426   0.83334   0.75001   0.00000  Uiso   1.00
N1166  N     0.95241   0.83332   0.74999   0.00000  Uiso   1.00
F1167  F     0.68900   0.85062   0.56613   0.00000  Uiso   1.00
F1168  F     0.92062   0.71898   0.97680   0.00000  Uiso   1.00
N1169  N     0.83685   0.87817   0.58855   0.00000  Uiso   1.00
O1170  O     0.83396   0.89629   0.55160   0.00000  Uiso   1.00
O1171  O     0.83212   0.90144   0.62515   0.00000  Uiso   1.00
N1172  N     0.86058   0.79583   0.88613   0.00000  Uiso   1.00
O1173  O     0.89662   0.81681   0.88987   0.00000  Uiso   1.00
O1174  O     0.86997   0.76542   0.85538   0.00000  Uiso   1.00
F1175  F     0.94795   0.78097   0.61601   0.00000  Uiso   1.00
F1176  F     0.70486   0.85508   0.89651   0.00000  Uiso   1.00
F1177  F     0.67109   0.85562   0.99168   0.00000  Uiso   1.00
F1178  F     0.95919   0.74085   0.53453   0.00000  Uiso   1.00
F1179  F     0.75371   0.83654   0.60668   0.00000  Uiso   1.00
F1180  F     0.85266   0.73122   0.93977   0.00000  Uiso   1.00
F1181  F     0.91617   0.95728   0.69214   0.00000  Uiso   1.00
F1182  F     0.75052   0.70939   0.80774   0.00000  Uiso   1.00
F1183  F     0.91614   0.70852   0.69190   0.00000  Uiso   1.00
F1184  F     0.75053   0.95816   0.80794   0.00000  Uiso   1.00
F1185  F     0.97629   0.77957   0.69275   0.00000  Uiso   1.00
F1186  F     0.69024   0.88661   0.80785   0.00000  Uiso   1.00
F1187  F     0.73606   0.77951   0.69274   0.00000  Uiso   1.00
F1188  F     0.93058   0.88706   0.80739   0.00000  Uiso   1.00
loop_
_geom_bond_atom_site_label_1
_geom_bond_atom_site_label_2
_geom_bond_distance
_geom_bond_site_symmetry_2
_ccdc_geom_bond_type
O1     C5      1.281   .     A
O1     Zn13    1.992   .     S
O2     C6      1.281   .     A
O2     Zn14    1.992   .     S
O3     C5      1.281   .     A
O3     Zn14    1.991   .     S
O4     C6      1.281   .     A
O4     Zn13    1.991   .     S
C5     C38     1.412   .     S
C6     C37     1.411   .     S
O7     C11     1.297   .     A
O7     Zn13    1.931   .     S
O8     C12     1.293   .     A
O8     Zn14    1.931   .     S
O9     Zn14    1.879   .     S
O9     C11     1.297   .     A
O10    C12     1.295   .     A
O10    Zn13    1.879   .     S
C11    C15     1.478   .     S
C12    C16     1.462   .     S
Zn13   N43     2.011   .     S
Zn14   N44     2.011   .     S
C15    C19     1.406   .     A
C15    C21     1.416   .     A
C16    C20     1.404   .     A
C16    C22     1.403   .     A
C17    F55     1.359   .     S
C17    C25     1.404   .     A
C17    C19     1.391   .     A
C18    F56     1.358   .     S
C18    C20     1.392   .     A
C18    C26     1.406   .     A
C19    F54     1.358   .     S
C20    F53     1.357   .     S
C21    N50     1.438   .     S
C21    C23     1.418   .     A
C22    N47     1.449   .     S
C22    C24     1.413   .     A
C23    C27     1.418   .     A
C23    C25     1.421   .     A
C24    C26     1.421   .     A
C24    C28     1.416   .     A
C25    C625    1.406   .     S
C26    C626    1.404   1_554 S
C27    C30     1.412   .     A
C27    C622    1.406   .     S
C28    C29     1.413   .     A
C28    C621    1.406   1_554 S
C29    C31     1.394   .     A
C29    F57     1.358   .     S
C30    C32     1.393   .     A
C30    F58     1.357   .     S
C31    F45     1.358   .     S
C31    C619    1.406   1_554 S
C32    F46     1.358   .     S
C32    C620    1.404   .     S
C33    F59     1.359   .     S
C33    C38     1.397   .     A
C33    C233    1.373   .     S
C34    C37     1.397   .     A
C34    F60     1.359   .     S
C34    C432    1.373   1_545 S
C35    F61     1.358   .     S
C35    C37     1.397   .     A
C35    C429    1.373   1_545 S
C36    C38     1.397   .     A
C36    F62     1.359   .     S
C36    C232    1.373   .     S
C39    N44     1.367   .     A
C39    F63     1.353   .     S
C39    C107    1.416   .     S
C40    F64     1.355   .     S
C40    N43     1.366   .     A
C40    C174    1.417   1_455 S
C41    N43     1.367   .     A
C41    F65     1.355   .     S
C41    C171    1.416   1_455 S
C42    N44     1.367   .     A
C42    F66     1.355   .     S
C42    C106    1.417   .     S
N47    O48     1.302   .     A
N47    O49     1.301   .     A
N50    O52     1.302   .     A
N50    O51     1.301   .     A
O67    C71     1.281   .     A
O67    Zn79    1.992   .     S
O68    C72     1.281   .     A
O68    Zn80    1.992   .     S
O69    C71     1.281   .     A
O69    Zn80    1.991   .     S
O70    C72     1.281   .     A
O70    Zn79    1.991   .     S
C71    C104    1.412   .     S
C72    C103    1.411   .     S
O73    C77     1.297   .     A
O73    Zn79    1.931   .     S
O74    C78     1.293   .     A
O74    Zn80    1.931   .     S
O75    Zn80    1.879   .     S
O75    C77     1.297   .     A
O76    C78     1.295   .     A
O76    Zn79    1.879   .     S
C77    C81     1.478   .     S
C78    C82     1.462   .     S
Zn79   N109    2.011   .     S
Zn80   N110    2.011   .     S
C81    C85     1.406   .     A
C81    C87     1.416   .     A
C82    C86     1.404   .     A
C82    C88     1.403   .     A
C83    F121    1.359   .     S
C83    C91     1.404   .     A
C83    C85     1.391   .     A
C84    F122    1.358   .     S
C84    C86     1.392   .     A
C84    C92     1.406   .     A
C85    F120    1.358   .     S
C86    F119    1.357   .     S
C87    N116    1.438   .     S
C87    C89     1.418   .     A
C88    N113    1.449   .     S
C88    C90     1.413   .     A
C89    C93     1.418   .     A
C89    C91     1.421   .     A
C90    C92     1.421   .     A
C90    C94     1.416   .     A
C91    C691    1.406   .     S
C92    C692    1.404   1_554 S
C93    C96     1.412   .     A
C93    C688    1.406   .     S
C94    C95     1.413   .     A
C94    C687    1.406   1_554 S
C95    C97     1.394   .     A
C95    F123    1.358   .     S
C96    C98     1.393   .     A
C96    F124    1.357   .     S
C97    F111    1.358   .     S
C97    C685    1.406   1_554 S
C98    F112    1.358   .     S
C98    C686    1.404   .     S
C99    F125    1.359   .     S
C99    C104    1.397   .     A
C99    C299    1.373   .     S
C100   C103    1.397   .     A
C100   F126    1.359   .     S
C100   C498    1.373   1_545 S
C101   F127    1.358   .     S
C101   C103    1.397   .     A
C101   C495    1.373   1_545 S
C102   C104    1.397   .     A
C102   F128    1.359   .     S
C102   C298    1.373   .     S
C105   N110    1.367   .     A
C105   F129    1.353   .     S
C105   C173    1.416   .     S
C106   F130    1.355   .     S
C106   N109    1.366   .     A
C107   N109    1.367   .     A
C107   F131    1.355   .     S
C108   N110    1.367   .     A
C108   F132    1.355   .     S
C108   C172    1.417   .     S
N113   O114    1.302   .     A
N113   O115    1.301   .     A
N116   O118    1.302   .     A
N116   O117    1.301   .     A
O133   C137    1.281   .     A
O133   Zn145   1.992   .     S
O134   C138    1.281   .     A
O134   Zn146   1.992   .     S
O135   C137    1.281   .     A
O135   Zn146   1.991   .     S
O136   C138    1.281   .     A
O136   Zn145   1.991   .     S
C137   C170    1.412   .     S
C138   C169    1.411   .     S
O139   C143    1.297   .     A
O139   Zn145   1.931   .     S
O140   C144    1.293   .     A
O140   Zn146   1.931   .     S
O141   Zn146   1.879   .     S
O141   C143    1.297   .     A
O142   C144    1.295   .     A
O142   Zn145   1.879   .     S
C143   C147    1.478   .     S
C144   C148    1.462   .     S
Zn145  N175    2.011   .     S
Zn146  N176    2.011   .     S
C147   C151    1.406   .     A
C147   C153    1.416   .     A
C148   C152    1.404   .     A
C148   C154    1.403   .     A
C149   F187    1.359   .     S
C149   C157    1.404   .     A
C149   C151    1.391   .     A
C150   F188    1.358   .     S
C150   C152    1.392   .     A
C150   C158    1.406   .     A
C151   F186    1.358   .     S
C152   F185    1.357   .     S
C153   N182    1.438   .     S
C153   C155    1.418   .     A
C154   N179    1.449   .     S
C154   C156    1.413   .     A
C155   C159    1.418   .     A
C155   C157    1.421   .     A
C156   C158    1.421   .     A
C156   C160    1.416   .     A
C157   C757    1.406   .     S
C158   C758    1.404   1_554 S
C159   C162    1.412   .     A
C159   C754    1.406   .     S
C160   C161    1.413   .     A
C160   C753    1.406   1_554 S
C161   C163    1.394   .     A
C161   F189    1.358   .     S
C162   C164    1.393   .     A
C162   F190    1.357   .     S
C163   F177    1.358   .     S
C163   C751    1.406   1_554 S
C164   F178    1.358   .     S
C164   C752    1.404   .     S
C165   F191    1.359   .     S
C165   C170    1.397   .     A
C165   C365    1.373   .     S
C166   C169    1.397   .     A
C166   F192    1.359   .     S
C166   C564    1.373   1_545 S
C167   F193    1.358   .     S
C167   C169    1.397   .     A
C167   C561    1.373   1_545 S
C168   C170    1.397   .     A
C168   F194    1.359   .     S
C168   C364    1.373   .     S
C171   N176    1.367   .     A
C171   F195    1.353   .     S
C171   C41     1.416   1_655 S
C172   F196    1.355   .     S
C172   N175    1.366   .     A
C173   N175    1.367   .     A
C173   F197    1.355   .     S
C174   N176    1.367   .     A
C174   F198    1.355   .     S
C174   C40     1.417   1_655 S
N179   O180    1.302   .     A
N179   O181    1.301   .     A
N182   O184    1.302   .     A
N182   O183    1.301   .     A
O199   C203    1.281   .     A
O199   Zn211   1.992   .     S
O200   C204    1.281   .     A
O200   Zn212   1.992   .     S
O201   C203    1.281   .     A
O201   Zn212   1.991   .     S
O202   C204    1.281   .     A
O202   Zn211   1.991   .     S
C203   C236    1.412   .     S
C204   C235    1.411   .     S
O205   C209    1.297   .     A
O205   Zn211   1.931   .     S
O206   C210    1.293   .     A
O206   Zn212   1.931   .     S
O207   Zn212   1.879   .     S
O207   C209    1.297   .     A
O208   C210    1.295   .     A
O208   Zn211   1.879   .     S
C209   C213    1.478   .     S
C210   C214    1.462   .     S
Zn211  N241    2.011   .     S
Zn212  N242    2.011   .     S
C213   C217    1.406   .     A
C213   C219    1.416   .     A
C214   C218    1.404   .     A
C214   C220    1.403   .     A
C215   F253    1.359   .     S
C215   C223    1.404   .     A
C215   C217    1.391   .     A
C216   F254    1.358   .     S
C216   C218    1.392   .     A
C216   C224    1.406   .     A
C217   F252    1.358   .     S
C218   F251    1.357   .     S
C219   N248    1.438   .     S
C219   C221    1.418   .     A
C220   N245    1.449   .     S
C220   C222    1.413   .     A
C221   C225    1.418   .     A
C221   C223    1.421   .     A
C222   C224    1.421   .     A
C222   C226    1.416   .     A
C223   C823    1.406   .     S
C224   C824    1.404   1_554 S
C225   C228    1.412   .     A
C225   C820    1.406   .     S
C226   C227    1.413   .     A
C226   C819    1.406   1_554 S
C227   C229    1.394   .     A
C227   F255    1.358   .     S
C228   C230    1.393   .     A
C228   F256    1.357   .     S
C229   F243    1.358   .     S
C229   C817    1.406   1_554 S
C230   F244    1.358   .     S
C230   C818    1.404   .     S
C231   F257    1.359   .     S
C231   C236    1.397   .     A
C231   C431    1.373   .     S
C232   C235    1.397   .     A
C232   F258    1.359   .     S
C233   F259    1.358   .     S
C233   C235    1.397   .     A
C234   C236    1.397   .     A
C234   F260    1.359   .     S
C234   C430    1.373   .     S
C237   N242    1.367   .     A
C237   F261    1.353   .     S
C237   C305    1.416   .     S
C238   F262    1.355   .     S
C238   N241    1.366   .     A
C238   C372    1.417   1_455 S
C239   N241    1.367   .     A
C239   F263    1.355   .     S
C239   C369    1.416   1_455 S
C240   N242    1.367   .     A
C240   F264    1.355   .     S
C240   C304    1.417   .     S
N245   O246    1.302   .     A
N245   O247    1.301   .     A
N248   O250    1.302   .     A
N248   O249    1.301   .     A
O265   C269    1.281   .     A
O265   Zn277   1.992   .     S
O266   C270    1.281   .     A
O266   Zn278   1.992   .     S
O267   C269    1.281   .     A
O267   Zn278   1.991   .     S
O268   C270    1.281   .     A
O268   Zn277   1.991   .     S
C269   C302    1.412   .     S
C270   C301    1.411   .     S
O271   C275    1.297   .     A
O271   Zn277   1.931   .     S
O272   C276    1.293   .     A
O272   Zn278   1.931   .     S
O273   Zn278   1.879   .     S
O273   C275    1.297   .     A
O274   C276    1.295   .     A
O274   Zn277   1.879   .     S
C275   C279    1.478   .     S
C276   C280    1.462   .     S
Zn277  N307    2.011   .     S
Zn278  N308    2.011   .     S
C279   C283    1.406   .     A
C279   C285    1.416   .     A
C280   C284    1.404   .     A
C280   C286    1.403   .     A
C281   F319    1.359   .     S
C281   C289    1.404   .     A
C281   C283    1.391   .     A
C282   F320    1.358   .     S
C282   C284    1.392   .     A
C282   C290    1.406   .     A
C283   F318    1.358   .     S
C284   F317    1.357   .     S
C285   N314    1.438   .     S
C285   C287    1.418   .     A
C286   N311    1.449   .     S
C286   C288    1.413   .     A
C287   C291    1.418   .     A
C287   C289    1.421   .     A
C288   C290    1.421   .     A
C288   C292    1.416   .     A
C289   C889    1.406   .     S
C290   C890    1.404   1_554 S
C291   C294    1.412   .     A
C291   C886    1.406   .     S
C292   C293    1.413   .     A
C292   C885    1.406   1_554 S
C293   C295    1.394   .     A
C293   F321    1.358   .     S
C294   C296    1.393   .     A
C294   F322    1.357   .     S
C295   F309    1.358   .     S
C295   C883    1.406   1_554 S
C296   F310    1.358   .     S
C296   C884    1.404   .     S
C297   F323    1.359   .     S
C297   C302    1.397   .     A
C297   C497    1.373   .     S
C298   C301    1.397   .     A
C298   F324    1.359   .     S
C299   F325    1.358   .     S
C299   C301    1.397   .     A
C300   C302    1.397   .     A
C300   F326    1.359   .     S
C300   C496    1.373   .     S
C303   N308    1.367   .     A
C303   F327    1.353   .     S
C303   C371    1.416   .     S
C304   F328    1.355   .     S
C304   N307    1.366   .     A
C305   N307    1.367   .     A
C305   F329    1.355   .     S
C306   N308    1.367   .     A
C306   F330    1.355   .     S
C306   C370    1.417   .     S
N311   O312    1.302   .     A
N311   O313    1.301   .     A
N314   O316    1.302   .     A
N314   O315    1.301   .     A
O331   C335    1.281   .     A
O331   Zn343   1.992   .     S
O332   C336    1.281   .     A
O332   Zn344   1.992   .     S
O333   C335    1.281   .     A
O333   Zn344   1.991   .     S
O334   C336    1.281   .     A
O334   Zn343   1.991   .     S
C335   C368    1.412   .     S
C336   C367    1.411   .     S
O337   C341    1.297   .     A
O337   Zn343   1.931   .     S
O338   C342    1.293   .     A
O338   Zn344   1.931   .     S
O339   Zn344   1.879   .     S
O339   C341    1.297   .     A
O340   C342    1.295   .     A
O340   Zn343   1.879   .     S
C341   C345    1.478   .     S
C342   C346    1.462   .     S
Zn343  N373    2.011   .     S
Zn344  N374    2.011   .     S
C345   C349    1.406   .     A
C345   C351    1.416   .     A
C346   C350    1.404   .     A
C346   C352    1.403   .     A
C347   F385    1.359   .     S
C347   C355    1.404   .     A
C347   C349    1.391   .     A
C348   F386    1.358   .     S
C348   C350    1.392   .     A
C348   C356    1.406   .     A
C349   F384    1.358   .     S
C350   F383    1.357   .     S
C351   N380    1.438   .     S
C351   C353    1.418   .     A
C352   N377    1.449   .     S
C352   C354    1.413   .     A
C353   C357    1.418   .     A
C353   C355    1.421   .     A
C354   C356    1.421   .     A
C354   C358    1.416   .     A
C355   C955    1.406   .     S
C356   C956    1.404   1_554 S
C357   C360    1.412   .     A
C357   C952    1.406   .     S
C358   C359    1.413   .     A
C358   C951    1.406   1_554 S
C359   C361    1.394   .     A
C359   F387    1.358   .     S
C360   C362    1.393   .     A
C360   F388    1.357   .     S
C361   F375    1.358   .     S
C361   C949    1.406   1_554 S
C362   F376    1.358   .     S
C362   C950    1.404   .     S
C363   F389    1.359   .     S
C363   C368    1.397   .     A
C363   C563    1.373   .     S
C364   C367    1.397   .     A
C364   F390    1.359   .     S
C365   F391    1.358   .     S
C365   C367    1.397   .     A
C366   C368    1.397   .     A
C366   F392    1.359   .     S
C366   C562    1.373   .     S
C369   N374    1.367   .     A
C369   F393    1.353   .     S
C369   C239    1.416   1_655 S
C370   F394    1.355   .     S
C370   N373    1.366   .     A
C371   N373    1.367   .     A
C371   F395    1.355   .     S
C372   N374    1.367   .     A
C372   F396    1.355   .     S
C372   C238    1.417   1_655 S
N377   O378    1.302   .     A
N377   O379    1.301   .     A
N380   O382    1.302   .     A
N380   O381    1.301   .     A
O397   C401    1.281   .     A
O397   Zn409   1.992   .     S
O398   C402    1.281   .     A
O398   Zn410   1.992   .     S
O399   C401    1.281   .     A
O399   Zn410   1.991   .     S
O400   C402    1.281   .     A
O400   Zn409   1.991   .     S
C401   C434    1.412   .     S
C402   C433    1.411   .     S
O403   C407    1.297   .     A
O403   Zn409   1.931   .     S
O404   C408    1.293   .     A
O404   Zn410   1.931   .     S
O405   Zn410   1.879   .     S
O405   C407    1.297   .     A
O406   C408    1.295   .     A
O406   Zn409   1.879   .     S
C407   C411    1.478   .     S
C408   C412    1.462   .     S
Zn409  N439    2.011   .     S
Zn410  N440    2.011   .     S
C411   C415    1.406   .     A
C411   C417    1.416   .     A
C412   C416    1.404   .     A
C412   C418    1.403   .     A
C413   F451    1.359   .     S
C413   C421    1.404   .     A
C413   C415    1.391   .     A
C414   F452    1.358   .     S
C414   C416    1.392   .     A
C414   C422    1.406   .     A
C415   F450    1.358   .     S
C416   F449    1.357   .     S
C417   N446    1.438   .     S
C417   C419    1.418   .     A
C418   N443    1.449   .     S
C418   C420    1.413   .     A
C419   C423    1.418   .     A
C419   C421    1.421   .     A
C420   C422    1.421   .     A
C420   C424    1.416   .     A
C421   C1021   1.406   .     S
C422   C1022   1.404   1_554 S
C423   C426    1.412   .     A
C423   C1018   1.406   .     S
C424   C425    1.413   .     A
C424   C1017   1.406   1_554 S
C425   C427    1.394   .     A
C425   F453    1.358   .     S
C426   C428    1.393   .     A
C426   F454    1.357   .     S
C427   F441    1.358   .     S
C427   C1015   1.406   1_554 S
C428   F442    1.358   .     S
C428   C1016   1.404   .     S
C429   F455    1.359   .     S
C429   C434    1.397   .     A
C429   C35     1.373   1_565 S
C430   C433    1.397   .     A
C430   F456    1.359   .     S
C431   F457    1.358   .     S
C431   C433    1.397   .     A
C432   C434    1.397   .     A
C432   F458    1.359   .     S
C432   C34     1.373   1_565 S
C435   N440    1.367   .     A
C435   F459    1.353   .     S
C435   C503    1.416   .     S
C436   F460    1.355   .     S
C436   N439    1.366   .     A
C436   C570    1.417   1_455 S
C437   N439    1.367   .     A
C437   F461    1.355   .     S
C437   C567    1.416   1_455 S
C438   N440    1.367   .     A
C438   F462    1.355   .     S
C438   C502    1.417   .     S
N443   O444    1.302   .     A
N443   O445    1.301   .     A
N446   O448    1.302   .     A
N446   O447    1.301   .     A
O463   C467    1.281   .     A
O463   Zn475   1.992   .     S
O464   C468    1.281   .     A
O464   Zn476   1.992   .     S
O465   C467    1.281   .     A
O465   Zn476   1.991   .     S
O466   C468    1.281   .     A
O466   Zn475   1.991   .     S
C467   C500    1.412   .     S
C468   C499    1.411   .     S
O469   C473    1.297   .     A
O469   Zn475   1.931   .     S
O470   C474    1.293   .     A
O470   Zn476   1.931   .     S
O471   Zn476   1.879   .     S
O471   C473    1.297   .     A
O472   C474    1.295   .     A
O472   Zn475   1.879   .     S
C473   C477    1.478   .     S
C474   C478    1.462   .     S
Zn475  N505    2.011   .     S
Zn476  N506    2.011   .     S
C477   C481    1.406   .     A
C477   C483    1.416   .     A
C478   C482    1.404   .     A
C478   C484    1.403   .     A
C479   F517    1.359   .     S
C479   C487    1.404   .     A
C479   C481    1.391   .     A
C480   F518    1.358   .     S
C480   C482    1.392   .     A
C480   C488    1.406   .     A
C481   F516    1.358   .     S
C482   F515    1.357   .     S
C483   N512    1.438   .     S
C483   C485    1.418   .     A
C484   N509    1.449   .     S
C484   C486    1.413   .     A
C485   C489    1.418   .     A
C485   C487    1.421   .     A
C486   C488    1.421   .     A
C486   C490    1.416   .     A
C487   C1087   1.406   .     S
C488   C1088   1.404   1_554 S
C489   C492    1.412   .     A
C489   C1084   1.406   .     S
C490   C491    1.413   .     A
C490   C1083   1.406   1_554 S
C491   C493    1.394   .     A
C491   F519    1.358   .     S
C492   C494    1.393   .     A
C492   F520    1.357   .     S
C493   F507    1.358   .     S
C493   C1081   1.406   1_554 S
C494   F508    1.358   .     S
C494   C1082   1.404   .     S
C495   F521    1.359   .     S
C495   C500    1.397   .     A
C495   C101    1.373   1_565 S
C496   C499    1.397   .     A
C496   F522    1.359   .     S
C497   F523    1.358   .     S
C497   C499    1.397   .     A
C498   C500    1.397   .     A
C498   F524    1.359   .     S
C498   C100    1.373   1_565 S
C501   N506    1.367   .     A
C501   F525    1.353   .     S
C501   C569    1.416   .     S
C502   F526    1.355   .     S
C502   N505    1.366   .     A
C503   N505    1.367   .     A
C503   F527    1.355   .     S
C504   N506    1.367   .     A
C504   F528    1.355   .     S
C504   C568    1.417   .     S
N509   O510    1.302   .     A
N509   O511    1.301   .     A
N512   O514    1.302   .     A
N512   O513    1.301   .     A
O529   C533    1.281   .     A
O529   Zn541   1.992   .     S
O530   C534    1.281   .     A
O530   Zn542   1.992   .     S
O531   C533    1.281   .     A
O531   Zn542   1.991   .     S
O532   C534    1.281   .     A
O532   Zn541   1.991   .     S
C533   C566    1.412   .     S
C534   C565    1.411   .     S
O535   C539    1.297   .     A
O535   Zn541   1.931   .     S
O536   C540    1.293   .     A
O536   Zn542   1.931   .     S
O537   Zn542   1.879   .     S
O537   C539    1.297   .     A
O538   C540    1.295   .     A
O538   Zn541   1.879   .     S
C539   C543    1.478   .     S
C540   C544    1.462   .     S
Zn541  N571    2.011   .     S
Zn542  N572    2.011   .     S
C543   C547    1.406   .     A
C543   C549    1.416   .     A
C544   C548    1.404   .     A
C544   C550    1.403   .     A
C545   F583    1.359   .     S
C545   C553    1.404   .     A
C545   C547    1.391   .     A
C546   F584    1.358   .     S
C546   C548    1.392   .     A
C546   C554    1.406   .     A
C547   F582    1.358   .     S
C548   F581    1.357   .     S
C549   N578    1.438   .     S
C549   C551    1.418   .     A
C550   N575    1.449   .     S
C550   C552    1.413   .     A
C551   C555    1.418   .     A
C551   C553    1.421   .     A
C552   C554    1.421   .     A
C552   C556    1.416   .     A
C553   C1153   1.406   .     S
C554   C1154   1.404   1_554 S
C555   C558    1.412   .     A
C555   C1150   1.406   .     S
C556   C557    1.413   .     A
C556   C1149   1.406   1_554 S
C557   C559    1.394   .     A
C557   F585    1.358   .     S
C558   C560    1.393   .     A
C558   F586    1.357   .     S
C559   F573    1.358   .     S
C559   C1147   1.406   1_554 S
C560   F574    1.358   .     S
C560   C1148   1.404   .     S
C561   F587    1.359   .     S
C561   C566    1.397   .     A
C561   C167    1.373   1_565 S
C562   C565    1.397   .     A
C562   F588    1.359   .     S
C563   F589    1.358   .     S
C563   C565    1.397   .     A
C564   C566    1.397   .     A
C564   F590    1.359   .     S
C564   C166    1.373   1_565 S
C567   N572    1.367   .     A
C567   F591    1.353   .     S
C567   C437    1.416   1_655 S
C568   F592    1.355   .     S
C568   N571    1.366   .     A
C569   N571    1.367   .     A
C569   F593    1.355   .     S
C570   N572    1.367   .     A
C570   F594    1.355   .     S
C570   C436    1.417   1_655 S
N575   O576    1.302   .     A
N575   O577    1.301   .     A
N578   O580    1.302   .     A
N578   O579    1.301   .     A
O595   C599    1.281   .     A
O595   Zn607   1.992   .     S
O596   C600    1.281   .     A
O596   Zn608   1.992   .     S
O597   C599    1.281   .     A
O597   Zn608   1.991   .     S
O598   C600    1.281   .     A
O598   Zn607   1.991   .     S
C599   C632    1.412   .     S
C600   C631    1.411   .     S
O601   C605    1.297   .     A
O601   Zn607   1.931   .     S
O602   C606    1.293   .     A
O602   Zn608   1.931   .     S
O603   Zn608   1.879   .     S
O603   C605    1.297   .     A
O604   C606    1.295   .     A
O604   Zn607   1.879   .     S
C605   C609    1.478   .     S
C606   C610    1.462   .     S
Zn607  N637    2.011   .     S
Zn608  N638    2.011   .     S
C609   C613    1.406   .     A
C609   C615    1.416   .     A
C610   C614    1.404   .     A
C610   C616    1.403   .     A
C611   F649    1.359   .     S
C611   C619    1.404   .     A
C611   C613    1.391   .     A
C612   F650    1.358   .     S
C612   C614    1.392   .     A
C612   C620    1.406   .     A
C613   F648    1.358   .     S
C614   F647    1.357   .     S
C615   N644    1.438   .     S
C615   C617    1.418   .     A
C616   N641    1.449   .     S
C616   C618    1.413   .     A
C617   C621    1.418   .     A
C617   C619    1.421   .     A
C618   C620    1.421   .     A
C618   C622    1.416   .     A
C619   C31     1.406   1_556 S
C621   C624    1.412   .     A
C621   C28     1.406   1_556 S
C622   C623    1.413   .     A
C623   C625    1.394   .     A
C623   F651    1.358   .     S
C624   C626    1.393   .     A
C624   F652    1.357   .     S
C625   F639    1.358   .     S
C626   F640    1.358   .     S
C626   C26     1.404   1_556 S
C627   F653    1.359   .     S
C627   C632    1.397   .     A
C627   C827    1.373   .     S
C628   C631    1.397   .     A
C628   F654    1.359   .     S
C628   C1026   1.373   1_545 S
C629   F655    1.358   .     S
C629   C631    1.397   .     A
C629   C1023   1.373   1_545 S
C630   C632    1.397   .     A
C630   F656    1.359   .     S
C630   C826    1.373   .     S
C633   N638    1.367   .     A
C633   F657    1.353   .     S
C633   C701    1.416   .     S
C634   F658    1.355   .     S
C634   N637    1.366   .     A
C634   C768    1.417   1_455 S
C635   N637    1.367   .     A
C635   F659    1.355   .     S
C635   C765    1.416   1_455 S
C636   N638    1.367   .     A
C636   F660    1.355   .     S
C636   C700    1.417   .     S
N641   O642    1.302   .     A
N641   O643    1.301   .     A
N644   O646    1.302   .     A
N644   O645    1.301   .     A
O661   C665    1.281   .     A
O661   Zn673   1.992   .     S
O662   C666    1.281   .     A
O662   Zn674   1.992   .     S
O663   C665    1.281   .     A
O663   Zn674   1.991   .     S
O664   C666    1.281   .     A
O664   Zn673   1.991   .     S
C665   C698    1.412   .     S
C666   C697    1.411   .     S
O667   C671    1.297   .     A
O667   Zn673   1.931   .     S
O668   C672    1.293   .     A
O668   Zn674   1.931   .     S
O669   Zn674   1.879   .     S
O669   C671    1.297   .     A
O670   C672    1.295   .     A
O670   Zn673   1.879   .     S
C671   C675    1.478   .     S
C672   C676    1.462   .     S
Zn673  N703    2.011   .     S
Zn674  N704    2.011   .     S
C675   C679    1.406   .     A
C675   C681    1.416   .     A
C676   C680    1.404   .     A
C676   C682    1.403   .     A
C677   F715    1.359   .     S
C677   C685    1.404   .     A
C677   C679    1.391   .     A
C678   F716    1.358   .     S
C678   C680    1.392   .     A
C678   C686    1.406   .     A
C679   F714    1.358   .     S
C680   F713    1.357   .     S
C681   N710    1.438   .     S
C681   C683    1.418   .     A
C682   N707    1.449   .     S
C682   C684    1.413   .     A
C683   C687    1.418   .     A
C683   C685    1.421   .     A
C684   C686    1.421   .     A
C684   C688    1.416   .     A
C685   C97     1.406   1_556 S
C687   C690    1.412   .     A
C687   C94     1.406   1_556 S
C688   C689    1.413   .     A
C689   C691    1.394   .     A
C689   F717    1.358   .     S
C690   C692    1.393   .     A
C690   F718    1.357   .     S
C691   F705    1.358   .     S
C692   F706    1.358   .     S
C692   C92     1.404   1_556 S
C693   F719    1.359   .     S
C693   C698    1.397   .     A
C693   C893    1.373   .     S
C694   C697    1.397   .     A
C694   F720    1.359   .     S
C694   C1092   1.373   1_545 S
C695   F721    1.358   .     S
C695   C697    1.397   .     A
C695   C1089   1.373   1_545 S
C696   C698    1.397   .     A
C696   F722    1.359   .     S
C696   C892    1.373   .     S
C699   N704    1.367   .     A
C699   F723    1.353   .     S
C699   C767    1.416   .     S
C700   F724    1.355   .     S
C700   N703    1.366   .     A
C701   N703    1.367   .     A
C701   F725    1.355   .     S
C702   N704    1.367   .     A
C702   F726    1.355   .     S
C702   C766    1.417   .     S
N707   O708    1.302   .     A
N707   O709    1.301   .     A
N710   O712    1.302   .     A
N710   O711    1.301   .     A
O727   C731    1.281   .     A
O727   Zn739   1.992   .     S
O728   C732    1.281   .     A
O728   Zn740   1.992   .     S
O729   C731    1.281   .     A
O729   Zn740   1.991   .     S
O730   C732    1.281   .     A
O730   Zn739   1.991   .     S
C731   C764    1.412   .     S
C732   C763    1.411   .     S
O733   C737    1.297   .     A
O733   Zn739   1.931   .     S
O734   C738    1.293   .     A
O734   Zn740   1.931   .     S
O735   Zn740   1.879   .     S
O735   C737    1.297   .     A
O736   C738    1.295   .     A
O736   Zn739   1.879   .     S
C737   C741    1.478   .     S
C738   C742    1.462   .     S
Zn739  N769    2.011   .     S
Zn740  N770    2.011   .     S
C741   C745    1.406   .     A
C741   C747    1.416   .     A
C742   C746    1.404   .     A
C742   C748    1.403   .     A
C743   F781    1.359   .     S
C743   C751    1.404   .     A
C743   C745    1.391   .     A
C744   F782    1.358   .     S
C744   C746    1.392   .     A
C744   C752    1.406   .     A
C745   F780    1.358   .     S
C746   F779    1.357   .     S
C747   N776    1.438   .     S
C747   C749    1.418   .     A
C748   N773    1.449   .     S
C748   C750    1.413   .     A
C749   C753    1.418   .     A
C749   C751    1.421   .     A
C750   C752    1.421   .     A
C750   C754    1.416   .     A
C751   C163    1.406   1_556 S
C753   C756    1.412   .     A
C753   C160    1.406   1_556 S
C754   C755    1.413   .     A
C755   C757    1.394   .     A
C755   F783    1.358   .     S
C756   C758    1.393   .     A
C756   F784    1.357   .     S
C757   F771    1.358   .     S
C758   F772    1.358   .     S
C758   C158    1.404   1_556 S
C759   F785    1.359   .     S
C759   C764    1.397   .     A
C759   C959    1.373   .     S
C760   C763    1.397   .     A
C760   F786    1.359   .     S
C760   C1158   1.373   1_545 S
C761   F787    1.358   .     S
C761   C763    1.397   .     A
C761   C1155   1.373   1_545 S
C762   C764    1.397   .     A
C762   F788    1.359   .     S
C762   C958    1.373   .     S
C765   N770    1.367   .     A
C765   F789    1.353   .     S
C765   C635    1.416   1_655 S
C766   F790    1.355   .     S
C766   N769    1.366   .     A
C767   N769    1.367   .     A
C767   F791    1.355   .     S
C768   N770    1.367   .     A
C768   F792    1.355   .     S
C768   C634    1.417   1_655 S
N773   O774    1.302   .     A
N773   O775    1.301   .     A
N776   O778    1.302   .     A
N776   O777    1.301   .     A
O793   C797    1.281   .     A
O793   Zn805   1.992   .     S
O794   C798    1.281   .     A
O794   Zn806   1.992   .     S
O795   C797    1.281   .     A
O795   Zn806   1.991   .     S
O796   C798    1.281   .     A
O796   Zn805   1.991   .     S
C797   C830    1.412   .     S
C798   C829    1.411   .     S
O799   C803    1.297   .     A
O799   Zn805   1.931   .     S
O800   C804    1.293   .     A
O800   Zn806   1.931   .     S
O801   Zn806   1.879   .     S
O801   C803    1.297   .     A
O802   C804    1.295   .     A
O802   Zn805   1.879   .     S
C803   C807    1.478   .     S
C804   C808    1.462   .     S
Zn805  N835    2.011   .     S
Zn806  N836    2.011   .     S
C807   C811    1.406   .     A
C807   C813    1.416   .     A
C808   C812    1.404   .     A
C808   C814    1.403   .     A
C809   F847    1.359   .     S
C809   C817    1.404   .     A
C809   C811    1.391   .     A
C810   F848    1.358   .     S
C810   C812    1.392   .     A
C810   C818    1.406   .     A
C811   F846    1.358   .     S
C812   F845    1.357   .     S
C813   N842    1.438   .     S
C813   C815    1.418   .     A
C814   N839    1.449   .     S
C814   C816    1.413   .     A
C815   C819    1.418   .     A
C815   C817    1.421   .     A
C816   C818    1.421   .     A
C816   C820    1.416   .     A
C817   C229    1.406   1_556 S
C819   C822    1.412   .     A
C819   C226    1.406   1_556 S
C820   C821    1.413   .     A
C821   C823    1.394   .     A
C821   F849    1.358   .     S
C822   C824    1.393   .     A
C822   F850    1.357   .     S
C823   F837    1.358   .     S
C824   F838    1.358   .     S
C824   C224    1.404   1_556 S
C825   F851    1.359   .     S
C825   C830    1.397   .     A
C825   C1025   1.373   .     S
C826   C829    1.397   .     A
C826   F852    1.359   .     S
C827   F853    1.358   .     S
C827   C829    1.397   .     A
C828   C830    1.397   .     A
C828   F854    1.359   .     S
C828   C1024   1.373   .     S
C831   N836    1.367   .     A
C831   F855    1.353   .     S
C831   C899    1.416   .     S
C832   F856    1.355   .     S
C832   N835    1.366   .     A
C832   C966    1.417   1_455 S
C833   N835    1.367   .     A
C833   F857    1.355   .     S
C833   C963    1.416   1_455 S
C834   N836    1.367   .     A
C834   F858    1.355   .     S
C834   C898    1.417   .     S
N839   O840    1.302   .     A
N839   O841    1.301   .     A
N842   O844    1.302   .     A
N842   O843    1.301   .     A
O859   C863    1.281   .     A
O859   Zn871   1.992   .     S
O860   C864    1.281   .     A
O860   Zn872   1.992   .     S
O861   C863    1.281   .     A
O861   Zn872   1.991   .     S
O862   C864    1.281   .     A
O862   Zn871   1.991   .     S
C863   C896    1.412   .     S
C864   C895    1.411   .     S
O865   C869    1.297   .     A
O865   Zn871   1.931   .     S
O866   C870    1.293   .     A
O866   Zn872   1.931   .     S
O867   Zn872   1.879   .     S
O867   C869    1.297   .     A
O868   C870    1.295   .     A
O868   Zn871   1.879   .     S
C869   C873    1.478   .     S
C870   C874    1.462   .     S
Zn871  N901    2.011   .     S
Zn872  N902    2.011   .     S
C873   C877    1.406   .     A
C873   C879    1.416   .     A
C874   C878    1.404   .     A
C874   C880    1.403   .     A
C875   F913    1.359   .     S
C875   C883    1.404   .     A
C875   C877    1.391   .     A
C876   F914    1.358   .     S
C876   C878    1.392   .     A
C876   C884    1.406   .     A
C877   F912    1.358   .     S
C878   F911    1.357   .     S
C879   N908    1.438   .     S
C879   C881    1.418   .     A
C880   N905    1.449   .     S
C880   C882    1.413   .     A
C881   C885    1.418   .     A
C881   C883    1.421   .     A
C882   C884    1.421   .     A
C882   C886    1.416   .     A
C883   C295    1.406   1_556 S
C885   C888    1.412   .     A
C885   C292    1.406   1_556 S
C886   C887    1.413   .     A
C887   C889    1.394   .     A
C887   F915    1.358   .     S
C888   C890    1.393   .     A
C888   F916    1.357   .     S
C889   F903    1.358   .     S
C890   F904    1.358   .     S
C890   C290    1.404   1_556 S
C891   F917    1.359   .     S
C891   C896    1.397   .     A
C891   C1091   1.373   .     S
C892   C895    1.397   .     A
C892   F918    1.359   .     S
C893   F919    1.358   .     S
C893   C895    1.397   .     A
C894   C896    1.397   .     A
C894   F920    1.359   .     S
C894   C1090   1.373   .     S
C897   N902    1.367   .     A
C897   F921    1.353   .     S
C897   C965    1.416   .     S
C898   F922    1.355   .     S
C898   N901    1.366   .     A
C899   N901    1.367   .     A
C899   F923    1.355   .     S
C900   N902    1.367   .     A
C900   F924    1.355   .     S
C900   C964    1.417   .     S
N905   O906    1.302   .     A
N905   O907    1.301   .     A
N908   O910    1.302   .     A
N908   O909    1.301   .     A
O925   C929    1.281   .     A
O925   Zn937   1.992   .     S
O926   C930    1.281   .     A
O926   Zn938   1.992   .     S
O927   C929    1.281   .     A
O927   Zn938   1.991   .     S
O928   C930    1.281   .     A
O928   Zn937   1.991   .     S
C929   C962    1.412   .     S
C930   C961    1.411   .     S
O931   C935    1.297   .     A
O931   Zn937   1.931   .     S
O932   C936    1.293   .     A
O932   Zn938   1.931   .     S
O933   Zn938   1.879   .     S
O933   C935    1.297   .     A
O934   C936    1.295   .     A
O934   Zn937   1.879   .     S
C935   C939    1.478   .     S
C936   C940    1.462   .     S
Zn937  N967    2.011   .     S
Zn938  N968    2.011   .     S
C939   C943    1.406   .     A
C939   C945    1.416   .     A
C940   C944    1.404   .     A
C940   C946    1.403   .     A
C941   F979    1.359   .     S
C941   C949    1.404   .     A
C941   C943    1.391   .     A
C942   F980    1.358   .     S
C942   C944    1.392   .     A
C942   C950    1.406   .     A
C943   F978    1.358   .     S
C944   F977    1.357   .     S
C945   N974    1.438   .     S
C945   C947    1.418   .     A
C946   N971    1.449   .     S
C946   C948    1.413   .     A
C947   C951    1.418   .     A
C947   C949    1.421   .     A
C948   C950    1.421   .     A
C948   C952    1.416   .     A
C949   C361    1.406   1_556 S
C951   C954    1.412   .     A
C951   C358    1.406   1_556 S
C952   C953    1.413   .     A
C953   C955    1.394   .     A
C953   F981    1.358   .     S
C954   C956    1.393   .     A
C954   F982    1.357   .     S
C955   F969    1.358   .     S
C956   F970    1.358   .     S
C956   C356    1.404   1_556 S
C957   F983    1.359   .     S
C957   C962    1.397   .     A
C957   C1157   1.373   .     S
C958   C961    1.397   .     A
C958   F984    1.359   .     S
C959   F985    1.358   .     S
C959   C961    1.397   .     A
C960   C962    1.397   .     A
C960   F986    1.359   .     S
C960   C1156   1.373   .     S
C963   N968    1.367   .     A
C963   F987    1.353   .     S
C963   C833    1.416   1_655 S
C964   F988    1.355   .     S
C964   N967    1.366   .     A
C965   N967    1.367   .     A
C965   F989    1.355   .     S
C966   N968    1.367   .     A
C966   F990    1.355   .     S
C966   C832    1.417   1_655 S
N971   O972    1.302   .     A
N971   O973    1.301   .     A
N974   O976    1.302   .     A
N974   O975    1.301   .     A
O991   C995    1.281   .     A
O991   Zn1003  1.992   .     S
O992   C996    1.281   .     A
O992   Zn1004  1.992   .     S
O993   C995    1.281   .     A
O993   Zn1004  1.991   .     S
O994   C996    1.281   .     A
O994   Zn1003  1.991   .     S
C995   C1028   1.412   .     S
C996   C1027   1.411   .     S
O997   C1001   1.297   .     A
O997   Zn1003  1.931   .     S
O998   C1002   1.293   .     A
O998   Zn1004  1.931   .     S
O999   Zn1004  1.879   .     S
O999   C1001   1.297   .     A
O1000  C1002   1.295   .     A
O1000  Zn1003  1.879   .     S
C1001  C1005   1.478   .     S
C1002  C1006   1.462   .     S
Zn1003 N1033   2.011   .     S
Zn1004 N1034   2.011   .     S
C1005  C1009   1.406   .     A
C1005  C1011   1.416   .     A
C1006  C1010   1.404   .     A
C1006  C1012   1.403   .     A
C1007  F1045   1.359   .     S
C1007  C1015   1.404   .     A
C1007  C1009   1.391   .     A
C1008  F1046   1.358   .     S
C1008  C1010   1.392   .     A
C1008  C1016   1.406   .     A
C1009  F1044   1.358   .     S
C1010  F1043   1.357   .     S
C1011  N1040   1.438   .     S
C1011  C1013   1.418   .     A
C1012  N1037   1.449   .     S
C1012  C1014   1.413   .     A
C1013  C1017   1.418   .     A
C1013  C1015   1.421   .     A
C1014  C1016   1.421   .     A
C1014  C1018   1.416   .     A
C1015  C427    1.406   1_556 S
C1017  C1020   1.412   .     A
C1017  C424    1.406   1_556 S
C1018  C1019   1.413   .     A
C1019  C1021   1.394   .     A
C1019  F1047   1.358   .     S
C1020  C1022   1.393   .     A
C1020  F1048   1.357   .     S
C1021  F1035   1.358   .     S
C1022  F1036   1.358   .     S
C1022  C422    1.404   1_556 S
C1023  F1049   1.359   .     S
C1023  C1028   1.397   .     A
C1023  C629    1.373   1_565 S
C1024  C1027   1.397   .     A
C1024  F1050   1.359   .     S
C1025  F1051   1.358   .     S
C1025  C1027   1.397   .     A
C1026  C1028   1.397   .     A
C1026  F1052   1.359   .     S
C1026  C628    1.373   1_565 S
C1029  N1034   1.367   .     A
C1029  F1053   1.353   .     S
C1029  C1097   1.416   .     S
C1030  F1054   1.355   .     S
C1030  N1033   1.366   .     A
C1030  C1164   1.417   1_455 S
C1031  N1033   1.367   .     A
C1031  F1055   1.355   .     S
C1031  C1161   1.416   1_455 S
C1032  N1034   1.367   .     A
C1032  F1056   1.355   .     S
C1032  C1096   1.417   .     S
N1037  O1038   1.302   .     A
N1037  O1039   1.301   .     A
N1040  O1042   1.302   .     A
N1040  O1041   1.301   .     A
O1057  C1061   1.281   .     A
O1057  Zn1069  1.992   .     S
O1058  C1062   1.281   .     A
O1058  Zn1070  1.992   .     S
O1059  C1061   1.281   .     A
O1059  Zn1070  1.991   .     S
O1060  C1062   1.281   .     A
O1060  Zn1069  1.991   .     S
C1061  C1094   1.412   .     S
C1062  C1093   1.411   .     S
O1063  C1067   1.297   .     A
O1063  Zn1069  1.931   .     S
O1064  C1068   1.293   .     A
O1064  Zn1070  1.931   .     S
O1065  Zn1070  1.879   .     S
O1065  C1067   1.297   .     A
O1066  C1068   1.295   .     A
O1066  Zn1069  1.879   .     S
C1067  C1071   1.478   .     S
C1068  C1072   1.462   .     S
Zn1069 N1099   2.011   .     S
Zn1070 N1100   2.011   .     S
C1071  C1075   1.406   .     A
C1071  C1077   1.416   .     A
C1072  C1076   1.404   .     A
C1072  C1078   1.403   .     A
C1073  F1111   1.359   .     S
C1073  C1081   1.404   .     A
C1073  C1075   1.391   .     A
C1074  F1112   1.358   .     S
C1074  C1076   1.392   .     A
C1074  C1082   1.406   .     A
C1075  F1110   1.358   .     S
C1076  F1109   1.357   .     S
C1077  N1106   1.438   .     S
C1077  C1079   1.418   .     A
C1078  N1103   1.449   .     S
C1078  C1080   1.413   .     A
C1079  C1083   1.418   .     A
C1079  C1081   1.421   .     A
C1080  C1082   1.421   .     A
C1080  C1084   1.416   .     A
C1081  C493    1.406   1_556 S
C1083  C1086   1.412   .     A
C1083  C490    1.406   1_556 S
C1084  C1085   1.413   .     A
C1085  C1087   1.394   .     A
C1085  F1113   1.358   .     S
C1086  C1088   1.393   .     A
C1086  F1114   1.357   .     S
C1087  F1101   1.358   .     S
C1088  F1102   1.358   .     S
C1088  C488    1.404   1_556 S
C1089  F1115   1.359   .     S
C1089  C1094   1.397   .     A
C1089  C695    1.373   1_565 S
C1090  C1093   1.397   .     A
C1090  F1116   1.359   .     S
C1091  F1117   1.358   .     S
C1091  C1093   1.397   .     A
C1092  C1094   1.397   .     A
C1092  F1118   1.359   .     S
C1092  C694    1.373   1_565 S
C1095  N1100   1.367   .     A
C1095  F1119   1.353   .     S
C1095  C1163   1.416   .     S
C1096  F1120   1.355   .     S
C1096  N1099   1.366   .     A
C1097  N1099   1.367   .     A
C1097  F1121   1.355   .     S
C1098  N1100   1.367   .     A
C1098  F1122   1.355   .     S
C1098  C1162   1.417   .     S
N1103  O1104   1.302   .     A
N1103  O1105   1.301   .     A
N1106  O1108   1.302   .     A
N1106  O1107   1.301   .     A
O1123  C1127   1.281   .     A
O1123  Zn1135  1.992   .     S
O1124  C1128   1.281   .     A
O1124  Zn1136  1.992   .     S
O1125  C1127   1.281   .     A
O1125  Zn1136  1.991   .     S
O1126  C1128   1.281   .     A
O1126  Zn1135  1.991   .     S
C1127  C1160   1.412   .     S
C1128  C1159   1.411   .     S
O1129  C1133   1.297   .     A
O1129  Zn1135  1.931   .     S
O1130  C1134   1.293   .     A
O1130  Zn1136  1.931   .     S
O1131  Zn1136  1.879   .     S
O1131  C1133   1.297   .     A
O1132  C1134   1.295   .     A
O1132  Zn1135  1.879   .     S
C1133  C1137   1.478   .     S
C1134  C1138   1.462   .     S
Zn1135 N1165   2.011   .     S
Zn1136 N1166   2.011   .     S
C1137  C1141   1.406   .     A
C1137  C1143   1.416   .     A
C1138  C1142   1.404   .     A
C1138  C1144   1.403   .     A
C1139  F1177   1.359   .     S
C1139  C1147   1.404   .     A
C1139  C1141   1.391   .     A
C1140  F1178   1.358   .     S
C1140  C1142   1.392   .     A
C1140  C1148   1.406   .     A
C1141  F1176   1.358   .     S
C1142  F1175   1.357   .     S
C1143  N1172   1.438   .     S
C1143  C1145   1.418   .     A
C1144  N1169   1.449   .     S
C1144  C1146   1.413   .     A
C1145  C1149   1.418   .     A
C1145  C1147   1.421   .     A
C1146  C1148   1.421   .     A
C1146  C1150   1.416   .     A
C1147  C559    1.406   1_556 S
C1149  C1152   1.412   .     A
C1149  C556    1.406   1_556 S
C1150  C1151   1.413   .     A
C1151  C1153   1.394   .     A
C1151  F1179   1.358   .     S
C1152  C1154   1.393   .     A
C1152  F1180   1.357   .     S
C1153  F1167   1.358   .     S
C1154  F1168   1.358   .     S
C1154  C554    1.404   1_556 S
C1155  F1181   1.359   .     S
C1155  C1160   1.397   .     A
C1155  C761    1.373   1_565 S
C1156  C1159   1.397   .     A
C1156  F1182   1.359   .     S
C1157  F1183   1.358   .     S
C1157  C1159   1.397   .     A
C1158  C1160   1.397   .     A
C1158  F1184   1.359   .     S
C1158  C760    1.373   1_565 S
C1161  N1166   1.367   .     A
C1161  F1185   1.353   .     S
C1161  C1031   1.416   1_655 S
C1162  F1186   1.355   .     S
C1162  N1165   1.366   .     A
C1163  N1165   1.367   .     A
C1163  F1187   1.355   .     S
C1164  N1166   1.367   .     A
C1164  F1188   1.355   .     S
C1164  C1030   1.417   1_655 S
N1169  O1170   1.302   .     A
N1169  O1171   1.301   .     A
N1172  O1174   1.302   .     A
N1172  O1173   1.301   .     A
