data_str_m3_o10_o18_pcu_sym.122
_audit_creation_date              2020-01-03
_audit_creation_method            'Materials Studio'
_symmetry_space_group_name_H-M    'P1'
_symmetry_Int_Tables_number       1
_symmetry_cell_setting            triclinic
loop_
_symmetry_equiv_pos_as_xyz
  x,y,z
_cell_length_a                    23.5558
_cell_length_b                    25.6544
_cell_length_c                    27.8923
_cell_angle_alpha                 93.1836
_cell_angle_beta                  94.6505
_cell_angle_gamma                 94.0574
loop_
_atom_site_label
_atom_site_type_symbol
_atom_site_fract_x
_atom_site_fract_y
_atom_site_fract_z
_atom_site_U_iso_or_equiv
_atom_site_adp_type
_atom_site_occupancy
C1     C     0.01497   0.26482   0.24876   0.00000  Uiso   1.00
C2     C     0.31102   0.16049   0.15940   0.00000  Uiso   1.00
C3     C     0.03431   0.17293   0.39328   0.00000  Uiso   1.00
C4     C     0.29602   0.14364   0.10910   0.00000  Uiso   1.00
C5     C     0.00666   0.19177   0.47379   0.00000  Uiso   1.00
C6     C     0.29865   0.07880   0.04275   0.00000  Uiso   1.00
C7     C     0.32694   0.18851   0.42409   0.00000  Uiso   1.00
C8     C     0.32003   0.10021   0.08822   0.00000  Uiso   1.00
C9     C     0.08765   0.15922   0.41294   0.00000  Uiso   1.00
C10    C     0.24907   0.16404   0.08532   0.00000  Uiso   1.00
C11    C     0.09588   0.15217   0.46224   0.00000  Uiso   1.00
C12    C     0.31834   0.06851   0.25114   0.00000  Uiso   1.00
C13    C     0.22000   0.13482   0.04564   0.00000  Uiso   1.00
C14    C     0.05828   0.17462   0.49310   0.00000  Uiso   1.00
C15    C     0.24826   0.09602   0.02110   0.00000  Uiso   1.00
C16    C     0.14441   0.12912   0.48181   0.00000  Uiso   1.00
C17    C     0.16354   0.14332   0.02991   0.00000  Uiso   1.00
C18    C     0.24696   0.25124   0.07593   0.00000  Uiso   1.00
C19    C     0.16365   0.20774   0.38977   0.00000  Uiso   1.00
C20    C     0.13516   0.10304   0.12077   0.00000  Uiso   1.00
C21    C     0.11039   0.02368   0.42411   0.00000  Uiso   1.00
C22    C     0.12390   0.16144   0.06164   0.00000  Uiso   1.00
C23    C     0.17273   0.09028   0.45637   0.00000  Uiso   1.00
C24    C     0.07283   0.17919   0.04263   0.00000  Uiso   1.00
C25    C     0.22403   0.07353   0.47677   0.00000  Uiso   1.00
C26    C     0.02275   0.31941   0.24799   0.00000  Uiso   1.00
C27    C     0.31054   0.01391   0.25175   0.00000  Uiso   1.00
C28    C     0.02220   0.17120   0.34092   0.00000  Uiso   1.00
H29    H     0.04436   0.19594   0.06673   0.00000  Uiso   1.00
H30    H     0.17124   0.21130   0.28257   0.00000  Uiso   1.00
H31    H     0.23205   0.28812   0.09138   0.00000  Uiso   1.00
H32    H     0.29439   0.25629   0.07709   0.00000  Uiso   1.00
H33    H     0.22786   0.24532   0.03803   0.00000  Uiso   1.00
H34    H     0.18252   0.21732   0.42739   0.00000  Uiso   1.00
H35    H     0.13589   0.23883   0.37797   0.00000  Uiso   1.00
H36    H     0.19918   0.20748   0.36615   0.00000  Uiso   1.00
H37    H     0.17999   0.09641   0.13270   0.00000  Uiso   1.00
H38    H     0.11983   0.07441   0.09005   0.00000  Uiso   1.00
H39    H     0.10872   0.09360   0.15060   0.00000  Uiso   1.00
H40    H     0.24466   0.04303   0.45790   0.00000  Uiso   1.00
H41    H     0.07479   0.03805   0.44388   0.00000  Uiso   1.00
H42    H     0.13277   0.32762   0.44498   0.00000  Uiso   1.00
H43    H     0.09132   0.00357   0.38971   0.00000  Uiso   1.00
H44    H     0.02075   0.08205   0.10747   0.00000  Uiso   1.00
H45    H     0.28634   0.20063   0.40981   0.00000  Uiso   1.00
H46    H     0.30959   0.20697   0.49698   0.00000  Uiso   1.00
H47    H     0.31929   0.04688   0.02604   0.00000  Uiso   1.00
H48    H     0.06567   0.00317   0.24439   0.00000  Uiso   1.00
H49    H     0.26761   0.33015   0.25532   0.00000  Uiso   1.00
H50    H     0.16250   0.12157   0.21849   0.00000  Uiso   1.00
N51    N     0.14695   0.15216   0.23740   0.00000  Uiso   1.00
N52    N     0.18638   0.18117   0.26261   0.00000  Uiso   1.00
O53    O     0.29719   0.24631   0.25310   0.00000  Uiso   1.00
O54    O     0.13363   0.15785   0.38504   0.00000  Uiso   1.00
O55    O     0.13078   0.15641   0.11099   0.00000  Uiso   1.00
O56    O     0.14876   0.06535   0.41348   0.00000  Uiso   1.00
O57    O     0.03614   0.08702   0.24691   0.00000  Uiso   1.00
O58    O     0.05822   0.23702   0.24502   0.00000  Uiso   1.00
O59    O     0.27512   0.09632   0.25499   0.00000  Uiso   1.00
O60    O     0.30328   0.17397   0.32247   0.00000  Uiso   1.00
O61    O     0.03005   0.15937   0.17753   0.00000  Uiso   1.00
O62    O     0.06431   0.16467   0.31439   0.00000  Uiso   1.00
O63    O     0.26902   0.16866   0.18561   0.00000  Uiso   1.00
O64    O     0.22909   0.20991   0.10379   0.00000  Uiso   1.00
Zn65   Zn    0.27033   0.17287   0.25540   0.00000  Uiso   1.00
Zn66   Zn    0.06300   0.16046   0.24461   0.00000  Uiso   1.00
C67    C     0.34831   0.26482   0.24876   0.00000  Uiso   1.00
C68    C     0.64436   0.16049   0.15940   0.00000  Uiso   1.00
C69    C     0.36764   0.17293   0.39328   0.00000  Uiso   1.00
C70    C     0.62935   0.14364   0.10910   0.00000  Uiso   1.00
C71    C     0.33999   0.19177   0.47379   0.00000  Uiso   1.00
C72    C     0.63199   0.07880   0.04275   0.00000  Uiso   1.00
C73    C     0.66027   0.18851   0.42409   0.00000  Uiso   1.00
C74    C     0.65337   0.10021   0.08822   0.00000  Uiso   1.00
C75    C     0.42099   0.15922   0.41294   0.00000  Uiso   1.00
C76    C     0.58241   0.16404   0.08532   0.00000  Uiso   1.00
C77    C     0.42922   0.15217   0.46224   0.00000  Uiso   1.00
C78    C     0.65167   0.06851   0.25114   0.00000  Uiso   1.00
C79    C     0.55333   0.13482   0.04564   0.00000  Uiso   1.00
C80    C     0.39161   0.17462   0.49310   0.00000  Uiso   1.00
C81    C     0.58159   0.09602   0.02110   0.00000  Uiso   1.00
C82    C     0.47774   0.12912   0.48181   0.00000  Uiso   1.00
C83    C     0.49688   0.14332   0.02991   0.00000  Uiso   1.00
C84    C     0.58030   0.25124   0.07593   0.00000  Uiso   1.00
C85    C     0.49698   0.20774   0.38977   0.00000  Uiso   1.00
C86    C     0.46850   0.10304   0.12077   0.00000  Uiso   1.00
C87    C     0.44373   0.02368   0.42411   0.00000  Uiso   1.00
C88    C     0.45724   0.16144   0.06164   0.00000  Uiso   1.00
C89    C     0.50606   0.09028   0.45637   0.00000  Uiso   1.00
C90    C     0.40617   0.17919   0.04263   0.00000  Uiso   1.00
C91    C     0.55736   0.07353   0.47677   0.00000  Uiso   1.00
C92    C     0.35608   0.31941   0.24799   0.00000  Uiso   1.00
C93    C     0.64388   0.01391   0.25175   0.00000  Uiso   1.00
C94    C     0.35553   0.17120   0.34092   0.00000  Uiso   1.00
H95    H     0.37769   0.19594   0.06673   0.00000  Uiso   1.00
H96    H     0.50457   0.21130   0.28257   0.00000  Uiso   1.00
H97    H     0.56538   0.28812   0.09138   0.00000  Uiso   1.00
H98    H     0.62773   0.25629   0.07709   0.00000  Uiso   1.00
H99    H     0.56119   0.24532   0.03803   0.00000  Uiso   1.00
H100   H     0.51586   0.21732   0.42739   0.00000  Uiso   1.00
H101   H     0.46922   0.23883   0.37797   0.00000  Uiso   1.00
H102   H     0.53251   0.20748   0.36615   0.00000  Uiso   1.00
H103   H     0.51332   0.09641   0.13270   0.00000  Uiso   1.00
H104   H     0.45316   0.07441   0.09005   0.00000  Uiso   1.00
H105   H     0.44205   0.09360   0.15060   0.00000  Uiso   1.00
H106   H     0.57800   0.04303   0.45790   0.00000  Uiso   1.00
H107   H     0.40812   0.03805   0.44388   0.00000  Uiso   1.00
H108   H     0.46611   0.32762   0.44498   0.00000  Uiso   1.00
H109   H     0.42466   0.00357   0.38971   0.00000  Uiso   1.00
H110   H     0.35409   0.08205   0.10747   0.00000  Uiso   1.00
H111   H     0.61968   0.20063   0.40981   0.00000  Uiso   1.00
H112   H     0.64292   0.20697   0.49698   0.00000  Uiso   1.00
H113   H     0.65262   0.04688   0.02604   0.00000  Uiso   1.00
H114   H     0.39901   0.00317   0.24439   0.00000  Uiso   1.00
H115   H     0.60095   0.33015   0.25532   0.00000  Uiso   1.00
H116   H     0.49583   0.12157   0.21849   0.00000  Uiso   1.00
N117   N     0.48029   0.15216   0.23740   0.00000  Uiso   1.00
N118   N     0.51971   0.18117   0.26261   0.00000  Uiso   1.00
O119   O     0.63052   0.24631   0.25310   0.00000  Uiso   1.00
O120   O     0.46696   0.15785   0.38504   0.00000  Uiso   1.00
O121   O     0.46411   0.15641   0.11099   0.00000  Uiso   1.00
O122   O     0.48210   0.06535   0.41348   0.00000  Uiso   1.00
O123   O     0.36948   0.08702   0.24691   0.00000  Uiso   1.00
O124   O     0.39155   0.23702   0.24502   0.00000  Uiso   1.00
O125   O     0.60845   0.09632   0.25499   0.00000  Uiso   1.00
O126   O     0.63662   0.17397   0.32247   0.00000  Uiso   1.00
O127   O     0.36338   0.15937   0.17753   0.00000  Uiso   1.00
O128   O     0.39764   0.16467   0.31439   0.00000  Uiso   1.00
O129   O     0.60236   0.16866   0.18561   0.00000  Uiso   1.00
O130   O     0.56243   0.20991   0.10379   0.00000  Uiso   1.00
Zn131  Zn    0.60366   0.17287   0.25540   0.00000  Uiso   1.00
Zn132  Zn    0.39634   0.16046   0.24461   0.00000  Uiso   1.00
C133   C     0.68164   0.26482   0.24876   0.00000  Uiso   1.00
C134   C     0.97769   0.16049   0.15940   0.00000  Uiso   1.00
C135   C     0.70097   0.17293   0.39328   0.00000  Uiso   1.00
C136   C     0.96268   0.14364   0.10910   0.00000  Uiso   1.00
C137   C     0.67332   0.19177   0.47379   0.00000  Uiso   1.00
C138   C     0.96532   0.07880   0.04275   0.00000  Uiso   1.00
C139   C     0.99361   0.18851   0.42409   0.00000  Uiso   1.00
C140   C     0.98670   0.10021   0.08822   0.00000  Uiso   1.00
C141   C     0.75432   0.15922   0.41294   0.00000  Uiso   1.00
C142   C     0.91574   0.16404   0.08532   0.00000  Uiso   1.00
C143   C     0.76255   0.15217   0.46224   0.00000  Uiso   1.00
C144   C     0.98501   0.06851   0.25114   0.00000  Uiso   1.00
C145   C     0.88666   0.13482   0.04564   0.00000  Uiso   1.00
C146   C     0.72494   0.17462   0.49310   0.00000  Uiso   1.00
C147   C     0.91492   0.09602   0.02110   0.00000  Uiso   1.00
C148   C     0.81108   0.12912   0.48181   0.00000  Uiso   1.00
C149   C     0.83021   0.14332   0.02991   0.00000  Uiso   1.00
C150   C     0.91363   0.25124   0.07593   0.00000  Uiso   1.00
C151   C     0.83031   0.20774   0.38977   0.00000  Uiso   1.00
C152   C     0.80183   0.10304   0.12077   0.00000  Uiso   1.00
C153   C     0.77706   0.02368   0.42411   0.00000  Uiso   1.00
C154   C     0.79057   0.16144   0.06164   0.00000  Uiso   1.00
C155   C     0.83939   0.09028   0.45637   0.00000  Uiso   1.00
C156   C     0.73950   0.17919   0.04263   0.00000  Uiso   1.00
C157   C     0.89070   0.07353   0.47677   0.00000  Uiso   1.00
C158   C     0.68941   0.31941   0.24799   0.00000  Uiso   1.00
C159   C     0.97721   0.01391   0.25175   0.00000  Uiso   1.00
C160   C     0.68887   0.17120   0.34092   0.00000  Uiso   1.00
H161   H     0.71103   0.19594   0.06673   0.00000  Uiso   1.00
H162   H     0.83791   0.21130   0.28257   0.00000  Uiso   1.00
H163   H     0.89871   0.28812   0.09138   0.00000  Uiso   1.00
H164   H     0.96106   0.25629   0.07709   0.00000  Uiso   1.00
H165   H     0.89452   0.24532   0.03803   0.00000  Uiso   1.00
H166   H     0.84919   0.21732   0.42739   0.00000  Uiso   1.00
H167   H     0.80255   0.23883   0.37797   0.00000  Uiso   1.00
H168   H     0.86585   0.20748   0.36615   0.00000  Uiso   1.00
H169   H     0.84666   0.09641   0.13270   0.00000  Uiso   1.00
H170   H     0.78649   0.07441   0.09005   0.00000  Uiso   1.00
H171   H     0.77538   0.09360   0.15060   0.00000  Uiso   1.00
H172   H     0.91133   0.04303   0.45790   0.00000  Uiso   1.00
H173   H     0.74146   0.03805   0.44388   0.00000  Uiso   1.00
H174   H     0.79944   0.32762   0.44498   0.00000  Uiso   1.00
H175   H     0.75799   0.00357   0.38971   0.00000  Uiso   1.00
H176   H     0.68742   0.08205   0.10747   0.00000  Uiso   1.00
H177   H     0.95301   0.20063   0.40981   0.00000  Uiso   1.00
H178   H     0.97626   0.20697   0.49698   0.00000  Uiso   1.00
H179   H     0.98596   0.04688   0.02604   0.00000  Uiso   1.00
H180   H     0.73234   0.00317   0.24439   0.00000  Uiso   1.00
H181   H     0.93428   0.33015   0.25532   0.00000  Uiso   1.00
H182   H     0.82916   0.12157   0.21849   0.00000  Uiso   1.00
N183   N     0.81362   0.15216   0.23740   0.00000  Uiso   1.00
N184   N     0.85305   0.18117   0.26261   0.00000  Uiso   1.00
O185   O     0.96386   0.24631   0.25310   0.00000  Uiso   1.00
O186   O     0.80030   0.15785   0.38504   0.00000  Uiso   1.00
O187   O     0.79744   0.15641   0.11099   0.00000  Uiso   1.00
O188   O     0.81543   0.06535   0.41348   0.00000  Uiso   1.00
O189   O     0.70281   0.08702   0.24691   0.00000  Uiso   1.00
O190   O     0.72488   0.23702   0.24502   0.00000  Uiso   1.00
O191   O     0.94178   0.09632   0.25499   0.00000  Uiso   1.00
O192   O     0.96995   0.17397   0.32247   0.00000  Uiso   1.00
O193   O     0.69672   0.15937   0.17753   0.00000  Uiso   1.00
O194   O     0.73098   0.16467   0.31439   0.00000  Uiso   1.00
O195   O     0.93569   0.16866   0.18561   0.00000  Uiso   1.00
O196   O     0.89576   0.20991   0.10379   0.00000  Uiso   1.00
Zn197  Zn    0.93700   0.17287   0.25540   0.00000  Uiso   1.00
Zn198  Zn    0.72967   0.16046   0.24461   0.00000  Uiso   1.00
C199   C     0.01497   0.59815   0.24876   0.00000  Uiso   1.00
C200   C     0.31102   0.49383   0.15940   0.00000  Uiso   1.00
C201   C     0.03431   0.50627   0.39328   0.00000  Uiso   1.00
C202   C     0.29602   0.47697   0.10910   0.00000  Uiso   1.00
C203   C     0.00666   0.52510   0.47379   0.00000  Uiso   1.00
C204   C     0.29865   0.41213   0.04275   0.00000  Uiso   1.00
C205   C     0.32694   0.52185   0.42409   0.00000  Uiso   1.00
C206   C     0.32003   0.43354   0.08822   0.00000  Uiso   1.00
C207   C     0.08765   0.49255   0.41294   0.00000  Uiso   1.00
C208   C     0.24907   0.49737   0.08532   0.00000  Uiso   1.00
C209   C     0.09588   0.48550   0.46224   0.00000  Uiso   1.00
C210   C     0.31834   0.40184   0.25114   0.00000  Uiso   1.00
C211   C     0.22000   0.46815   0.04564   0.00000  Uiso   1.00
C212   C     0.05828   0.50795   0.49310   0.00000  Uiso   1.00
C213   C     0.24826   0.42936   0.02110   0.00000  Uiso   1.00
C214   C     0.14441   0.46245   0.48181   0.00000  Uiso   1.00
C215   C     0.16354   0.47665   0.02991   0.00000  Uiso   1.00
C216   C     0.24696   0.58457   0.07593   0.00000  Uiso   1.00
C217   C     0.16365   0.54107   0.38977   0.00000  Uiso   1.00
C218   C     0.13516   0.43638   0.12077   0.00000  Uiso   1.00
C219   C     0.11039   0.35701   0.42411   0.00000  Uiso   1.00
C220   C     0.12390   0.49477   0.06164   0.00000  Uiso   1.00
C221   C     0.17273   0.42361   0.45637   0.00000  Uiso   1.00
C222   C     0.07283   0.51253   0.04263   0.00000  Uiso   1.00
C223   C     0.22403   0.40686   0.47677   0.00000  Uiso   1.00
C224   C     0.02275   0.65275   0.24799   0.00000  Uiso   1.00
C225   C     0.31054   0.34724   0.25175   0.00000  Uiso   1.00
C226   C     0.02220   0.50453   0.34092   0.00000  Uiso   1.00
H227   H     0.04436   0.52928   0.06673   0.00000  Uiso   1.00
H228   H     0.17124   0.54464   0.28257   0.00000  Uiso   1.00
H229   H     0.23205   0.62145   0.09138   0.00000  Uiso   1.00
H230   H     0.29439   0.58962   0.07709   0.00000  Uiso   1.00
H231   H     0.22786   0.57866   0.03803   0.00000  Uiso   1.00
H232   H     0.18252   0.55065   0.42739   0.00000  Uiso   1.00
H233   H     0.13589   0.57216   0.37797   0.00000  Uiso   1.00
H234   H     0.19918   0.54081   0.36615   0.00000  Uiso   1.00
H235   H     0.17999   0.42975   0.13270   0.00000  Uiso   1.00
H236   H     0.11983   0.40774   0.09005   0.00000  Uiso   1.00
H237   H     0.10872   0.42693   0.15060   0.00000  Uiso   1.00
H238   H     0.24466   0.37636   0.45790   0.00000  Uiso   1.00
H239   H     0.07479   0.37138   0.44388   0.00000  Uiso   1.00
H240   H     0.13277   0.66095   0.44498   0.00000  Uiso   1.00
H241   H     0.09132   0.33690   0.38971   0.00000  Uiso   1.00
H242   H     0.02075   0.41539   0.10747   0.00000  Uiso   1.00
H243   H     0.28634   0.53396   0.40981   0.00000  Uiso   1.00
H244   H     0.30959   0.54031   0.49698   0.00000  Uiso   1.00
H245   H     0.31929   0.38022   0.02604   0.00000  Uiso   1.00
H246   H     0.06567   0.33650   0.24439   0.00000  Uiso   1.00
H247   H     0.26761   0.66348   0.25532   0.00000  Uiso   1.00
H248   H     0.16250   0.45491   0.21849   0.00000  Uiso   1.00
N249   N     0.14695   0.48550   0.23740   0.00000  Uiso   1.00
N250   N     0.18638   0.51450   0.26261   0.00000  Uiso   1.00
O251   O     0.29719   0.57964   0.25310   0.00000  Uiso   1.00
O252   O     0.13363   0.49119   0.38504   0.00000  Uiso   1.00
O253   O     0.13078   0.48974   0.11099   0.00000  Uiso   1.00
O254   O     0.14876   0.39869   0.41348   0.00000  Uiso   1.00
O255   O     0.03614   0.42036   0.24691   0.00000  Uiso   1.00
O256   O     0.05822   0.57035   0.24502   0.00000  Uiso   1.00
O257   O     0.27512   0.42965   0.25499   0.00000  Uiso   1.00
O258   O     0.30328   0.50730   0.32247   0.00000  Uiso   1.00
O259   O     0.03005   0.49270   0.17753   0.00000  Uiso   1.00
O260   O     0.06431   0.49801   0.31439   0.00000  Uiso   1.00
O261   O     0.26902   0.50199   0.18561   0.00000  Uiso   1.00
O262   O     0.22909   0.54324   0.10379   0.00000  Uiso   1.00
Zn263  Zn    0.27033   0.50621   0.25540   0.00000  Uiso   1.00
Zn264  Zn    0.06300   0.49379   0.24461   0.00000  Uiso   1.00
C265   C     0.34831   0.59815   0.24876   0.00000  Uiso   1.00
C266   C     0.64436   0.49383   0.15940   0.00000  Uiso   1.00
C267   C     0.36764   0.50627   0.39328   0.00000  Uiso   1.00
C268   C     0.62935   0.47697   0.10910   0.00000  Uiso   1.00
C269   C     0.33999   0.52510   0.47379   0.00000  Uiso   1.00
C270   C     0.63199   0.41213   0.04275   0.00000  Uiso   1.00
C271   C     0.66027   0.52185   0.42409   0.00000  Uiso   1.00
C272   C     0.65337   0.43354   0.08822   0.00000  Uiso   1.00
C273   C     0.42099   0.49255   0.41294   0.00000  Uiso   1.00
C274   C     0.58241   0.49737   0.08532   0.00000  Uiso   1.00
C275   C     0.42922   0.48550   0.46224   0.00000  Uiso   1.00
C276   C     0.65167   0.40184   0.25114   0.00000  Uiso   1.00
C277   C     0.55333   0.46815   0.04564   0.00000  Uiso   1.00
C278   C     0.39161   0.50795   0.49310   0.00000  Uiso   1.00
C279   C     0.58159   0.42936   0.02110   0.00000  Uiso   1.00
C280   C     0.47774   0.46245   0.48181   0.00000  Uiso   1.00
C281   C     0.49688   0.47665   0.02991   0.00000  Uiso   1.00
C282   C     0.58030   0.58457   0.07593   0.00000  Uiso   1.00
C283   C     0.49698   0.54107   0.38977   0.00000  Uiso   1.00
C284   C     0.46850   0.43638   0.12077   0.00000  Uiso   1.00
C285   C     0.44373   0.35701   0.42411   0.00000  Uiso   1.00
C286   C     0.45724   0.49477   0.06164   0.00000  Uiso   1.00
C287   C     0.50606   0.42361   0.45637   0.00000  Uiso   1.00
C288   C     0.40617   0.51253   0.04263   0.00000  Uiso   1.00
C289   C     0.55736   0.40686   0.47677   0.00000  Uiso   1.00
C290   C     0.35608   0.65275   0.24799   0.00000  Uiso   1.00
C291   C     0.64388   0.34724   0.25175   0.00000  Uiso   1.00
C292   C     0.35553   0.50453   0.34092   0.00000  Uiso   1.00
H293   H     0.37769   0.52928   0.06673   0.00000  Uiso   1.00
H294   H     0.50457   0.54464   0.28257   0.00000  Uiso   1.00
H295   H     0.56538   0.62145   0.09138   0.00000  Uiso   1.00
H296   H     0.62773   0.58962   0.07709   0.00000  Uiso   1.00
H297   H     0.56119   0.57866   0.03803   0.00000  Uiso   1.00
H298   H     0.51586   0.55065   0.42739   0.00000  Uiso   1.00
H299   H     0.46922   0.57216   0.37797   0.00000  Uiso   1.00
H300   H     0.53251   0.54081   0.36615   0.00000  Uiso   1.00
H301   H     0.51332   0.42975   0.13270   0.00000  Uiso   1.00
H302   H     0.45316   0.40774   0.09005   0.00000  Uiso   1.00
H303   H     0.44205   0.42693   0.15060   0.00000  Uiso   1.00
H304   H     0.57800   0.37636   0.45790   0.00000  Uiso   1.00
H305   H     0.40812   0.37138   0.44388   0.00000  Uiso   1.00
H306   H     0.46611   0.66095   0.44498   0.00000  Uiso   1.00
H307   H     0.42466   0.33690   0.38971   0.00000  Uiso   1.00
H308   H     0.35409   0.41539   0.10747   0.00000  Uiso   1.00
H309   H     0.61968   0.53396   0.40981   0.00000  Uiso   1.00
H310   H     0.64292   0.54031   0.49698   0.00000  Uiso   1.00
H311   H     0.65262   0.38022   0.02604   0.00000  Uiso   1.00
H312   H     0.39901   0.33650   0.24439   0.00000  Uiso   1.00
H313   H     0.60095   0.66348   0.25532   0.00000  Uiso   1.00
H314   H     0.49583   0.45491   0.21849   0.00000  Uiso   1.00
N315   N     0.48029   0.48550   0.23740   0.00000  Uiso   1.00
N316   N     0.51971   0.51450   0.26261   0.00000  Uiso   1.00
O317   O     0.63052   0.57964   0.25310   0.00000  Uiso   1.00
O318   O     0.46696   0.49119   0.38504   0.00000  Uiso   1.00
O319   O     0.46411   0.48974   0.11099   0.00000  Uiso   1.00
O320   O     0.48210   0.39869   0.41348   0.00000  Uiso   1.00
O321   O     0.36948   0.42036   0.24691   0.00000  Uiso   1.00
O322   O     0.39155   0.57035   0.24502   0.00000  Uiso   1.00
O323   O     0.60845   0.42965   0.25499   0.00000  Uiso   1.00
O324   O     0.63662   0.50730   0.32247   0.00000  Uiso   1.00
O325   O     0.36338   0.49270   0.17753   0.00000  Uiso   1.00
O326   O     0.39764   0.49801   0.31439   0.00000  Uiso   1.00
O327   O     0.60236   0.50199   0.18561   0.00000  Uiso   1.00
O328   O     0.56243   0.54324   0.10379   0.00000  Uiso   1.00
Zn329  Zn    0.60366   0.50621   0.25540   0.00000  Uiso   1.00
Zn330  Zn    0.39634   0.49379   0.24461   0.00000  Uiso   1.00
C331   C     0.68164   0.59815   0.24876   0.00000  Uiso   1.00
C332   C     0.97769   0.49383   0.15940   0.00000  Uiso   1.00
C333   C     0.70097   0.50627   0.39328   0.00000  Uiso   1.00
C334   C     0.96268   0.47697   0.10910   0.00000  Uiso   1.00
C335   C     0.67332   0.52510   0.47379   0.00000  Uiso   1.00
C336   C     0.96532   0.41213   0.04275   0.00000  Uiso   1.00
C337   C     0.99361   0.52185   0.42409   0.00000  Uiso   1.00
C338   C     0.98670   0.43354   0.08822   0.00000  Uiso   1.00
C339   C     0.75432   0.49255   0.41294   0.00000  Uiso   1.00
C340   C     0.91574   0.49737   0.08532   0.00000  Uiso   1.00
C341   C     0.76255   0.48550   0.46224   0.00000  Uiso   1.00
C342   C     0.98501   0.40184   0.25114   0.00000  Uiso   1.00
C343   C     0.88666   0.46815   0.04564   0.00000  Uiso   1.00
C344   C     0.72494   0.50795   0.49310   0.00000  Uiso   1.00
C345   C     0.91492   0.42936   0.02110   0.00000  Uiso   1.00
C346   C     0.81108   0.46245   0.48181   0.00000  Uiso   1.00
C347   C     0.83021   0.47665   0.02991   0.00000  Uiso   1.00
C348   C     0.91363   0.58457   0.07593   0.00000  Uiso   1.00
C349   C     0.83031   0.54107   0.38977   0.00000  Uiso   1.00
C350   C     0.80183   0.43638   0.12077   0.00000  Uiso   1.00
C351   C     0.77706   0.35701   0.42411   0.00000  Uiso   1.00
C352   C     0.79057   0.49477   0.06164   0.00000  Uiso   1.00
C353   C     0.83939   0.42361   0.45637   0.00000  Uiso   1.00
C354   C     0.73950   0.51253   0.04263   0.00000  Uiso   1.00
C355   C     0.89070   0.40686   0.47677   0.00000  Uiso   1.00
C356   C     0.68941   0.65275   0.24799   0.00000  Uiso   1.00
C357   C     0.97721   0.34724   0.25175   0.00000  Uiso   1.00
C358   C     0.68887   0.50453   0.34092   0.00000  Uiso   1.00
H359   H     0.71103   0.52928   0.06673   0.00000  Uiso   1.00
H360   H     0.83791   0.54464   0.28257   0.00000  Uiso   1.00
H361   H     0.89871   0.62145   0.09138   0.00000  Uiso   1.00
H362   H     0.96106   0.58962   0.07709   0.00000  Uiso   1.00
H363   H     0.89452   0.57866   0.03803   0.00000  Uiso   1.00
H364   H     0.84919   0.55065   0.42739   0.00000  Uiso   1.00
H365   H     0.80255   0.57216   0.37797   0.00000  Uiso   1.00
H366   H     0.86585   0.54081   0.36615   0.00000  Uiso   1.00
H367   H     0.84666   0.42975   0.13270   0.00000  Uiso   1.00
H368   H     0.78649   0.40774   0.09005   0.00000  Uiso   1.00
H369   H     0.77538   0.42693   0.15060   0.00000  Uiso   1.00
H370   H     0.91133   0.37636   0.45790   0.00000  Uiso   1.00
H371   H     0.74146   0.37138   0.44388   0.00000  Uiso   1.00
H372   H     0.79944   0.66095   0.44498   0.00000  Uiso   1.00
H373   H     0.75799   0.33690   0.38971   0.00000  Uiso   1.00
H374   H     0.68742   0.41539   0.10747   0.00000  Uiso   1.00
H375   H     0.95301   0.53396   0.40981   0.00000  Uiso   1.00
H376   H     0.97626   0.54031   0.49698   0.00000  Uiso   1.00
H377   H     0.98596   0.38022   0.02604   0.00000  Uiso   1.00
H378   H     0.73234   0.33650   0.24439   0.00000  Uiso   1.00
H379   H     0.93428   0.66348   0.25532   0.00000  Uiso   1.00
H380   H     0.82916   0.45491   0.21849   0.00000  Uiso   1.00
N381   N     0.81362   0.48550   0.23740   0.00000  Uiso   1.00
N382   N     0.85305   0.51450   0.26261   0.00000  Uiso   1.00
O383   O     0.96386   0.57964   0.25310   0.00000  Uiso   1.00
O384   O     0.80030   0.49119   0.38504   0.00000  Uiso   1.00
O385   O     0.79744   0.48974   0.11099   0.00000  Uiso   1.00
O386   O     0.81543   0.39869   0.41348   0.00000  Uiso   1.00
O387   O     0.70281   0.42036   0.24691   0.00000  Uiso   1.00
O388   O     0.72488   0.57035   0.24502   0.00000  Uiso   1.00
O389   O     0.94178   0.42965   0.25499   0.00000  Uiso   1.00
O390   O     0.96995   0.50730   0.32247   0.00000  Uiso   1.00
O391   O     0.69672   0.49270   0.17753   0.00000  Uiso   1.00
O392   O     0.73098   0.49801   0.31439   0.00000  Uiso   1.00
O393   O     0.93569   0.50199   0.18561   0.00000  Uiso   1.00
O394   O     0.89576   0.54324   0.10379   0.00000  Uiso   1.00
Zn395  Zn    0.93700   0.50621   0.25540   0.00000  Uiso   1.00
Zn396  Zn    0.72967   0.49379   0.24461   0.00000  Uiso   1.00
C397   C     0.01497   0.93149   0.24876   0.00000  Uiso   1.00
C398   C     0.31102   0.82716   0.15940   0.00000  Uiso   1.00
C399   C     0.03431   0.83960   0.39328   0.00000  Uiso   1.00
C400   C     0.29602   0.81030   0.10910   0.00000  Uiso   1.00
C401   C     0.00666   0.85844   0.47379   0.00000  Uiso   1.00
C402   C     0.29865   0.74546   0.04275   0.00000  Uiso   1.00
C403   C     0.32694   0.85518   0.42409   0.00000  Uiso   1.00
C404   C     0.32003   0.76687   0.08822   0.00000  Uiso   1.00
C405   C     0.08765   0.82588   0.41294   0.00000  Uiso   1.00
C406   C     0.24907   0.83070   0.08532   0.00000  Uiso   1.00
C407   C     0.09588   0.81884   0.46224   0.00000  Uiso   1.00
C408   C     0.31834   0.73517   0.25114   0.00000  Uiso   1.00
C409   C     0.22000   0.80149   0.04564   0.00000  Uiso   1.00
C410   C     0.05828   0.84129   0.49310   0.00000  Uiso   1.00
C411   C     0.24826   0.76269   0.02110   0.00000  Uiso   1.00
C412   C     0.14441   0.79579   0.48181   0.00000  Uiso   1.00
C413   C     0.16354   0.80998   0.02991   0.00000  Uiso   1.00
C414   C     0.24696   0.91790   0.07593   0.00000  Uiso   1.00
C415   C     0.16365   0.87441   0.38977   0.00000  Uiso   1.00
C416   C     0.13516   0.76971   0.12077   0.00000  Uiso   1.00
C417   C     0.11039   0.69034   0.42411   0.00000  Uiso   1.00
C418   C     0.12390   0.82810   0.06164   0.00000  Uiso   1.00
C419   C     0.17273   0.75694   0.45637   0.00000  Uiso   1.00
C420   C     0.07283   0.84586   0.04263   0.00000  Uiso   1.00
C421   C     0.22403   0.74020   0.47677   0.00000  Uiso   1.00
C422   C     0.02275   0.98608   0.24799   0.00000  Uiso   1.00
C423   C     0.31054   0.68057   0.25175   0.00000  Uiso   1.00
C424   C     0.02220   0.83786   0.34092   0.00000  Uiso   1.00
H425   H     0.04436   0.86261   0.06673   0.00000  Uiso   1.00
H426   H     0.17124   0.87797   0.28257   0.00000  Uiso   1.00
H427   H     0.23205   0.95479   0.09138   0.00000  Uiso   1.00
H428   H     0.29439   0.92296   0.07709   0.00000  Uiso   1.00
H429   H     0.22786   0.91199   0.03803   0.00000  Uiso   1.00
H430   H     0.18252   0.88398   0.42739   0.00000  Uiso   1.00
H431   H     0.13589   0.90549   0.37797   0.00000  Uiso   1.00
H432   H     0.19918   0.87415   0.36615   0.00000  Uiso   1.00
H433   H     0.17999   0.76308   0.13270   0.00000  Uiso   1.00
H434   H     0.11983   0.74107   0.09005   0.00000  Uiso   1.00
H435   H     0.10872   0.76026   0.15060   0.00000  Uiso   1.00
H436   H     0.24466   0.70970   0.45790   0.00000  Uiso   1.00
H437   H     0.07479   0.70471   0.44388   0.00000  Uiso   1.00
H438   H     0.13277   0.99429   0.44498   0.00000  Uiso   1.00
H439   H     0.09132   0.67024   0.38971   0.00000  Uiso   1.00
H440   H     0.02075   0.74872   0.10747   0.00000  Uiso   1.00
H441   H     0.28634   0.86729   0.40981   0.00000  Uiso   1.00
H442   H     0.30959   0.87364   0.49698   0.00000  Uiso   1.00
H443   H     0.31929   0.71355   0.02604   0.00000  Uiso   1.00
H444   H     0.06567   0.66984   0.24439   0.00000  Uiso   1.00
H445   H     0.26761   0.99682   0.25532   0.00000  Uiso   1.00
H446   H     0.16250   0.78824   0.21849   0.00000  Uiso   1.00
N447   N     0.14695   0.81883   0.23740   0.00000  Uiso   1.00
N448   N     0.18638   0.84784   0.26261   0.00000  Uiso   1.00
O449   O     0.29719   0.91298   0.25310   0.00000  Uiso   1.00
O450   O     0.13363   0.82452   0.38504   0.00000  Uiso   1.00
O451   O     0.13078   0.82308   0.11099   0.00000  Uiso   1.00
O452   O     0.14876   0.73202   0.41348   0.00000  Uiso   1.00
O453   O     0.03614   0.75369   0.24691   0.00000  Uiso   1.00
O454   O     0.05822   0.90368   0.24502   0.00000  Uiso   1.00
O455   O     0.27512   0.76298   0.25499   0.00000  Uiso   1.00
O456   O     0.30328   0.84063   0.32247   0.00000  Uiso   1.00
O457   O     0.03005   0.82603   0.17753   0.00000  Uiso   1.00
O458   O     0.06431   0.83134   0.31439   0.00000  Uiso   1.00
O459   O     0.26902   0.83533   0.18561   0.00000  Uiso   1.00
O460   O     0.22909   0.87658   0.10379   0.00000  Uiso   1.00
Zn461  Zn    0.27033   0.83954   0.25540   0.00000  Uiso   1.00
Zn462  Zn    0.06300   0.82713   0.24461   0.00000  Uiso   1.00
C463   C     0.34831   0.93149   0.24876   0.00000  Uiso   1.00
C464   C     0.64436   0.82716   0.15940   0.00000  Uiso   1.00
C465   C     0.36764   0.83960   0.39328   0.00000  Uiso   1.00
C466   C     0.62935   0.81030   0.10910   0.00000  Uiso   1.00
C467   C     0.33999   0.85844   0.47379   0.00000  Uiso   1.00
C468   C     0.63199   0.74546   0.04275   0.00000  Uiso   1.00
C469   C     0.66027   0.85518   0.42409   0.00000  Uiso   1.00
C470   C     0.65337   0.76687   0.08822   0.00000  Uiso   1.00
C471   C     0.42099   0.82588   0.41294   0.00000  Uiso   1.00
C472   C     0.58241   0.83070   0.08532   0.00000  Uiso   1.00
C473   C     0.42922   0.81884   0.46224   0.00000  Uiso   1.00
C474   C     0.65167   0.73517   0.25114   0.00000  Uiso   1.00
C475   C     0.55333   0.80149   0.04564   0.00000  Uiso   1.00
C476   C     0.39161   0.84129   0.49310   0.00000  Uiso   1.00
C477   C     0.58159   0.76269   0.02110   0.00000  Uiso   1.00
C478   C     0.47774   0.79579   0.48181   0.00000  Uiso   1.00
C479   C     0.49688   0.80998   0.02991   0.00000  Uiso   1.00
C480   C     0.58030   0.91790   0.07593   0.00000  Uiso   1.00
C481   C     0.49698   0.87441   0.38977   0.00000  Uiso   1.00
C482   C     0.46850   0.76971   0.12077   0.00000  Uiso   1.00
C483   C     0.44373   0.69034   0.42411   0.00000  Uiso   1.00
C484   C     0.45724   0.82810   0.06164   0.00000  Uiso   1.00
C485   C     0.50606   0.75694   0.45637   0.00000  Uiso   1.00
C486   C     0.40617   0.84586   0.04263   0.00000  Uiso   1.00
C487   C     0.55736   0.74020   0.47677   0.00000  Uiso   1.00
C488   C     0.35608   0.98608   0.24799   0.00000  Uiso   1.00
C489   C     0.64388   0.68057   0.25175   0.00000  Uiso   1.00
C490   C     0.35553   0.83786   0.34092   0.00000  Uiso   1.00
H491   H     0.37769   0.86261   0.06673   0.00000  Uiso   1.00
H492   H     0.50457   0.87797   0.28257   0.00000  Uiso   1.00
H493   H     0.56538   0.95479   0.09138   0.00000  Uiso   1.00
H494   H     0.62773   0.92296   0.07709   0.00000  Uiso   1.00
H495   H     0.56119   0.91199   0.03803   0.00000  Uiso   1.00
H496   H     0.51586   0.88398   0.42739   0.00000  Uiso   1.00
H497   H     0.46922   0.90549   0.37797   0.00000  Uiso   1.00
H498   H     0.53251   0.87415   0.36615   0.00000  Uiso   1.00
H499   H     0.51332   0.76308   0.13270   0.00000  Uiso   1.00
H500   H     0.45316   0.74107   0.09005   0.00000  Uiso   1.00
H501   H     0.44205   0.76026   0.15060   0.00000  Uiso   1.00
H502   H     0.57800   0.70970   0.45790   0.00000  Uiso   1.00
H503   H     0.40812   0.70471   0.44388   0.00000  Uiso   1.00
H504   H     0.46611   0.99429   0.44498   0.00000  Uiso   1.00
H505   H     0.42466   0.67024   0.38971   0.00000  Uiso   1.00
H506   H     0.35409   0.74872   0.10747   0.00000  Uiso   1.00
H507   H     0.61968   0.86729   0.40981   0.00000  Uiso   1.00
H508   H     0.64292   0.87364   0.49698   0.00000  Uiso   1.00
H509   H     0.65262   0.71355   0.02604   0.00000  Uiso   1.00
H510   H     0.39901   0.66984   0.24439   0.00000  Uiso   1.00
H511   H     0.60095   0.99682   0.25532   0.00000  Uiso   1.00
H512   H     0.49583   0.78824   0.21849   0.00000  Uiso   1.00
N513   N     0.48029   0.81883   0.23740   0.00000  Uiso   1.00
N514   N     0.51971   0.84784   0.26261   0.00000  Uiso   1.00
O515   O     0.63052   0.91298   0.25310   0.00000  Uiso   1.00
O516   O     0.46696   0.82452   0.38504   0.00000  Uiso   1.00
O517   O     0.46411   0.82308   0.11099   0.00000  Uiso   1.00
O518   O     0.48210   0.73202   0.41348   0.00000  Uiso   1.00
O519   O     0.36948   0.75369   0.24691   0.00000  Uiso   1.00
O520   O     0.39155   0.90368   0.24502   0.00000  Uiso   1.00
O521   O     0.60845   0.76298   0.25499   0.00000  Uiso   1.00
O522   O     0.63662   0.84063   0.32247   0.00000  Uiso   1.00
O523   O     0.36338   0.82603   0.17753   0.00000  Uiso   1.00
O524   O     0.39764   0.83134   0.31439   0.00000  Uiso   1.00
O525   O     0.60236   0.83533   0.18561   0.00000  Uiso   1.00
O526   O     0.56243   0.87658   0.10379   0.00000  Uiso   1.00
Zn527  Zn    0.60366   0.83954   0.25540   0.00000  Uiso   1.00
Zn528  Zn    0.39634   0.82713   0.24461   0.00000  Uiso   1.00
C529   C     0.68164   0.93149   0.24876   0.00000  Uiso   1.00
C530   C     0.97769   0.82716   0.15940   0.00000  Uiso   1.00
C531   C     0.70097   0.83960   0.39328   0.00000  Uiso   1.00
C532   C     0.96268   0.81030   0.10910   0.00000  Uiso   1.00
C533   C     0.67332   0.85844   0.47379   0.00000  Uiso   1.00
C534   C     0.96532   0.74546   0.04275   0.00000  Uiso   1.00
C535   C     0.99361   0.85518   0.42409   0.00000  Uiso   1.00
C536   C     0.98670   0.76687   0.08822   0.00000  Uiso   1.00
C537   C     0.75432   0.82588   0.41294   0.00000  Uiso   1.00
C538   C     0.91574   0.83070   0.08532   0.00000  Uiso   1.00
C539   C     0.76255   0.81884   0.46224   0.00000  Uiso   1.00
C540   C     0.98501   0.73517   0.25114   0.00000  Uiso   1.00
C541   C     0.88666   0.80149   0.04564   0.00000  Uiso   1.00
C542   C     0.72494   0.84129   0.49310   0.00000  Uiso   1.00
C543   C     0.91492   0.76269   0.02110   0.00000  Uiso   1.00
C544   C     0.81108   0.79579   0.48181   0.00000  Uiso   1.00
C545   C     0.83021   0.80998   0.02991   0.00000  Uiso   1.00
C546   C     0.91363   0.91790   0.07593   0.00000  Uiso   1.00
C547   C     0.83031   0.87441   0.38977   0.00000  Uiso   1.00
C548   C     0.80183   0.76971   0.12077   0.00000  Uiso   1.00
C549   C     0.77706   0.69034   0.42411   0.00000  Uiso   1.00
C550   C     0.79057   0.82810   0.06164   0.00000  Uiso   1.00
C551   C     0.83939   0.75694   0.45637   0.00000  Uiso   1.00
C552   C     0.73950   0.84586   0.04263   0.00000  Uiso   1.00
C553   C     0.89070   0.74020   0.47677   0.00000  Uiso   1.00
C554   C     0.68941   0.98608   0.24799   0.00000  Uiso   1.00
C555   C     0.97721   0.68057   0.25175   0.00000  Uiso   1.00
C556   C     0.68887   0.83786   0.34092   0.00000  Uiso   1.00
H557   H     0.71103   0.86261   0.06673   0.00000  Uiso   1.00
H558   H     0.83791   0.87797   0.28257   0.00000  Uiso   1.00
H559   H     0.89871   0.95479   0.09138   0.00000  Uiso   1.00
H560   H     0.96106   0.92296   0.07709   0.00000  Uiso   1.00
H561   H     0.89452   0.91199   0.03803   0.00000  Uiso   1.00
H562   H     0.84919   0.88398   0.42739   0.00000  Uiso   1.00
H563   H     0.80255   0.90549   0.37797   0.00000  Uiso   1.00
H564   H     0.86585   0.87415   0.36615   0.00000  Uiso   1.00
H565   H     0.84666   0.76308   0.13270   0.00000  Uiso   1.00
H566   H     0.78649   0.74107   0.09005   0.00000  Uiso   1.00
H567   H     0.77538   0.76026   0.15060   0.00000  Uiso   1.00
H568   H     0.91133   0.70970   0.45790   0.00000  Uiso   1.00
H569   H     0.74146   0.70471   0.44388   0.00000  Uiso   1.00
H570   H     0.79944   0.99429   0.44498   0.00000  Uiso   1.00
H571   H     0.75799   0.67024   0.38971   0.00000  Uiso   1.00
H572   H     0.68742   0.74872   0.10747   0.00000  Uiso   1.00
H573   H     0.95301   0.86729   0.40981   0.00000  Uiso   1.00
H574   H     0.97626   0.87364   0.49698   0.00000  Uiso   1.00
H575   H     0.98596   0.71355   0.02604   0.00000  Uiso   1.00
H576   H     0.73234   0.66984   0.24439   0.00000  Uiso   1.00
H577   H     0.93428   0.99682   0.25532   0.00000  Uiso   1.00
H578   H     0.82916   0.78824   0.21849   0.00000  Uiso   1.00
N579   N     0.81362   0.81883   0.23740   0.00000  Uiso   1.00
N580   N     0.85305   0.84784   0.26261   0.00000  Uiso   1.00
O581   O     0.96386   0.91298   0.25310   0.00000  Uiso   1.00
O582   O     0.80030   0.82452   0.38504   0.00000  Uiso   1.00
O583   O     0.79744   0.82308   0.11099   0.00000  Uiso   1.00
O584   O     0.81543   0.73202   0.41348   0.00000  Uiso   1.00
O585   O     0.70281   0.75369   0.24691   0.00000  Uiso   1.00
O586   O     0.72488   0.90368   0.24502   0.00000  Uiso   1.00
O587   O     0.94178   0.76298   0.25499   0.00000  Uiso   1.00
O588   O     0.96995   0.84063   0.32247   0.00000  Uiso   1.00
O589   O     0.69672   0.82603   0.17753   0.00000  Uiso   1.00
O590   O     0.73098   0.83134   0.31439   0.00000  Uiso   1.00
O591   O     0.93569   0.83533   0.18561   0.00000  Uiso   1.00
O592   O     0.89576   0.87658   0.10379   0.00000  Uiso   1.00
Zn593  Zn    0.93700   0.83954   0.25540   0.00000  Uiso   1.00
Zn594  Zn    0.72967   0.82713   0.24461   0.00000  Uiso   1.00
C595   C     0.01497   0.26482   0.74876   0.00000  Uiso   1.00
C596   C     0.31102   0.16049   0.65940   0.00000  Uiso   1.00
C597   C     0.03431   0.17293   0.89328   0.00000  Uiso   1.00
C598   C     0.29602   0.14364   0.60910   0.00000  Uiso   1.00
C599   C     0.00666   0.19177   0.97379   0.00000  Uiso   1.00
C600   C     0.29865   0.07880   0.54275   0.00000  Uiso   1.00
C601   C     0.32694   0.18851   0.92409   0.00000  Uiso   1.00
C602   C     0.32003   0.10021   0.58822   0.00000  Uiso   1.00
C603   C     0.08765   0.15922   0.91294   0.00000  Uiso   1.00
C604   C     0.24907   0.16404   0.58532   0.00000  Uiso   1.00
C605   C     0.09588   0.15217   0.96224   0.00000  Uiso   1.00
C606   C     0.31834   0.06851   0.75114   0.00000  Uiso   1.00
C607   C     0.22000   0.13482   0.54564   0.00000  Uiso   1.00
C608   C     0.05828   0.17462   0.99310   0.00000  Uiso   1.00
C609   C     0.24826   0.09602   0.52110   0.00000  Uiso   1.00
C610   C     0.14441   0.12912   0.98181   0.00000  Uiso   1.00
C611   C     0.16354   0.14332   0.52991   0.00000  Uiso   1.00
C612   C     0.24696   0.25124   0.57593   0.00000  Uiso   1.00
C613   C     0.16365   0.20774   0.88977   0.00000  Uiso   1.00
C614   C     0.13516   0.10304   0.62077   0.00000  Uiso   1.00
C615   C     0.11039   0.02368   0.92411   0.00000  Uiso   1.00
C616   C     0.12390   0.16144   0.56164   0.00000  Uiso   1.00
C617   C     0.17273   0.09028   0.95637   0.00000  Uiso   1.00
C618   C     0.07283   0.17919   0.54263   0.00000  Uiso   1.00
C619   C     0.22403   0.07353   0.97677   0.00000  Uiso   1.00
C620   C     0.02275   0.31941   0.74799   0.00000  Uiso   1.00
C621   C     0.31054   0.01391   0.75175   0.00000  Uiso   1.00
C622   C     0.02220   0.17120   0.84092   0.00000  Uiso   1.00
H623   H     0.04436   0.19594   0.56673   0.00000  Uiso   1.00
H624   H     0.17124   0.21130   0.78257   0.00000  Uiso   1.00
H625   H     0.23205   0.28812   0.59138   0.00000  Uiso   1.00
H626   H     0.29439   0.25629   0.57709   0.00000  Uiso   1.00
H627   H     0.22786   0.24532   0.53803   0.00000  Uiso   1.00
H628   H     0.18252   0.21732   0.92739   0.00000  Uiso   1.00
H629   H     0.13589   0.23883   0.87797   0.00000  Uiso   1.00
H630   H     0.19918   0.20748   0.86615   0.00000  Uiso   1.00
H631   H     0.17999   0.09641   0.63270   0.00000  Uiso   1.00
H632   H     0.11983   0.07441   0.59005   0.00000  Uiso   1.00
H633   H     0.10872   0.09360   0.65060   0.00000  Uiso   1.00
H634   H     0.24466   0.04303   0.95790   0.00000  Uiso   1.00
H635   H     0.07479   0.03805   0.94388   0.00000  Uiso   1.00
H636   H     0.13277   0.32762   0.94498   0.00000  Uiso   1.00
H637   H     0.09132   0.00357   0.88971   0.00000  Uiso   1.00
H638   H     0.02075   0.08205   0.60747   0.00000  Uiso   1.00
H639   H     0.28634   0.20063   0.90981   0.00000  Uiso   1.00
H640   H     0.30959   0.20697   0.99698   0.00000  Uiso   1.00
H641   H     0.31929   0.04688   0.52604   0.00000  Uiso   1.00
H642   H     0.06567   0.00317   0.74439   0.00000  Uiso   1.00
H643   H     0.26761   0.33015   0.75532   0.00000  Uiso   1.00
H644   H     0.16250   0.12157   0.71849   0.00000  Uiso   1.00
N645   N     0.14695   0.15216   0.73740   0.00000  Uiso   1.00
N646   N     0.18638   0.18117   0.76261   0.00000  Uiso   1.00
O647   O     0.29719   0.24631   0.75310   0.00000  Uiso   1.00
O648   O     0.13363   0.15785   0.88504   0.00000  Uiso   1.00
O649   O     0.13078   0.15641   0.61099   0.00000  Uiso   1.00
O650   O     0.14876   0.06535   0.91348   0.00000  Uiso   1.00
O651   O     0.03614   0.08702   0.74691   0.00000  Uiso   1.00
O652   O     0.05822   0.23702   0.74502   0.00000  Uiso   1.00
O653   O     0.27512   0.09632   0.75499   0.00000  Uiso   1.00
O654   O     0.30328   0.17397   0.82247   0.00000  Uiso   1.00
O655   O     0.03005   0.15937   0.67753   0.00000  Uiso   1.00
O656   O     0.06431   0.16467   0.81439   0.00000  Uiso   1.00
O657   O     0.26902   0.16866   0.68561   0.00000  Uiso   1.00
O658   O     0.22909   0.20991   0.60379   0.00000  Uiso   1.00
Zn659  Zn    0.27033   0.17287   0.75540   0.00000  Uiso   1.00
Zn660  Zn    0.06300   0.16046   0.74461   0.00000  Uiso   1.00
C661   C     0.34831   0.26482   0.74876   0.00000  Uiso   1.00
C662   C     0.64436   0.16049   0.65940   0.00000  Uiso   1.00
C663   C     0.36764   0.17293   0.89328   0.00000  Uiso   1.00
C664   C     0.62935   0.14364   0.60910   0.00000  Uiso   1.00
C665   C     0.33999   0.19177   0.97379   0.00000  Uiso   1.00
C666   C     0.63199   0.07880   0.54275   0.00000  Uiso   1.00
C667   C     0.66027   0.18851   0.92409   0.00000  Uiso   1.00
C668   C     0.65337   0.10021   0.58822   0.00000  Uiso   1.00
C669   C     0.42099   0.15922   0.91294   0.00000  Uiso   1.00
C670   C     0.58241   0.16404   0.58532   0.00000  Uiso   1.00
C671   C     0.42922   0.15217   0.96224   0.00000  Uiso   1.00
C672   C     0.65167   0.06851   0.75114   0.00000  Uiso   1.00
C673   C     0.55333   0.13482   0.54564   0.00000  Uiso   1.00
C674   C     0.39161   0.17462   0.99310   0.00000  Uiso   1.00
C675   C     0.58159   0.09602   0.52110   0.00000  Uiso   1.00
C676   C     0.47774   0.12912   0.98181   0.00000  Uiso   1.00
C677   C     0.49688   0.14332   0.52991   0.00000  Uiso   1.00
C678   C     0.58030   0.25124   0.57593   0.00000  Uiso   1.00
C679   C     0.49698   0.20774   0.88977   0.00000  Uiso   1.00
C680   C     0.46850   0.10304   0.62077   0.00000  Uiso   1.00
C681   C     0.44373   0.02368   0.92411   0.00000  Uiso   1.00
C682   C     0.45724   0.16144   0.56164   0.00000  Uiso   1.00
C683   C     0.50606   0.09028   0.95637   0.00000  Uiso   1.00
C684   C     0.40617   0.17919   0.54263   0.00000  Uiso   1.00
C685   C     0.55736   0.07353   0.97677   0.00000  Uiso   1.00
C686   C     0.35608   0.31941   0.74799   0.00000  Uiso   1.00
C687   C     0.64388   0.01391   0.75175   0.00000  Uiso   1.00
C688   C     0.35553   0.17120   0.84092   0.00000  Uiso   1.00
H689   H     0.37769   0.19594   0.56673   0.00000  Uiso   1.00
H690   H     0.50457   0.21130   0.78257   0.00000  Uiso   1.00
H691   H     0.56538   0.28812   0.59138   0.00000  Uiso   1.00
H692   H     0.62773   0.25629   0.57709   0.00000  Uiso   1.00
H693   H     0.56119   0.24532   0.53803   0.00000  Uiso   1.00
H694   H     0.51586   0.21732   0.92739   0.00000  Uiso   1.00
H695   H     0.46922   0.23883   0.87797   0.00000  Uiso   1.00
H696   H     0.53251   0.20748   0.86615   0.00000  Uiso   1.00
H697   H     0.51332   0.09641   0.63270   0.00000  Uiso   1.00
H698   H     0.45316   0.07441   0.59005   0.00000  Uiso   1.00
H699   H     0.44205   0.09360   0.65060   0.00000  Uiso   1.00
H700   H     0.57800   0.04303   0.95790   0.00000  Uiso   1.00
H701   H     0.40812   0.03805   0.94388   0.00000  Uiso   1.00
H702   H     0.46611   0.32762   0.94498   0.00000  Uiso   1.00
H703   H     0.42466   0.00357   0.88971   0.00000  Uiso   1.00
H704   H     0.35409   0.08205   0.60747   0.00000  Uiso   1.00
H705   H     0.61968   0.20063   0.90981   0.00000  Uiso   1.00
H706   H     0.64292   0.20697   0.99698   0.00000  Uiso   1.00
H707   H     0.65262   0.04688   0.52604   0.00000  Uiso   1.00
H708   H     0.39901   0.00317   0.74439   0.00000  Uiso   1.00
H709   H     0.60095   0.33015   0.75532   0.00000  Uiso   1.00
H710   H     0.49583   0.12157   0.71849   0.00000  Uiso   1.00
N711   N     0.48029   0.15216   0.73740   0.00000  Uiso   1.00
N712   N     0.51971   0.18117   0.76261   0.00000  Uiso   1.00
O713   O     0.63052   0.24631   0.75310   0.00000  Uiso   1.00
O714   O     0.46696   0.15785   0.88504   0.00000  Uiso   1.00
O715   O     0.46411   0.15641   0.61099   0.00000  Uiso   1.00
O716   O     0.48210   0.06535   0.91348   0.00000  Uiso   1.00
O717   O     0.36948   0.08702   0.74691   0.00000  Uiso   1.00
O718   O     0.39155   0.23702   0.74502   0.00000  Uiso   1.00
O719   O     0.60845   0.09632   0.75499   0.00000  Uiso   1.00
O720   O     0.63662   0.17397   0.82247   0.00000  Uiso   1.00
O721   O     0.36338   0.15937   0.67753   0.00000  Uiso   1.00
O722   O     0.39764   0.16467   0.81439   0.00000  Uiso   1.00
O723   O     0.60236   0.16866   0.68561   0.00000  Uiso   1.00
O724   O     0.56243   0.20991   0.60379   0.00000  Uiso   1.00
Zn725  Zn    0.60366   0.17287   0.75540   0.00000  Uiso   1.00
Zn726  Zn    0.39634   0.16046   0.74461   0.00000  Uiso   1.00
C727   C     0.68164   0.26482   0.74876   0.00000  Uiso   1.00
C728   C     0.97769   0.16049   0.65940   0.00000  Uiso   1.00
C729   C     0.70097   0.17293   0.89328   0.00000  Uiso   1.00
C730   C     0.96268   0.14364   0.60910   0.00000  Uiso   1.00
C731   C     0.67332   0.19177   0.97379   0.00000  Uiso   1.00
C732   C     0.96532   0.07880   0.54275   0.00000  Uiso   1.00
C733   C     0.99361   0.18851   0.92409   0.00000  Uiso   1.00
C734   C     0.98670   0.10021   0.58822   0.00000  Uiso   1.00
C735   C     0.75432   0.15922   0.91294   0.00000  Uiso   1.00
C736   C     0.91574   0.16404   0.58532   0.00000  Uiso   1.00
C737   C     0.76255   0.15217   0.96224   0.00000  Uiso   1.00
C738   C     0.98501   0.06851   0.75114   0.00000  Uiso   1.00
C739   C     0.88666   0.13482   0.54564   0.00000  Uiso   1.00
C740   C     0.72494   0.17462   0.99310   0.00000  Uiso   1.00
C741   C     0.91492   0.09602   0.52110   0.00000  Uiso   1.00
C742   C     0.81108   0.12912   0.98181   0.00000  Uiso   1.00
C743   C     0.83021   0.14332   0.52991   0.00000  Uiso   1.00
C744   C     0.91363   0.25124   0.57593   0.00000  Uiso   1.00
C745   C     0.83031   0.20774   0.88977   0.00000  Uiso   1.00
C746   C     0.80183   0.10304   0.62077   0.00000  Uiso   1.00
C747   C     0.77706   0.02368   0.92411   0.00000  Uiso   1.00
C748   C     0.79057   0.16144   0.56164   0.00000  Uiso   1.00
C749   C     0.83939   0.09028   0.95637   0.00000  Uiso   1.00
C750   C     0.73950   0.17919   0.54263   0.00000  Uiso   1.00
C751   C     0.89070   0.07353   0.97677   0.00000  Uiso   1.00
C752   C     0.68941   0.31941   0.74799   0.00000  Uiso   1.00
C753   C     0.97721   0.01391   0.75175   0.00000  Uiso   1.00
C754   C     0.68887   0.17120   0.84092   0.00000  Uiso   1.00
H755   H     0.71103   0.19594   0.56673   0.00000  Uiso   1.00
H756   H     0.83791   0.21130   0.78257   0.00000  Uiso   1.00
H757   H     0.89871   0.28812   0.59138   0.00000  Uiso   1.00
H758   H     0.96106   0.25629   0.57709   0.00000  Uiso   1.00
H759   H     0.89452   0.24532   0.53803   0.00000  Uiso   1.00
H760   H     0.84919   0.21732   0.92739   0.00000  Uiso   1.00
H761   H     0.80255   0.23883   0.87797   0.00000  Uiso   1.00
H762   H     0.86585   0.20748   0.86615   0.00000  Uiso   1.00
H763   H     0.84666   0.09641   0.63270   0.00000  Uiso   1.00
H764   H     0.78649   0.07441   0.59005   0.00000  Uiso   1.00
H765   H     0.77538   0.09360   0.65060   0.00000  Uiso   1.00
H766   H     0.91133   0.04303   0.95790   0.00000  Uiso   1.00
H767   H     0.74146   0.03805   0.94388   0.00000  Uiso   1.00
H768   H     0.79944   0.32762   0.94498   0.00000  Uiso   1.00
H769   H     0.75799   0.00357   0.88971   0.00000  Uiso   1.00
H770   H     0.68742   0.08205   0.60747   0.00000  Uiso   1.00
H771   H     0.95301   0.20063   0.90981   0.00000  Uiso   1.00
H772   H     0.97626   0.20697   0.99698   0.00000  Uiso   1.00
H773   H     0.98596   0.04688   0.52604   0.00000  Uiso   1.00
H774   H     0.73234   0.00317   0.74439   0.00000  Uiso   1.00
H775   H     0.93428   0.33015   0.75532   0.00000  Uiso   1.00
H776   H     0.82916   0.12157   0.71849   0.00000  Uiso   1.00
N777   N     0.81362   0.15216   0.73740   0.00000  Uiso   1.00
N778   N     0.85305   0.18117   0.76261   0.00000  Uiso   1.00
O779   O     0.96386   0.24631   0.75310   0.00000  Uiso   1.00
O780   O     0.80030   0.15785   0.88504   0.00000  Uiso   1.00
O781   O     0.79744   0.15641   0.61099   0.00000  Uiso   1.00
O782   O     0.81543   0.06535   0.91348   0.00000  Uiso   1.00
O783   O     0.70281   0.08702   0.74691   0.00000  Uiso   1.00
O784   O     0.72488   0.23702   0.74502   0.00000  Uiso   1.00
O785   O     0.94178   0.09632   0.75499   0.00000  Uiso   1.00
O786   O     0.96995   0.17397   0.82247   0.00000  Uiso   1.00
O787   O     0.69672   0.15937   0.67753   0.00000  Uiso   1.00
O788   O     0.73098   0.16467   0.81439   0.00000  Uiso   1.00
O789   O     0.93569   0.16866   0.68561   0.00000  Uiso   1.00
O790   O     0.89576   0.20991   0.60379   0.00000  Uiso   1.00
Zn791  Zn    0.93700   0.17287   0.75540   0.00000  Uiso   1.00
Zn792  Zn    0.72967   0.16046   0.74461   0.00000  Uiso   1.00
C793   C     0.01497   0.59815   0.74876   0.00000  Uiso   1.00
C794   C     0.31102   0.49383   0.65940   0.00000  Uiso   1.00
C795   C     0.03431   0.50627   0.89328   0.00000  Uiso   1.00
C796   C     0.29602   0.47697   0.60910   0.00000  Uiso   1.00
C797   C     0.00666   0.52510   0.97379   0.00000  Uiso   1.00
C798   C     0.29865   0.41213   0.54275   0.00000  Uiso   1.00
C799   C     0.32694   0.52185   0.92409   0.00000  Uiso   1.00
C800   C     0.32003   0.43354   0.58822   0.00000  Uiso   1.00
C801   C     0.08765   0.49255   0.91294   0.00000  Uiso   1.00
C802   C     0.24907   0.49737   0.58532   0.00000  Uiso   1.00
C803   C     0.09588   0.48550   0.96224   0.00000  Uiso   1.00
C804   C     0.31834   0.40184   0.75114   0.00000  Uiso   1.00
C805   C     0.22000   0.46815   0.54564   0.00000  Uiso   1.00
C806   C     0.05828   0.50795   0.99310   0.00000  Uiso   1.00
C807   C     0.24826   0.42936   0.52110   0.00000  Uiso   1.00
C808   C     0.14441   0.46245   0.98181   0.00000  Uiso   1.00
C809   C     0.16354   0.47665   0.52991   0.00000  Uiso   1.00
C810   C     0.24696   0.58457   0.57593   0.00000  Uiso   1.00
C811   C     0.16365   0.54107   0.88977   0.00000  Uiso   1.00
C812   C     0.13516   0.43638   0.62077   0.00000  Uiso   1.00
C813   C     0.11039   0.35701   0.92411   0.00000  Uiso   1.00
C814   C     0.12390   0.49477   0.56164   0.00000  Uiso   1.00
C815   C     0.17273   0.42361   0.95637   0.00000  Uiso   1.00
C816   C     0.07283   0.51253   0.54263   0.00000  Uiso   1.00
C817   C     0.22403   0.40686   0.97677   0.00000  Uiso   1.00
C818   C     0.02275   0.65275   0.74799   0.00000  Uiso   1.00
C819   C     0.31054   0.34724   0.75175   0.00000  Uiso   1.00
C820   C     0.02220   0.50453   0.84092   0.00000  Uiso   1.00
H821   H     0.04436   0.52928   0.56673   0.00000  Uiso   1.00
H822   H     0.17124   0.54464   0.78257   0.00000  Uiso   1.00
H823   H     0.23205   0.62145   0.59138   0.00000  Uiso   1.00
H824   H     0.29439   0.58962   0.57709   0.00000  Uiso   1.00
H825   H     0.22786   0.57866   0.53803   0.00000  Uiso   1.00
H826   H     0.18252   0.55065   0.92739   0.00000  Uiso   1.00
H827   H     0.13589   0.57216   0.87797   0.00000  Uiso   1.00
H828   H     0.19918   0.54081   0.86615   0.00000  Uiso   1.00
H829   H     0.17999   0.42975   0.63270   0.00000  Uiso   1.00
H830   H     0.11983   0.40774   0.59005   0.00000  Uiso   1.00
H831   H     0.10872   0.42693   0.65060   0.00000  Uiso   1.00
H832   H     0.24466   0.37636   0.95790   0.00000  Uiso   1.00
H833   H     0.07479   0.37138   0.94388   0.00000  Uiso   1.00
H834   H     0.13277   0.66095   0.94498   0.00000  Uiso   1.00
H835   H     0.09132   0.33690   0.88971   0.00000  Uiso   1.00
H836   H     0.02075   0.41539   0.60747   0.00000  Uiso   1.00
H837   H     0.28634   0.53396   0.90981   0.00000  Uiso   1.00
H838   H     0.30959   0.54031   0.99698   0.00000  Uiso   1.00
H839   H     0.31929   0.38022   0.52604   0.00000  Uiso   1.00
H840   H     0.06567   0.33650   0.74439   0.00000  Uiso   1.00
H841   H     0.26761   0.66348   0.75532   0.00000  Uiso   1.00
H842   H     0.16250   0.45491   0.71849   0.00000  Uiso   1.00
N843   N     0.14695   0.48550   0.73740   0.00000  Uiso   1.00
N844   N     0.18638   0.51450   0.76261   0.00000  Uiso   1.00
O845   O     0.29719   0.57964   0.75310   0.00000  Uiso   1.00
O846   O     0.13363   0.49119   0.88504   0.00000  Uiso   1.00
O847   O     0.13078   0.48974   0.61099   0.00000  Uiso   1.00
O848   O     0.14876   0.39869   0.91348   0.00000  Uiso   1.00
O849   O     0.03614   0.42036   0.74691   0.00000  Uiso   1.00
O850   O     0.05822   0.57035   0.74502   0.00000  Uiso   1.00
O851   O     0.27512   0.42965   0.75499   0.00000  Uiso   1.00
O852   O     0.30328   0.50730   0.82247   0.00000  Uiso   1.00
O853   O     0.03005   0.49270   0.67753   0.00000  Uiso   1.00
O854   O     0.06431   0.49801   0.81439   0.00000  Uiso   1.00
O855   O     0.26902   0.50199   0.68561   0.00000  Uiso   1.00
O856   O     0.22909   0.54324   0.60379   0.00000  Uiso   1.00
Zn857  Zn    0.27033   0.50621   0.75540   0.00000  Uiso   1.00
Zn858  Zn    0.06300   0.49379   0.74461   0.00000  Uiso   1.00
C859   C     0.34831   0.59815   0.74876   0.00000  Uiso   1.00
C860   C     0.64436   0.49383   0.65940   0.00000  Uiso   1.00
C861   C     0.36764   0.50627   0.89328   0.00000  Uiso   1.00
C862   C     0.62935   0.47697   0.60910   0.00000  Uiso   1.00
C863   C     0.33999   0.52510   0.97379   0.00000  Uiso   1.00
C864   C     0.63199   0.41213   0.54275   0.00000  Uiso   1.00
C865   C     0.66027   0.52185   0.92409   0.00000  Uiso   1.00
C866   C     0.65337   0.43354   0.58822   0.00000  Uiso   1.00
C867   C     0.42099   0.49255   0.91294   0.00000  Uiso   1.00
C868   C     0.58241   0.49737   0.58532   0.00000  Uiso   1.00
C869   C     0.42922   0.48550   0.96224   0.00000  Uiso   1.00
C870   C     0.65167   0.40184   0.75114   0.00000  Uiso   1.00
C871   C     0.55333   0.46815   0.54564   0.00000  Uiso   1.00
C872   C     0.39161   0.50795   0.99310   0.00000  Uiso   1.00
C873   C     0.58159   0.42936   0.52110   0.00000  Uiso   1.00
C874   C     0.47774   0.46245   0.98181   0.00000  Uiso   1.00
C875   C     0.49688   0.47665   0.52991   0.00000  Uiso   1.00
C876   C     0.58030   0.58457   0.57593   0.00000  Uiso   1.00
C877   C     0.49698   0.54107   0.88977   0.00000  Uiso   1.00
C878   C     0.46850   0.43638   0.62077   0.00000  Uiso   1.00
C879   C     0.44373   0.35701   0.92411   0.00000  Uiso   1.00
C880   C     0.45724   0.49477   0.56164   0.00000  Uiso   1.00
C881   C     0.50606   0.42361   0.95637   0.00000  Uiso   1.00
C882   C     0.40617   0.51253   0.54263   0.00000  Uiso   1.00
C883   C     0.55736   0.40686   0.97677   0.00000  Uiso   1.00
C884   C     0.35608   0.65275   0.74799   0.00000  Uiso   1.00
C885   C     0.64388   0.34724   0.75175   0.00000  Uiso   1.00
C886   C     0.35553   0.50453   0.84092   0.00000  Uiso   1.00
H887   H     0.37769   0.52928   0.56673   0.00000  Uiso   1.00
H888   H     0.50457   0.54464   0.78257   0.00000  Uiso   1.00
H889   H     0.56538   0.62145   0.59138   0.00000  Uiso   1.00
H890   H     0.62773   0.58962   0.57709   0.00000  Uiso   1.00
H891   H     0.56119   0.57866   0.53803   0.00000  Uiso   1.00
H892   H     0.51586   0.55065   0.92739   0.00000  Uiso   1.00
H893   H     0.46922   0.57216   0.87797   0.00000  Uiso   1.00
H894   H     0.53251   0.54081   0.86615   0.00000  Uiso   1.00
H895   H     0.51332   0.42975   0.63270   0.00000  Uiso   1.00
H896   H     0.45316   0.40774   0.59005   0.00000  Uiso   1.00
H897   H     0.44205   0.42693   0.65060   0.00000  Uiso   1.00
H898   H     0.57800   0.37636   0.95790   0.00000  Uiso   1.00
H899   H     0.40812   0.37138   0.94388   0.00000  Uiso   1.00
H900   H     0.46611   0.66095   0.94498   0.00000  Uiso   1.00
H901   H     0.42466   0.33690   0.88971   0.00000  Uiso   1.00
H902   H     0.35409   0.41539   0.60747   0.00000  Uiso   1.00
H903   H     0.61968   0.53396   0.90981   0.00000  Uiso   1.00
H904   H     0.64292   0.54031   0.99698   0.00000  Uiso   1.00
H905   H     0.65262   0.38022   0.52604   0.00000  Uiso   1.00
H906   H     0.39901   0.33650   0.74439   0.00000  Uiso   1.00
H907   H     0.60095   0.66348   0.75532   0.00000  Uiso   1.00
H908   H     0.49583   0.45491   0.71849   0.00000  Uiso   1.00
N909   N     0.48029   0.48550   0.73740   0.00000  Uiso   1.00
N910   N     0.51971   0.51450   0.76261   0.00000  Uiso   1.00
O911   O     0.63052   0.57964   0.75310   0.00000  Uiso   1.00
O912   O     0.46696   0.49119   0.88504   0.00000  Uiso   1.00
O913   O     0.46411   0.48974   0.61099   0.00000  Uiso   1.00
O914   O     0.48210   0.39869   0.91348   0.00000  Uiso   1.00
O915   O     0.36948   0.42036   0.74691   0.00000  Uiso   1.00
O916   O     0.39155   0.57035   0.74502   0.00000  Uiso   1.00
O917   O     0.60845   0.42965   0.75499   0.00000  Uiso   1.00
O918   O     0.63662   0.50730   0.82247   0.00000  Uiso   1.00
O919   O     0.36338   0.49270   0.67753   0.00000  Uiso   1.00
O920   O     0.39764   0.49801   0.81439   0.00000  Uiso   1.00
O921   O     0.60236   0.50199   0.68561   0.00000  Uiso   1.00
O922   O     0.56243   0.54324   0.60379   0.00000  Uiso   1.00
Zn923  Zn    0.60366   0.50621   0.75540   0.00000  Uiso   1.00
Zn924  Zn    0.39634   0.49379   0.74461   0.00000  Uiso   1.00
C925   C     0.68164   0.59815   0.74876   0.00000  Uiso   1.00
C926   C     0.97769   0.49383   0.65940   0.00000  Uiso   1.00
C927   C     0.70097   0.50627   0.89328   0.00000  Uiso   1.00
C928   C     0.96268   0.47697   0.60910   0.00000  Uiso   1.00
C929   C     0.67332   0.52510   0.97379   0.00000  Uiso   1.00
C930   C     0.96532   0.41213   0.54275   0.00000  Uiso   1.00
C931   C     0.99361   0.52185   0.92409   0.00000  Uiso   1.00
C932   C     0.98670   0.43354   0.58822   0.00000  Uiso   1.00
C933   C     0.75432   0.49255   0.91294   0.00000  Uiso   1.00
C934   C     0.91574   0.49737   0.58532   0.00000  Uiso   1.00
C935   C     0.76255   0.48550   0.96224   0.00000  Uiso   1.00
C936   C     0.98501   0.40184   0.75114   0.00000  Uiso   1.00
C937   C     0.88666   0.46815   0.54564   0.00000  Uiso   1.00
C938   C     0.72494   0.50795   0.99310   0.00000  Uiso   1.00
C939   C     0.91492   0.42936   0.52110   0.00000  Uiso   1.00
C940   C     0.81108   0.46245   0.98181   0.00000  Uiso   1.00
C941   C     0.83021   0.47665   0.52991   0.00000  Uiso   1.00
C942   C     0.91363   0.58457   0.57593   0.00000  Uiso   1.00
C943   C     0.83031   0.54107   0.88977   0.00000  Uiso   1.00
C944   C     0.80183   0.43638   0.62077   0.00000  Uiso   1.00
C945   C     0.77706   0.35701   0.92411   0.00000  Uiso   1.00
C946   C     0.79057   0.49477   0.56164   0.00000  Uiso   1.00
C947   C     0.83939   0.42361   0.95637   0.00000  Uiso   1.00
C948   C     0.73950   0.51253   0.54263   0.00000  Uiso   1.00
C949   C     0.89070   0.40686   0.97677   0.00000  Uiso   1.00
C950   C     0.68941   0.65275   0.74799   0.00000  Uiso   1.00
C951   C     0.97721   0.34724   0.75175   0.00000  Uiso   1.00
C952   C     0.68887   0.50453   0.84092   0.00000  Uiso   1.00
H953   H     0.71103   0.52928   0.56673   0.00000  Uiso   1.00
H954   H     0.83791   0.54464   0.78257   0.00000  Uiso   1.00
H955   H     0.89871   0.62145   0.59138   0.00000  Uiso   1.00
H956   H     0.96106   0.58962   0.57709   0.00000  Uiso   1.00
H957   H     0.89452   0.57866   0.53803   0.00000  Uiso   1.00
H958   H     0.84919   0.55065   0.92739   0.00000  Uiso   1.00
H959   H     0.80255   0.57216   0.87797   0.00000  Uiso   1.00
H960   H     0.86585   0.54081   0.86615   0.00000  Uiso   1.00
H961   H     0.84666   0.42975   0.63270   0.00000  Uiso   1.00
H962   H     0.78649   0.40774   0.59005   0.00000  Uiso   1.00
H963   H     0.77538   0.42693   0.65060   0.00000  Uiso   1.00
H964   H     0.91133   0.37636   0.95790   0.00000  Uiso   1.00
H965   H     0.74146   0.37138   0.94388   0.00000  Uiso   1.00
H966   H     0.79944   0.66095   0.94498   0.00000  Uiso   1.00
H967   H     0.75799   0.33690   0.88971   0.00000  Uiso   1.00
H968   H     0.68742   0.41539   0.60747   0.00000  Uiso   1.00
H969   H     0.95301   0.53396   0.90981   0.00000  Uiso   1.00
H970   H     0.97626   0.54031   0.99698   0.00000  Uiso   1.00
H971   H     0.98596   0.38022   0.52604   0.00000  Uiso   1.00
H972   H     0.73234   0.33650   0.74439   0.00000  Uiso   1.00
H973   H     0.93428   0.66348   0.75532   0.00000  Uiso   1.00
H974   H     0.82916   0.45491   0.71849   0.00000  Uiso   1.00
N975   N     0.81362   0.48550   0.73740   0.00000  Uiso   1.00
N976   N     0.85305   0.51450   0.76261   0.00000  Uiso   1.00
O977   O     0.96386   0.57964   0.75310   0.00000  Uiso   1.00
O978   O     0.80030   0.49119   0.88504   0.00000  Uiso   1.00
O979   O     0.79744   0.48974   0.61099   0.00000  Uiso   1.00
O980   O     0.81543   0.39869   0.91348   0.00000  Uiso   1.00
O981   O     0.70281   0.42036   0.74691   0.00000  Uiso   1.00
O982   O     0.72488   0.57035   0.74502   0.00000  Uiso   1.00
O983   O     0.94178   0.42965   0.75499   0.00000  Uiso   1.00
O984   O     0.96995   0.50730   0.82247   0.00000  Uiso   1.00
O985   O     0.69672   0.49270   0.67753   0.00000  Uiso   1.00
O986   O     0.73098   0.49801   0.81439   0.00000  Uiso   1.00
O987   O     0.93569   0.50199   0.68561   0.00000  Uiso   1.00
O988   O     0.89576   0.54324   0.60379   0.00000  Uiso   1.00
Zn989  Zn    0.93700   0.50621   0.75540   0.00000  Uiso   1.00
Zn990  Zn    0.72967   0.49379   0.74461   0.00000  Uiso   1.00
C991   C     0.01497   0.93149   0.74876   0.00000  Uiso   1.00
C992   C     0.31102   0.82716   0.65940   0.00000  Uiso   1.00
C993   C     0.03431   0.83960   0.89328   0.00000  Uiso   1.00
C994   C     0.29602   0.81030   0.60910   0.00000  Uiso   1.00
C995   C     0.00666   0.85844   0.97379   0.00000  Uiso   1.00
C996   C     0.29865   0.74546   0.54275   0.00000  Uiso   1.00
C997   C     0.32694   0.85518   0.92409   0.00000  Uiso   1.00
C998   C     0.32003   0.76687   0.58822   0.00000  Uiso   1.00
C999   C     0.08765   0.82588   0.91294   0.00000  Uiso   1.00
C1000  C     0.24907   0.83070   0.58532   0.00000  Uiso   1.00
C1001  C     0.09588   0.81884   0.96224   0.00000  Uiso   1.00
C1002  C     0.31834   0.73517   0.75114   0.00000  Uiso   1.00
C1003  C     0.22000   0.80149   0.54564   0.00000  Uiso   1.00
C1004  C     0.05828   0.84129   0.99310   0.00000  Uiso   1.00
C1005  C     0.24826   0.76269   0.52110   0.00000  Uiso   1.00
C1006  C     0.14441   0.79579   0.98181   0.00000  Uiso   1.00
C1007  C     0.16354   0.80998   0.52991   0.00000  Uiso   1.00
C1008  C     0.24696   0.91790   0.57593   0.00000  Uiso   1.00
C1009  C     0.16365   0.87441   0.88977   0.00000  Uiso   1.00
C1010  C     0.13516   0.76971   0.62077   0.00000  Uiso   1.00
C1011  C     0.11039   0.69034   0.92411   0.00000  Uiso   1.00
C1012  C     0.12390   0.82810   0.56164   0.00000  Uiso   1.00
C1013  C     0.17273   0.75694   0.95637   0.00000  Uiso   1.00
C1014  C     0.07283   0.84586   0.54263   0.00000  Uiso   1.00
C1015  C     0.22403   0.74020   0.97677   0.00000  Uiso   1.00
C1016  C     0.02275   0.98608   0.74799   0.00000  Uiso   1.00
C1017  C     0.31054   0.68057   0.75175   0.00000  Uiso   1.00
C1018  C     0.02220   0.83786   0.84092   0.00000  Uiso   1.00
H1019  H     0.04436   0.86261   0.56673   0.00000  Uiso   1.00
H1020  H     0.17124   0.87797   0.78257   0.00000  Uiso   1.00
H1021  H     0.23205   0.95479   0.59138   0.00000  Uiso   1.00
H1022  H     0.29439   0.92296   0.57709   0.00000  Uiso   1.00
H1023  H     0.22786   0.91199   0.53803   0.00000  Uiso   1.00
H1024  H     0.18252   0.88398   0.92739   0.00000  Uiso   1.00
H1025  H     0.13589   0.90549   0.87797   0.00000  Uiso   1.00
H1026  H     0.19918   0.87415   0.86615   0.00000  Uiso   1.00
H1027  H     0.17999   0.76308   0.63270   0.00000  Uiso   1.00
H1028  H     0.11983   0.74107   0.59005   0.00000  Uiso   1.00
H1029  H     0.10872   0.76026   0.65060   0.00000  Uiso   1.00
H1030  H     0.24466   0.70970   0.95790   0.00000  Uiso   1.00
H1031  H     0.07479   0.70471   0.94388   0.00000  Uiso   1.00
H1032  H     0.13277   0.99429   0.94498   0.00000  Uiso   1.00
H1033  H     0.09132   0.67024   0.88971   0.00000  Uiso   1.00
H1034  H     0.02075   0.74872   0.60747   0.00000  Uiso   1.00
H1035  H     0.28634   0.86729   0.90981   0.00000  Uiso   1.00
H1036  H     0.30959   0.87364   0.99698   0.00000  Uiso   1.00
H1037  H     0.31929   0.71355   0.52604   0.00000  Uiso   1.00
H1038  H     0.06567   0.66984   0.74439   0.00000  Uiso   1.00
H1039  H     0.26761   0.99682   0.75532   0.00000  Uiso   1.00
H1040  H     0.16250   0.78824   0.71849   0.00000  Uiso   1.00
N1041  N     0.14695   0.81883   0.73740   0.00000  Uiso   1.00
N1042  N     0.18638   0.84784   0.76261   0.00000  Uiso   1.00
O1043  O     0.29719   0.91298   0.75310   0.00000  Uiso   1.00
O1044  O     0.13363   0.82452   0.88504   0.00000  Uiso   1.00
O1045  O     0.13078   0.82308   0.61099   0.00000  Uiso   1.00
O1046  O     0.14876   0.73202   0.91348   0.00000  Uiso   1.00
O1047  O     0.03614   0.75369   0.74691   0.00000  Uiso   1.00
O1048  O     0.05822   0.90368   0.74502   0.00000  Uiso   1.00
O1049  O     0.27512   0.76298   0.75499   0.00000  Uiso   1.00
O1050  O     0.30328   0.84063   0.82247   0.00000  Uiso   1.00
O1051  O     0.03005   0.82603   0.67753   0.00000  Uiso   1.00
O1052  O     0.06431   0.83134   0.81439   0.00000  Uiso   1.00
O1053  O     0.26902   0.83533   0.68561   0.00000  Uiso   1.00
O1054  O     0.22909   0.87658   0.60379   0.00000  Uiso   1.00
Zn1055 Zn    0.27033   0.83954   0.75540   0.00000  Uiso   1.00
Zn1056 Zn    0.06300   0.82713   0.74461   0.00000  Uiso   1.00
C1057  C     0.34831   0.93149   0.74876   0.00000  Uiso   1.00
C1058  C     0.64436   0.82716   0.65940   0.00000  Uiso   1.00
C1059  C     0.36764   0.83960   0.89328   0.00000  Uiso   1.00
C1060  C     0.62935   0.81030   0.60910   0.00000  Uiso   1.00
C1061  C     0.33999   0.85844   0.97379   0.00000  Uiso   1.00
C1062  C     0.63199   0.74546   0.54275   0.00000  Uiso   1.00
C1063  C     0.66027   0.85518   0.92409   0.00000  Uiso   1.00
C1064  C     0.65337   0.76687   0.58822   0.00000  Uiso   1.00
C1065  C     0.42099   0.82588   0.91294   0.00000  Uiso   1.00
C1066  C     0.58241   0.83070   0.58532   0.00000  Uiso   1.00
C1067  C     0.42922   0.81884   0.96224   0.00000  Uiso   1.00
C1068  C     0.65167   0.73517   0.75114   0.00000  Uiso   1.00
C1069  C     0.55333   0.80149   0.54564   0.00000  Uiso   1.00
C1070  C     0.39161   0.84129   0.99310   0.00000  Uiso   1.00
C1071  C     0.58159   0.76269   0.52110   0.00000  Uiso   1.00
C1072  C     0.47774   0.79579   0.98181   0.00000  Uiso   1.00
C1073  C     0.49688   0.80998   0.52991   0.00000  Uiso   1.00
C1074  C     0.58030   0.91790   0.57593   0.00000  Uiso   1.00
C1075  C     0.49698   0.87441   0.88977   0.00000  Uiso   1.00
C1076  C     0.46850   0.76971   0.62077   0.00000  Uiso   1.00
C1077  C     0.44373   0.69034   0.92411   0.00000  Uiso   1.00
C1078  C     0.45724   0.82810   0.56164   0.00000  Uiso   1.00
C1079  C     0.50606   0.75694   0.95637   0.00000  Uiso   1.00
C1080  C     0.40617   0.84586   0.54263   0.00000  Uiso   1.00
C1081  C     0.55736   0.74020   0.97677   0.00000  Uiso   1.00
C1082  C     0.35608   0.98608   0.74799   0.00000  Uiso   1.00
C1083  C     0.64388   0.68057   0.75175   0.00000  Uiso   1.00
C1084  C     0.35553   0.83786   0.84092   0.00000  Uiso   1.00
H1085  H     0.37769   0.86261   0.56673   0.00000  Uiso   1.00
H1086  H     0.50457   0.87797   0.78257   0.00000  Uiso   1.00
H1087  H     0.56538   0.95479   0.59138   0.00000  Uiso   1.00
H1088  H     0.62773   0.92296   0.57709   0.00000  Uiso   1.00
H1089  H     0.56119   0.91199   0.53803   0.00000  Uiso   1.00
H1090  H     0.51586   0.88398   0.92739   0.00000  Uiso   1.00
H1091  H     0.46922   0.90549   0.87797   0.00000  Uiso   1.00
H1092  H     0.53251   0.87415   0.86615   0.00000  Uiso   1.00
H1093  H     0.51332   0.76308   0.63270   0.00000  Uiso   1.00
H1094  H     0.45316   0.74107   0.59005   0.00000  Uiso   1.00
H1095  H     0.44205   0.76026   0.65060   0.00000  Uiso   1.00
H1096  H     0.57800   0.70970   0.95790   0.00000  Uiso   1.00
H1097  H     0.40812   0.70471   0.94388   0.00000  Uiso   1.00
H1098  H     0.46611   0.99429   0.94498   0.00000  Uiso   1.00
H1099  H     0.42466   0.67024   0.88971   0.00000  Uiso   1.00
H1100  H     0.35409   0.74872   0.60747   0.00000  Uiso   1.00
H1101  H     0.61968   0.86729   0.90981   0.00000  Uiso   1.00
H1102  H     0.64292   0.87364   0.99698   0.00000  Uiso   1.00
H1103  H     0.65262   0.71355   0.52604   0.00000  Uiso   1.00
H1104  H     0.39901   0.66984   0.74439   0.00000  Uiso   1.00
H1105  H     0.60095   0.99682   0.75532   0.00000  Uiso   1.00
H1106  H     0.49583   0.78824   0.71849   0.00000  Uiso   1.00
N1107  N     0.48029   0.81883   0.73740   0.00000  Uiso   1.00
N1108  N     0.51971   0.84784   0.76261   0.00000  Uiso   1.00
O1109  O     0.63052   0.91298   0.75310   0.00000  Uiso   1.00
O1110  O     0.46696   0.82452   0.88504   0.00000  Uiso   1.00
O1111  O     0.46411   0.82308   0.61099   0.00000  Uiso   1.00
O1112  O     0.48210   0.73202   0.91348   0.00000  Uiso   1.00
O1113  O     0.36948   0.75369   0.74691   0.00000  Uiso   1.00
O1114  O     0.39155   0.90368   0.74502   0.00000  Uiso   1.00
O1115  O     0.60845   0.76298   0.75499   0.00000  Uiso   1.00
O1116  O     0.63662   0.84063   0.82247   0.00000  Uiso   1.00
O1117  O     0.36338   0.82603   0.67753   0.00000  Uiso   1.00
O1118  O     0.39764   0.83134   0.81439   0.00000  Uiso   1.00
O1119  O     0.60236   0.83533   0.68561   0.00000  Uiso   1.00
O1120  O     0.56243   0.87658   0.60379   0.00000  Uiso   1.00
Zn1121 Zn    0.60366   0.83954   0.75540   0.00000  Uiso   1.00
Zn1122 Zn    0.39634   0.82713   0.74461   0.00000  Uiso   1.00
C1123  C     0.68164   0.93149   0.74876   0.00000  Uiso   1.00
C1124  C     0.97769   0.82716   0.65940   0.00000  Uiso   1.00
C1125  C     0.70097   0.83960   0.89328   0.00000  Uiso   1.00
C1126  C     0.96268   0.81030   0.60910   0.00000  Uiso   1.00
C1127  C     0.67332   0.85844   0.97379   0.00000  Uiso   1.00
C1128  C     0.96532   0.74546   0.54275   0.00000  Uiso   1.00
C1129  C     0.99361   0.85518   0.92409   0.00000  Uiso   1.00
C1130  C     0.98670   0.76687   0.58822   0.00000  Uiso   1.00
C1131  C     0.75432   0.82588   0.91294   0.00000  Uiso   1.00
C1132  C     0.91574   0.83070   0.58532   0.00000  Uiso   1.00
C1133  C     0.76255   0.81884   0.96224   0.00000  Uiso   1.00
C1134  C     0.98501   0.73517   0.75114   0.00000  Uiso   1.00
C1135  C     0.88666   0.80149   0.54564   0.00000  Uiso   1.00
C1136  C     0.72494   0.84129   0.99310   0.00000  Uiso   1.00
C1137  C     0.91492   0.76269   0.52110   0.00000  Uiso   1.00
C1138  C     0.81108   0.79579   0.98181   0.00000  Uiso   1.00
C1139  C     0.83021   0.80998   0.52991   0.00000  Uiso   1.00
C1140  C     0.91363   0.91790   0.57593   0.00000  Uiso   1.00
C1141  C     0.83031   0.87441   0.88977   0.00000  Uiso   1.00
C1142  C     0.80183   0.76971   0.62077   0.00000  Uiso   1.00
C1143  C     0.77706   0.69034   0.92411   0.00000  Uiso   1.00
C1144  C     0.79057   0.82810   0.56164   0.00000  Uiso   1.00
C1145  C     0.83939   0.75694   0.95637   0.00000  Uiso   1.00
C1146  C     0.73950   0.84586   0.54263   0.00000  Uiso   1.00
C1147  C     0.89070   0.74020   0.97677   0.00000  Uiso   1.00
C1148  C     0.68941   0.98608   0.74799   0.00000  Uiso   1.00
C1149  C     0.97721   0.68057   0.75175   0.00000  Uiso   1.00
C1150  C     0.68887   0.83786   0.84092   0.00000  Uiso   1.00
H1151  H     0.71103   0.86261   0.56673   0.00000  Uiso   1.00
H1152  H     0.83791   0.87797   0.78257   0.00000  Uiso   1.00
H1153  H     0.89871   0.95479   0.59138   0.00000  Uiso   1.00
H1154  H     0.96106   0.92296   0.57709   0.00000  Uiso   1.00
H1155  H     0.89452   0.91199   0.53803   0.00000  Uiso   1.00
H1156  H     0.84919   0.88398   0.92739   0.00000  Uiso   1.00
H1157  H     0.80255   0.90549   0.87797   0.00000  Uiso   1.00
H1158  H     0.86585   0.87415   0.86615   0.00000  Uiso   1.00
H1159  H     0.84666   0.76308   0.63270   0.00000  Uiso   1.00
H1160  H     0.78649   0.74107   0.59005   0.00000  Uiso   1.00
H1161  H     0.77538   0.76026   0.65060   0.00000  Uiso   1.00
H1162  H     0.91133   0.70970   0.95790   0.00000  Uiso   1.00
H1163  H     0.74146   0.70471   0.94388   0.00000  Uiso   1.00
H1164  H     0.79944   0.99429   0.94498   0.00000  Uiso   1.00
H1165  H     0.75799   0.67024   0.88971   0.00000  Uiso   1.00
H1166  H     0.68742   0.74872   0.60747   0.00000  Uiso   1.00
H1167  H     0.95301   0.86729   0.90981   0.00000  Uiso   1.00
H1168  H     0.97626   0.87364   0.99698   0.00000  Uiso   1.00
H1169  H     0.98596   0.71355   0.52604   0.00000  Uiso   1.00
H1170  H     0.73234   0.66984   0.74439   0.00000  Uiso   1.00
H1171  H     0.93428   0.99682   0.75532   0.00000  Uiso   1.00
H1172  H     0.82916   0.78824   0.71849   0.00000  Uiso   1.00
N1173  N     0.81362   0.81883   0.73740   0.00000  Uiso   1.00
N1174  N     0.85305   0.84784   0.76261   0.00000  Uiso   1.00
O1175  O     0.96386   0.91298   0.75310   0.00000  Uiso   1.00
O1176  O     0.80030   0.82452   0.88504   0.00000  Uiso   1.00
O1177  O     0.79744   0.82308   0.61099   0.00000  Uiso   1.00
O1178  O     0.81543   0.73202   0.91348   0.00000  Uiso   1.00
O1179  O     0.70281   0.75369   0.74691   0.00000  Uiso   1.00
O1180  O     0.72488   0.90368   0.74502   0.00000  Uiso   1.00
O1181  O     0.94178   0.76298   0.75499   0.00000  Uiso   1.00
O1182  O     0.96995   0.84063   0.82247   0.00000  Uiso   1.00
O1183  O     0.69672   0.82603   0.67753   0.00000  Uiso   1.00
O1184  O     0.73098   0.83134   0.81439   0.00000  Uiso   1.00
O1185  O     0.93569   0.83533   0.68561   0.00000  Uiso   1.00
O1186  O     0.89576   0.87658   0.60379   0.00000  Uiso   1.00
Zn1187 Zn    0.93700   0.83954   0.75540   0.00000  Uiso   1.00
Zn1188 Zn    0.72967   0.82713   0.74461   0.00000  Uiso   1.00
loop_
_geom_bond_atom_site_label_1
_geom_bond_atom_site_label_2
_geom_bond_distance
_geom_bond_site_symmetry_2
_ccdc_geom_bond_type
C1     O58     1.292   .     A
C1     C26     1.401   .     S
C1     O185    1.280   1_455 S
C2     C4      1.453   .     S
C2     O63     1.299   .     A
C2     O127    1.297   .     S
C3     C9      1.406   .     A
C3     C28     1.463   .     S
C3     C139    1.403   1_455 S
C4     C8      1.404   .     A
C4     C10     1.392   .     A
C5     C14     1.399   .     A
C5     C139    1.392   1_455 S
C5     H178    1.082   1_455 S
C6     C8      1.394   .     A
C6     H47     1.084   .     S
C6     C15     1.399   .     A
C7     H45     1.079   .     S
C7     C69     1.403   .     S
C7     C71     1.392   .     S
C8     H110    1.077   .     S
C9     C11     1.397   .     A
C9     O54     1.385   .     S
C10    C13     1.403   .     A
C10    O64     1.386   .     S
C11    C14     1.414   .     A
C11    C16     1.409   .     A
C12    C27     1.401   .     S
C12    O59     1.292   .     A
C12    O123    1.280   .     S
C13    C17     1.402   .     A
C13    C15     1.412   .     A
C14    C618    1.393   .     S
C15    C619    1.395   1_554 S
C16    C23     1.426   .     A
C16    C611    1.400   .     S
C17    C22     1.422   .     A
C17    C610    1.400   1_554 S
C18    O64     1.409   .     S
C18    H33     1.113   .     S
C18    H32     1.113   .     S
C18    H31     1.109   .     S
C19    H35     1.114   .     S
C19    O54     1.412   .     S
C19    H36     1.107   .     S
C19    H34     1.113   .     S
C20    H37     1.109   .     S
C20    O55     1.420   .     S
C20    H38     1.117   .     S
C20    H39     1.106   .     S
C21    O56     1.411   .     S
C21    H41     1.113   .     S
C21    H43     1.109   .     S
C21    H438    1.114   1_545 S
C22    O55     1.387   .     S
C22    C24     1.392   .     A
C23    O56     1.383   .     S
C23    C25     1.399   .     A
C24    H29     1.081   .     S
C24    C608    1.393   1_554 S
C25    H40     1.084   .     S
C25    C609    1.395   .     S
C26    C357    1.338   1_455 S
C26    H246    1.088   .     S
C27    C488    1.338   1_545 S
C27    H445    1.088   1_545 S
C28    O62     1.299   .     A
C28    O192    1.303   1_455 S
H30    N52     1.029   .     S
H42    C219    1.114   .     S
H44    C140    1.077   1_455 S
H46    C71     1.082   .     S
H48    C422    1.088   1_545 S
H49    C225    1.088   .     S
H50    N51     1.027   .     S
N51    N52     1.284   .     D
N51    Zn66    2.029   .     S
N52    Zn65    2.029   .     S
O53    Zn65    1.951   .     S
O53    C67     1.280   .     S
O57    Zn66    1.951   .     S
O57    C144    1.280   1_455 S
O58    Zn66    1.975   .     S
O59    Zn65    1.975   .     S
O60    Zn65    1.964   .     S
O60    C94     1.303   .     S
O61    Zn66    1.964   .     S
O61    C134    1.297   1_455 S
O62    Zn66    1.941   .     S
O63    Zn65    1.941   .     S
C67    O124    1.292   .     A
C67    C92     1.401   .     S
C68    C70     1.453   .     S
C68    O129    1.299   .     A
C68    O193    1.297   .     S
C69    C75     1.406   .     A
C69    C94     1.463   .     S
C70    C74     1.404   .     A
C70    C76     1.392   .     A
C71    C80     1.399   .     A
C72    C74     1.394   .     A
C72    H113    1.084   .     S
C72    C81     1.399   .     A
C73    H111    1.079   .     S
C73    C135    1.403   .     S
C73    C137    1.392   .     S
C74    H176    1.077   .     S
C75    C77     1.397   .     A
C75    O120    1.385   .     S
C76    C79     1.403   .     A
C76    O130    1.386   .     S
C77    C80     1.414   .     A
C77    C82     1.409   .     A
C78    C93     1.401   .     S
C78    O125    1.292   .     A
C78    O189    1.280   .     S
C79    C83     1.402   .     A
C79    C81     1.412   .     A
C80    C684    1.393   .     S
C81    C685    1.395   1_554 S
C82    C89     1.426   .     A
C82    C677    1.400   .     S
C83    C88     1.422   .     A
C83    C676    1.400   1_554 S
C84    O130    1.409   .     S
C84    H99     1.113   .     S
C84    H98     1.113   .     S
C84    H97     1.109   .     S
C85    H101    1.114   .     S
C85    O120    1.412   .     S
C85    H102    1.107   .     S
C85    H100    1.113   .     S
C86    H103    1.109   .     S
C86    O121    1.420   .     S
C86    H104    1.117   .     S
C86    H105    1.106   .     S
C87    O122    1.411   .     S
C87    H107    1.113   .     S
C87    H109    1.109   .     S
C87    H504    1.114   1_545 S
C88    O121    1.387   .     S
C88    C90     1.392   .     A
C89    O122    1.383   .     S
C89    C91     1.399   .     A
C90    H95     1.081   .     S
C90    C674    1.393   1_554 S
C91    H106    1.084   .     S
C91    C675    1.395   .     S
C92    C225    1.338   .     S
C92    H312    1.088   .     S
C93    C554    1.338   1_545 S
C93    H511    1.088   1_545 S
C94    O128    1.299   .     A
H96    N118    1.029   .     S
H108   C285    1.114   .     S
H112   C137    1.082   .     S
H114   C488    1.088   1_545 S
H115   C291    1.088   .     S
H116   N117    1.027   .     S
N117   N118    1.284   .     D
N117   Zn132   2.029   .     S
N118   Zn131   2.029   .     S
O119   Zn131   1.951   .     S
O119   C133    1.280   .     S
O123   Zn132   1.951   .     S
O124   Zn132   1.975   .     S
O125   Zn131   1.975   .     S
O126   Zn131   1.964   .     S
O126   C160    1.303   .     S
O127   Zn132   1.964   .     S
O128   Zn132   1.941   .     S
O129   Zn131   1.941   .     S
C133   O190    1.292   .     A
C133   C158    1.401   .     S
C134   C136    1.453   .     S
C134   O195    1.299   .     A
C134   O61     1.297   1_655 S
C135   C141    1.406   .     A
C135   C160    1.463   .     S
C136   C140    1.404   .     A
C136   C142    1.392   .     A
C137   C146    1.399   .     A
C138   C140    1.394   .     A
C138   H179    1.084   .     S
C138   C147    1.399   .     A
C139   H177    1.079   .     S
C139   C3      1.403   1_655 S
C139   C5      1.392   1_655 S
C140   H44     1.077   1_655 S
C141   C143    1.397   .     A
C141   O186    1.385   .     S
C142   C145    1.403   .     A
C142   O196    1.386   .     S
C143   C146    1.414   .     A
C143   C148    1.409   .     A
C144   C159    1.401   .     S
C144   O191    1.292   .     A
C144   O57     1.280   1_655 S
C145   C149    1.402   .     A
C145   C147    1.412   .     A
C146   C750    1.393   .     S
C147   C751    1.395   1_554 S
C148   C155    1.426   .     A
C148   C743    1.400   .     S
C149   C154    1.422   .     A
C149   C742    1.400   1_554 S
C150   O196    1.409   .     S
C150   H165    1.113   .     S
C150   H164    1.113   .     S
C150   H163    1.109   .     S
C151   H167    1.114   .     S
C151   O186    1.412   .     S
C151   H168    1.107   .     S
C151   H166    1.113   .     S
C152   H169    1.109   .     S
C152   O187    1.420   .     S
C152   H170    1.117   .     S
C152   H171    1.106   .     S
C153   O188    1.411   .     S
C153   H173    1.113   .     S
C153   H175    1.109   .     S
C153   H570    1.114   1_545 S
C154   O187    1.387   .     S
C154   C156    1.392   .     A
C155   O188    1.383   .     S
C155   C157    1.399   .     A
C156   H161    1.081   .     S
C156   C740    1.393   1_554 S
C157   H172    1.084   .     S
C157   C741    1.395   .     S
C158   C291    1.338   .     S
C158   H378    1.088   .     S
C159   C422    1.338   1_645 S
C159   H577    1.088   1_545 S
C160   O194    1.299   .     A
H162   N184    1.029   .     S
H174   C351    1.114   .     S
H178   C5      1.082   1_655 S
H180   C554    1.088   1_545 S
H181   C357    1.088   .     S
H182   N183    1.027   .     S
N183   N184    1.284   .     D
N183   Zn198   2.029   .     S
N184   Zn197   2.029   .     S
O185   Zn197   1.951   .     S
O185   C1      1.280   1_655 S
O189   Zn198   1.951   .     S
O190   Zn198   1.975   .     S
O191   Zn197   1.975   .     S
O192   Zn197   1.964   .     S
O192   C28     1.303   1_655 S
O193   Zn198   1.964   .     S
O194   Zn198   1.941   .     S
O195   Zn197   1.941   .     S
C199   O256    1.292   .     A
C199   C224    1.401   .     S
C199   O383    1.280   1_455 S
C200   C202    1.453   .     S
C200   O261    1.299   .     A
C200   O325    1.297   .     S
C201   C207    1.406   .     A
C201   C226    1.463   .     S
C201   C337    1.403   1_455 S
C202   C206    1.404   .     A
C202   C208    1.392   .     A
C203   C212    1.399   .     A
C203   C337    1.392   1_455 S
C203   H376    1.082   1_455 S
C204   C206    1.394   .     A
C204   H245    1.084   .     S
C204   C213    1.399   .     A
C205   H243    1.079   .     S
C205   C267    1.403   .     S
C205   C269    1.392   .     S
C206   H308    1.077   .     S
C207   C209    1.397   .     A
C207   O252    1.385   .     S
C208   C211    1.403   .     A
C208   O262    1.386   .     S
C209   C212    1.414   .     A
C209   C214    1.409   .     A
C210   C225    1.401   .     S
C210   O257    1.292   .     A
C210   O321    1.280   .     S
C211   C215    1.402   .     A
C211   C213    1.412   .     A
C212   C816    1.393   .     S
C213   C817    1.395   1_554 S
C214   C221    1.426   .     A
C214   C809    1.400   .     S
C215   C220    1.422   .     A
C215   C808    1.400   1_554 S
C216   O262    1.409   .     S
C216   H231    1.113   .     S
C216   H230    1.113   .     S
C216   H229    1.109   .     S
C217   H233    1.114   .     S
C217   O252    1.412   .     S
C217   H234    1.107   .     S
C217   H232    1.113   .     S
C218   H235    1.109   .     S
C218   O253    1.420   .     S
C218   H236    1.117   .     S
C218   H237    1.106   .     S
C219   O254    1.411   .     S
C219   H239    1.113   .     S
C219   H241    1.109   .     S
C220   O253    1.387   .     S
C220   C222    1.392   .     A
C221   O254    1.383   .     S
C221   C223    1.399   .     A
C222   H227    1.081   .     S
C222   C806    1.393   1_554 S
C223   H238    1.084   .     S
C223   C807    1.395   .     S
C224   C555    1.338   1_455 S
C224   H444    1.088   .     S
C226   O260    1.299   .     A
C226   O390    1.303   1_455 S
H228   N250    1.029   .     S
H240   C417    1.114   .     S
H242   C338    1.077   1_455 S
H244   C269    1.082   .     S
H247   C423    1.088   .     S
H248   N249    1.027   .     S
N249   N250    1.284   .     D
N249   Zn264   2.029   .     S
N250   Zn263   2.029   .     S
O251   Zn263   1.951   .     S
O251   C265    1.280   .     S
O255   Zn264   1.951   .     S
O255   C342    1.280   1_455 S
O256   Zn264   1.975   .     S
O257   Zn263   1.975   .     S
O258   Zn263   1.964   .     S
O258   C292    1.303   .     S
O259   Zn264   1.964   .     S
O259   C332    1.297   1_455 S
O260   Zn264   1.941   .     S
O261   Zn263   1.941   .     S
C265   O322    1.292   .     A
C265   C290    1.401   .     S
C266   C268    1.453   .     S
C266   O327    1.299   .     A
C266   O391    1.297   .     S
C267   C273    1.406   .     A
C267   C292    1.463   .     S
C268   C272    1.404   .     A
C268   C274    1.392   .     A
C269   C278    1.399   .     A
C270   C272    1.394   .     A
C270   H311    1.084   .     S
C270   C279    1.399   .     A
C271   H309    1.079   .     S
C271   C333    1.403   .     S
C271   C335    1.392   .     S
C272   H374    1.077   .     S
C273   C275    1.397   .     A
C273   O318    1.385   .     S
C274   C277    1.403   .     A
C274   O328    1.386   .     S
C275   C278    1.414   .     A
C275   C280    1.409   .     A
C276   C291    1.401   .     S
C276   O323    1.292   .     A
C276   O387    1.280   .     S
C277   C281    1.402   .     A
C277   C279    1.412   .     A
C278   C882    1.393   .     S
C279   C883    1.395   1_554 S
C280   C287    1.426   .     A
C280   C875    1.400   .     S
C281   C286    1.422   .     A
C281   C874    1.400   1_554 S
C282   O328    1.409   .     S
C282   H297    1.113   .     S
C282   H296    1.113   .     S
C282   H295    1.109   .     S
C283   H299    1.114   .     S
C283   O318    1.412   .     S
C283   H300    1.107   .     S
C283   H298    1.113   .     S
C284   H301    1.109   .     S
C284   O319    1.420   .     S
C284   H302    1.117   .     S
C284   H303    1.106   .     S
C285   O320    1.411   .     S
C285   H305    1.113   .     S
C285   H307    1.109   .     S
C286   O319    1.387   .     S
C286   C288    1.392   .     A
C287   O320    1.383   .     S
C287   C289    1.399   .     A
C288   H293    1.081   .     S
C288   C872    1.393   1_554 S
C289   H304    1.084   .     S
C289   C873    1.395   .     S
C290   C423    1.338   .     S
C290   H510    1.088   .     S
C292   O326    1.299   .     A
H294   N316    1.029   .     S
H306   C483    1.114   .     S
H310   C335    1.082   .     S
H313   C489    1.088   .     S
H314   N315    1.027   .     S
N315   N316    1.284   .     D
N315   Zn330   2.029   .     S
N316   Zn329   2.029   .     S
O317   Zn329   1.951   .     S
O317   C331    1.280   .     S
O321   Zn330   1.951   .     S
O322   Zn330   1.975   .     S
O323   Zn329   1.975   .     S
O324   Zn329   1.964   .     S
O324   C358    1.303   .     S
O325   Zn330   1.964   .     S
O326   Zn330   1.941   .     S
O327   Zn329   1.941   .     S
C331   O388    1.292   .     A
C331   C356    1.401   .     S
C332   C334    1.453   .     S
C332   O393    1.299   .     A
C332   O259    1.297   1_655 S
C333   C339    1.406   .     A
C333   C358    1.463   .     S
C334   C338    1.404   .     A
C334   C340    1.392   .     A
C335   C344    1.399   .     A
C336   C338    1.394   .     A
C336   H377    1.084   .     S
C336   C345    1.399   .     A
C337   H375    1.079   .     S
C337   C201    1.403   1_655 S
C337   C203    1.392   1_655 S
C338   H242    1.077   1_655 S
C339   C341    1.397   .     A
C339   O384    1.385   .     S
C340   C343    1.403   .     A
C340   O394    1.386   .     S
C341   C344    1.414   .     A
C341   C346    1.409   .     A
C342   C357    1.401   .     S
C342   O389    1.292   .     A
C342   O255    1.280   1_655 S
C343   C347    1.402   .     A
C343   C345    1.412   .     A
C344   C948    1.393   .     S
C345   C949    1.395   1_554 S
C346   C353    1.426   .     A
C346   C941    1.400   .     S
C347   C352    1.422   .     A
C347   C940    1.400   1_554 S
C348   O394    1.409   .     S
C348   H363    1.113   .     S
C348   H362    1.113   .     S
C348   H361    1.109   .     S
C349   H365    1.114   .     S
C349   O384    1.412   .     S
C349   H366    1.107   .     S
C349   H364    1.113   .     S
C350   H367    1.109   .     S
C350   O385    1.420   .     S
C350   H368    1.117   .     S
C350   H369    1.106   .     S
C351   O386    1.411   .     S
C351   H371    1.113   .     S
C351   H373    1.109   .     S
C352   O385    1.387   .     S
C352   C354    1.392   .     A
C353   O386    1.383   .     S
C353   C355    1.399   .     A
C354   H359    1.081   .     S
C354   C938    1.393   1_554 S
C355   H370    1.084   .     S
C355   C939    1.395   .     S
C356   C489    1.338   .     S
C356   H576    1.088   .     S
C357   C26     1.338   1_655 S
C358   O392    1.299   .     A
H360   N382    1.029   .     S
H372   C549    1.114   .     S
H376   C203    1.082   1_655 S
H379   C555    1.088   .     S
H380   N381    1.027   .     S
N381   N382    1.284   .     D
N381   Zn396   2.029   .     S
N382   Zn395   2.029   .     S
O383   Zn395   1.951   .     S
O383   C199    1.280   1_655 S
O387   Zn396   1.951   .     S
O388   Zn396   1.975   .     S
O389   Zn395   1.975   .     S
O390   Zn395   1.964   .     S
O390   C226    1.303   1_655 S
O391   Zn396   1.964   .     S
O392   Zn396   1.941   .     S
O393   Zn395   1.941   .     S
C397   O454    1.292   .     A
C397   C422    1.401   .     S
C397   O581    1.280   1_455 S
C398   C400    1.453   .     S
C398   O459    1.299   .     A
C398   O523    1.297   .     S
C399   C405    1.406   .     A
C399   C424    1.463   .     S
C399   C535    1.403   1_455 S
C400   C404    1.404   .     A
C400   C406    1.392   .     A
C401   C410    1.399   .     A
C401   C535    1.392   1_455 S
C401   H574    1.082   1_455 S
C402   C404    1.394   .     A
C402   H443    1.084   .     S
C402   C411    1.399   .     A
C403   H441    1.079   .     S
C403   C465    1.403   .     S
C403   C467    1.392   .     S
C404   H506    1.077   .     S
C405   C407    1.397   .     A
C405   O450    1.385   .     S
C406   C409    1.403   .     A
C406   O460    1.386   .     S
C407   C410    1.414   .     A
C407   C412    1.409   .     A
C408   C423    1.401   .     S
C408   O455    1.292   .     A
C408   O519    1.280   .     S
C409   C413    1.402   .     A
C409   C411    1.412   .     A
C410   C1014   1.393   .     S
C411   C1015   1.395   1_554 S
C412   C419    1.426   .     A
C412   C1007   1.400   .     S
C413   C418    1.422   .     A
C413   C1006   1.400   1_554 S
C414   O460    1.409   .     S
C414   H429    1.113   .     S
C414   H428    1.113   .     S
C414   H427    1.109   .     S
C415   H431    1.114   .     S
C415   O450    1.412   .     S
C415   H432    1.107   .     S
C415   H430    1.113   .     S
C416   H433    1.109   .     S
C416   O451    1.420   .     S
C416   H434    1.117   .     S
C416   H435    1.106   .     S
C417   O452    1.411   .     S
C417   H437    1.113   .     S
C417   H439    1.109   .     S
C418   O451    1.387   .     S
C418   C420    1.392   .     A
C419   O452    1.383   .     S
C419   C421    1.399   .     A
C420   H425    1.081   .     S
C420   C1004   1.393   1_554 S
C421   H436    1.084   .     S
C421   C1005   1.395   .     S
C422   C159    1.338   1_465 S
C422   H48     1.088   1_565 S
C424   O458    1.299   .     A
C424   O588    1.303   1_455 S
H426   N448    1.029   .     S
H438   C21     1.114   1_565 S
H440   C536    1.077   1_455 S
H442   C467    1.082   .     S
H445   C27     1.088   1_565 S
H446   N447    1.027   .     S
N447   N448    1.284   .     D
N447   Zn462   2.029   .     S
N448   Zn461   2.029   .     S
O449   Zn461   1.951   .     S
O449   C463    1.280   .     S
O453   Zn462   1.951   .     S
O453   C540    1.280   1_455 S
O454   Zn462   1.975   .     S
O455   Zn461   1.975   .     S
O456   Zn461   1.964   .     S
O456   C490    1.303   .     S
O457   Zn462   1.964   .     S
O457   C530    1.297   1_455 S
O458   Zn462   1.941   .     S
O459   Zn461   1.941   .     S
C463   O520    1.292   .     A
C463   C488    1.401   .     S
C464   C466    1.453   .     S
C464   O525    1.299   .     A
C464   O589    1.297   .     S
C465   C471    1.406   .     A
C465   C490    1.463   .     S
C466   C470    1.404   .     A
C466   C472    1.392   .     A
C467   C476    1.399   .     A
C468   C470    1.394   .     A
C468   H509    1.084   .     S
C468   C477    1.399   .     A
C469   H507    1.079   .     S
C469   C531    1.403   .     S
C469   C533    1.392   .     S
C470   H572    1.077   .     S
C471   C473    1.397   .     A
C471   O516    1.385   .     S
C472   C475    1.403   .     A
C472   O526    1.386   .     S
C473   C476    1.414   .     A
C473   C478    1.409   .     A
C474   C489    1.401   .     S
C474   O521    1.292   .     A
C474   O585    1.280   .     S
C475   C479    1.402   .     A
C475   C477    1.412   .     A
C476   C1080   1.393   .     S
C477   C1081   1.395   1_554 S
C478   C485    1.426   .     A
C478   C1073   1.400   .     S
C479   C484    1.422   .     A
C479   C1072   1.400   1_554 S
C480   O526    1.409   .     S
C480   H495    1.113   .     S
C480   H494    1.113   .     S
C480   H493    1.109   .     S
C481   H497    1.114   .     S
C481   O516    1.412   .     S
C481   H498    1.107   .     S
C481   H496    1.113   .     S
C482   H499    1.109   .     S
C482   O517    1.420   .     S
C482   H500    1.117   .     S
C482   H501    1.106   .     S
C483   O518    1.411   .     S
C483   H503    1.113   .     S
C483   H505    1.109   .     S
C484   O517    1.387   .     S
C484   C486    1.392   .     A
C485   O518    1.383   .     S
C485   C487    1.399   .     A
C486   H491    1.081   .     S
C486   C1070   1.393   1_554 S
C487   H502    1.084   .     S
C487   C1071   1.395   .     S
C488   C27     1.338   1_565 S
C488   H114    1.088   1_565 S
C490   O524    1.299   .     A
H492   N514    1.029   .     S
H504   C87     1.114   1_565 S
H508   C533    1.082   .     S
H511   C93     1.088   1_565 S
H512   N513    1.027   .     S
N513   N514    1.284   .     D
N513   Zn528   2.029   .     S
N514   Zn527   2.029   .     S
O515   Zn527   1.951   .     S
O515   C529    1.280   .     S
O519   Zn528   1.951   .     S
O520   Zn528   1.975   .     S
O521   Zn527   1.975   .     S
O522   Zn527   1.964   .     S
O522   C556    1.303   .     S
O523   Zn528   1.964   .     S
O524   Zn528   1.941   .     S
O525   Zn527   1.941   .     S
C529   O586    1.292   .     A
C529   C554    1.401   .     S
C530   C532    1.453   .     S
C530   O591    1.299   .     A
C530   O457    1.297   1_655 S
C531   C537    1.406   .     A
C531   C556    1.463   .     S
C532   C536    1.404   .     A
C532   C538    1.392   .     A
C533   C542    1.399   .     A
C534   C536    1.394   .     A
C534   H575    1.084   .     S
C534   C543    1.399   .     A
C535   H573    1.079   .     S
C535   C399    1.403   1_655 S
C535   C401    1.392   1_655 S
C536   H440    1.077   1_655 S
C537   C539    1.397   .     A
C537   O582    1.385   .     S
C538   C541    1.403   .     A
C538   O592    1.386   .     S
C539   C542    1.414   .     A
C539   C544    1.409   .     A
C540   C555    1.401   .     S
C540   O587    1.292   .     A
C540   O453    1.280   1_655 S
C541   C545    1.402   .     A
C541   C543    1.412   .     A
C542   C1146   1.393   .     S
C543   C1147   1.395   1_554 S
C544   C551    1.426   .     A
C544   C1139   1.400   .     S
C545   C550    1.422   .     A
C545   C1138   1.400   1_554 S
C546   O592    1.409   .     S
C546   H561    1.113   .     S
C546   H560    1.113   .     S
C546   H559    1.109   .     S
C547   H563    1.114   .     S
C547   O582    1.412   .     S
C547   H564    1.107   .     S
C547   H562    1.113   .     S
C548   H565    1.109   .     S
C548   O583    1.420   .     S
C548   H566    1.117   .     S
C548   H567    1.106   .     S
C549   O584    1.411   .     S
C549   H569    1.113   .     S
C549   H571    1.109   .     S
C550   O583    1.387   .     S
C550   C552    1.392   .     A
C551   O584    1.383   .     S
C551   C553    1.399   .     A
C552   H557    1.081   .     S
C552   C1136   1.393   1_554 S
C553   H568    1.084   .     S
C553   C1137   1.395   .     S
C554   C93     1.338   1_565 S
C554   H180    1.088   1_565 S
C555   C224    1.338   1_655 S
C556   O590    1.299   .     A
H558   N580    1.029   .     S
H570   C153    1.114   1_565 S
H574   C401    1.082   1_655 S
H577   C159    1.088   1_565 S
H578   N579    1.027   .     S
N579   N580    1.284   .     D
N579   Zn594   2.029   .     S
N580   Zn593   2.029   .     S
O581   Zn593   1.951   .     S
O581   C397    1.280   1_655 S
O585   Zn594   1.951   .     S
O586   Zn594   1.975   .     S
O587   Zn593   1.975   .     S
O588   Zn593   1.964   .     S
O588   C424    1.303   1_655 S
O589   Zn594   1.964   .     S
O590   Zn594   1.941   .     S
O591   Zn593   1.941   .     S
C595   O652    1.292   .     A
C595   C620    1.401   .     S
C595   O779    1.280   1_455 S
C596   C598    1.453   .     S
C596   O657    1.299   .     A
C596   O721    1.297   .     S
C597   C603    1.406   .     A
C597   C622    1.463   .     S
C597   C733    1.403   1_455 S
C598   C602    1.404   .     A
C598   C604    1.392   .     A
C599   C608    1.399   .     A
C599   C733    1.392   1_455 S
C599   H772    1.082   1_455 S
C600   C602    1.394   .     A
C600   H641    1.084   .     S
C600   C609    1.399   .     A
C601   H639    1.079   .     S
C601   C663    1.403   .     S
C601   C665    1.392   .     S
C602   H704    1.077   .     S
C603   C605    1.397   .     A
C603   O648    1.385   .     S
C604   C607    1.403   .     A
C604   O658    1.386   .     S
C605   C608    1.414   .     A
C605   C610    1.409   .     A
C606   C621    1.401   .     S
C606   O653    1.292   .     A
C606   O717    1.280   .     S
C607   C611    1.402   .     A
C607   C609    1.412   .     A
C608   C24     1.393   1_556 S
C610   C617    1.426   .     A
C610   C17     1.400   1_556 S
C611   C616    1.422   .     A
C612   O658    1.409   .     S
C612   H627    1.113   .     S
C612   H626    1.113   .     S
C612   H625    1.109   .     S
C613   H629    1.114   .     S
C613   O648    1.412   .     S
C613   H630    1.107   .     S
C613   H628    1.113   .     S
C614   H631    1.109   .     S
C614   O649    1.420   .     S
C614   H632    1.117   .     S
C614   H633    1.106   .     S
C615   O650    1.411   .     S
C615   H635    1.113   .     S
C615   H637    1.109   .     S
C615   H1032   1.114   1_545 S
C616   O649    1.387   .     S
C616   C618    1.392   .     A
C617   O650    1.383   .     S
C617   C619    1.399   .     A
C618   H623    1.081   .     S
C619   H634    1.084   .     S
C619   C15     1.395   1_556 S
C620   C951    1.338   1_455 S
C620   H840    1.088   .     S
C621   C1082   1.338   1_545 S
C621   H1039   1.088   1_545 S
C622   O656    1.299   .     A
C622   O786    1.303   1_455 S
H624   N646    1.029   .     S
H636   C813    1.114   .     S
H638   C734    1.077   1_455 S
H640   C665    1.082   .     S
H642   C1016   1.088   1_545 S
H643   C819    1.088   .     S
H644   N645    1.027   .     S
N645   N646    1.284   .     D
N645   Zn660   2.029   .     S
N646   Zn659   2.029   .     S
O647   Zn659   1.951   .     S
O647   C661    1.280   .     S
O651   Zn660   1.951   .     S
O651   C738    1.280   1_455 S
O652   Zn660   1.975   .     S
O653   Zn659   1.975   .     S
O654   Zn659   1.964   .     S
O654   C688    1.303   .     S
O655   Zn660   1.964   .     S
O655   C728    1.297   1_455 S
O656   Zn660   1.941   .     S
O657   Zn659   1.941   .     S
C661   O718    1.292   .     A
C661   C686    1.401   .     S
C662   C664    1.453   .     S
C662   O723    1.299   .     A
C662   O787    1.297   .     S
C663   C669    1.406   .     A
C663   C688    1.463   .     S
C664   C668    1.404   .     A
C664   C670    1.392   .     A
C665   C674    1.399   .     A
C666   C668    1.394   .     A
C666   H707    1.084   .     S
C666   C675    1.399   .     A
C667   H705    1.079   .     S
C667   C729    1.403   .     S
C667   C731    1.392   .     S
C668   H770    1.077   .     S
C669   C671    1.397   .     A
C669   O714    1.385   .     S
C670   C673    1.403   .     A
C670   O724    1.386   .     S
C671   C674    1.414   .     A
C671   C676    1.409   .     A
C672   C687    1.401   .     S
C672   O719    1.292   .     A
C672   O783    1.280   .     S
C673   C677    1.402   .     A
C673   C675    1.412   .     A
C674   C90     1.393   1_556 S
C676   C683    1.426   .     A
C676   C83     1.400   1_556 S
C677   C682    1.422   .     A
C678   O724    1.409   .     S
C678   H693    1.113   .     S
C678   H692    1.113   .     S
C678   H691    1.109   .     S
C679   H695    1.114   .     S
C679   O714    1.412   .     S
C679   H696    1.107   .     S
C679   H694    1.113   .     S
C680   H697    1.109   .     S
C680   O715    1.420   .     S
C680   H698    1.117   .     S
C680   H699    1.106   .     S
C681   O716    1.411   .     S
C681   H701    1.113   .     S
C681   H703    1.109   .     S
C681   H1098   1.114   1_545 S
C682   O715    1.387   .     S
C682   C684    1.392   .     A
C683   O716    1.383   .     S
C683   C685    1.399   .     A
C684   H689    1.081   .     S
C685   H700    1.084   .     S
C685   C81     1.395   1_556 S
C686   C819    1.338   .     S
C686   H906    1.088   .     S
C687   C1148   1.338   1_545 S
C687   H1105   1.088   1_545 S
C688   O722    1.299   .     A
H690   N712    1.029   .     S
H702   C879    1.114   .     S
H706   C731    1.082   .     S
H708   C1082   1.088   1_545 S
H709   C885    1.088   .     S
H710   N711    1.027   .     S
N711   N712    1.284   .     D
N711   Zn726   2.029   .     S
N712   Zn725   2.029   .     S
O713   Zn725   1.951   .     S
O713   C727    1.280   .     S
O717   Zn726   1.951   .     S
O718   Zn726   1.975   .     S
O719   Zn725   1.975   .     S
O720   Zn725   1.964   .     S
O720   C754    1.303   .     S
O721   Zn726   1.964   .     S
O722   Zn726   1.941   .     S
O723   Zn725   1.941   .     S
C727   O784    1.292   .     A
C727   C752    1.401   .     S
C728   C730    1.453   .     S
C728   O789    1.299   .     A
C728   O655    1.297   1_655 S
C729   C735    1.406   .     A
C729   C754    1.463   .     S
C730   C734    1.404   .     A
C730   C736    1.392   .     A
C731   C740    1.399   .     A
C732   C734    1.394   .     A
C732   H773    1.084   .     S
C732   C741    1.399   .     A
C733   H771    1.079   .     S
C733   C597    1.403   1_655 S
C733   C599    1.392   1_655 S
C734   H638    1.077   1_655 S
C735   C737    1.397   .     A
C735   O780    1.385   .     S
C736   C739    1.403   .     A
C736   O790    1.386   .     S
C737   C740    1.414   .     A
C737   C742    1.409   .     A
C738   C753    1.401   .     S
C738   O785    1.292   .     A
C738   O651    1.280   1_655 S
C739   C743    1.402   .     A
C739   C741    1.412   .     A
C740   C156    1.393   1_556 S
C742   C749    1.426   .     A
C742   C149    1.400   1_556 S
C743   C748    1.422   .     A
C744   O790    1.409   .     S
C744   H759    1.113   .     S
C744   H758    1.113   .     S
C744   H757    1.109   .     S
C745   H761    1.114   .     S
C745   O780    1.412   .     S
C745   H762    1.107   .     S
C745   H760    1.113   .     S
C746   H763    1.109   .     S
C746   O781    1.420   .     S
C746   H764    1.117   .     S
C746   H765    1.106   .     S
C747   O782    1.411   .     S
C747   H767    1.113   .     S
C747   H769    1.109   .     S
C747   H1164   1.114   1_545 S
C748   O781    1.387   .     S
C748   C750    1.392   .     A
C749   O782    1.383   .     S
C749   C751    1.399   .     A
C750   H755    1.081   .     S
C751   H766    1.084   .     S
C751   C147    1.395   1_556 S
C752   C885    1.338   .     S
C752   H972    1.088   .     S
C753   C1016   1.338   1_645 S
C753   H1171   1.088   1_545 S
C754   O788    1.299   .     A
H756   N778    1.029   .     S
H768   C945    1.114   .     S
H772   C599    1.082   1_655 S
H774   C1148   1.088   1_545 S
H775   C951    1.088   .     S
H776   N777    1.027   .     S
N777   N778    1.284   .     D
N777   Zn792   2.029   .     S
N778   Zn791   2.029   .     S
O779   Zn791   1.951   .     S
O779   C595    1.280   1_655 S
O783   Zn792   1.951   .     S
O784   Zn792   1.975   .     S
O785   Zn791   1.975   .     S
O786   Zn791   1.964   .     S
O786   C622    1.303   1_655 S
O787   Zn792   1.964   .     S
O788   Zn792   1.941   .     S
O789   Zn791   1.941   .     S
C793   O850    1.292   .     A
C793   C818    1.401   .     S
C793   O977    1.280   1_455 S
C794   C796    1.453   .     S
C794   O855    1.299   .     A
C794   O919    1.297   .     S
C795   C801    1.406   .     A
C795   C820    1.463   .     S
C795   C931    1.403   1_455 S
C796   C800    1.404   .     A
C796   C802    1.392   .     A
C797   C806    1.399   .     A
C797   C931    1.392   1_455 S
C797   H970    1.082   1_455 S
C798   C800    1.394   .     A
C798   H839    1.084   .     S
C798   C807    1.399   .     A
C799   H837    1.079   .     S
C799   C861    1.403   .     S
C799   C863    1.392   .     S
C800   H902    1.077   .     S
C801   C803    1.397   .     A
C801   O846    1.385   .     S
C802   C805    1.403   .     A
C802   O856    1.386   .     S
C803   C806    1.414   .     A
C803   C808    1.409   .     A
C804   C819    1.401   .     S
C804   O851    1.292   .     A
C804   O915    1.280   .     S
C805   C809    1.402   .     A
C805   C807    1.412   .     A
C806   C222    1.393   1_556 S
C808   C815    1.426   .     A
C808   C215    1.400   1_556 S
C809   C814    1.422   .     A
C810   O856    1.409   .     S
C810   H825    1.113   .     S
C810   H824    1.113   .     S
C810   H823    1.109   .     S
C811   H827    1.114   .     S
C811   O846    1.412   .     S
C811   H828    1.107   .     S
C811   H826    1.113   .     S
C812   H829    1.109   .     S
C812   O847    1.420   .     S
C812   H830    1.117   .     S
C812   H831    1.106   .     S
C813   O848    1.411   .     S
C813   H833    1.113   .     S
C813   H835    1.109   .     S
C814   O847    1.387   .     S
C814   C816    1.392   .     A
C815   O848    1.383   .     S
C815   C817    1.399   .     A
C816   H821    1.081   .     S
C817   H832    1.084   .     S
C817   C213    1.395   1_556 S
C818   C1149   1.338   1_455 S
C818   H1038   1.088   .     S
C820   O854    1.299   .     A
C820   O984    1.303   1_455 S
H822   N844    1.029   .     S
H834   C1011   1.114   .     S
H836   C932    1.077   1_455 S
H838   C863    1.082   .     S
H841   C1017   1.088   .     S
H842   N843    1.027   .     S
N843   N844    1.284   .     D
N843   Zn858   2.029   .     S
N844   Zn857   2.029   .     S
O845   Zn857   1.951   .     S
O845   C859    1.280   .     S
O849   Zn858   1.951   .     S
O849   C936    1.280   1_455 S
O850   Zn858   1.975   .     S
O851   Zn857   1.975   .     S
O852   Zn857   1.964   .     S
O852   C886    1.303   .     S
O853   Zn858   1.964   .     S
O853   C926    1.297   1_455 S
O854   Zn858   1.941   .     S
O855   Zn857   1.941   .     S
C859   O916    1.292   .     A
C859   C884    1.401   .     S
C860   C862    1.453   .     S
C860   O921    1.299   .     A
C860   O985    1.297   .     S
C861   C867    1.406   .     A
C861   C886    1.463   .     S
C862   C866    1.404   .     A
C862   C868    1.392   .     A
C863   C872    1.399   .     A
C864   C866    1.394   .     A
C864   H905    1.084   .     S
C864   C873    1.399   .     A
C865   H903    1.079   .     S
C865   C927    1.403   .     S
C865   C929    1.392   .     S
C866   H968    1.077   .     S
C867   C869    1.397   .     A
C867   O912    1.385   .     S
C868   C871    1.403   .     A
C868   O922    1.386   .     S
C869   C872    1.414   .     A
C869   C874    1.409   .     A
C870   C885    1.401   .     S
C870   O917    1.292   .     A
C870   O981    1.280   .     S
C871   C875    1.402   .     A
C871   C873    1.412   .     A
C872   C288    1.393   1_556 S
C874   C881    1.426   .     A
C874   C281    1.400   1_556 S
C875   C880    1.422   .     A
C876   O922    1.409   .     S
C876   H891    1.113   .     S
C876   H890    1.113   .     S
C876   H889    1.109   .     S
C877   H893    1.114   .     S
C877   O912    1.412   .     S
C877   H894    1.107   .     S
C877   H892    1.113   .     S
C878   H895    1.109   .     S
C878   O913    1.420   .     S
C878   H896    1.117   .     S
C878   H897    1.106   .     S
C879   O914    1.411   .     S
C879   H899    1.113   .     S
C879   H901    1.109   .     S
C880   O913    1.387   .     S
C880   C882    1.392   .     A
C881   O914    1.383   .     S
C881   C883    1.399   .     A
C882   H887    1.081   .     S
C883   H898    1.084   .     S
C883   C279    1.395   1_556 S
C884   C1017   1.338   .     S
C884   H1104   1.088   .     S
C886   O920    1.299   .     A
H888   N910    1.029   .     S
H900   C1077   1.114   .     S
H904   C929    1.082   .     S
H907   C1083   1.088   .     S
H908   N909    1.027   .     S
N909   N910    1.284   .     D
N909   Zn924   2.029   .     S
N910   Zn923   2.029   .     S
O911   Zn923   1.951   .     S
O911   C925    1.280   .     S
O915   Zn924   1.951   .     S
O916   Zn924   1.975   .     S
O917   Zn923   1.975   .     S
O918   Zn923   1.964   .     S
O918   C952    1.303   .     S
O919   Zn924   1.964   .     S
O920   Zn924   1.941   .     S
O921   Zn923   1.941   .     S
C925   O982    1.292   .     A
C925   C950    1.401   .     S
C926   C928    1.453   .     S
C926   O987    1.299   .     A
C926   O853    1.297   1_655 S
C927   C933    1.406   .     A
C927   C952    1.463   .     S
C928   C932    1.404   .     A
C928   C934    1.392   .     A
C929   C938    1.399   .     A
C930   C932    1.394   .     A
C930   H971    1.084   .     S
C930   C939    1.399   .     A
C931   H969    1.079   .     S
C931   C795    1.403   1_655 S
C931   C797    1.392   1_655 S
C932   H836    1.077   1_655 S
C933   C935    1.397   .     A
C933   O978    1.385   .     S
C934   C937    1.403   .     A
C934   O988    1.386   .     S
C935   C938    1.414   .     A
C935   C940    1.409   .     A
C936   C951    1.401   .     S
C936   O983    1.292   .     A
C936   O849    1.280   1_655 S
C937   C941    1.402   .     A
C937   C939    1.412   .     A
C938   C354    1.393   1_556 S
C940   C947    1.426   .     A
C940   C347    1.400   1_556 S
C941   C946    1.422   .     A
C942   O988    1.409   .     S
C942   H957    1.113   .     S
C942   H956    1.113   .     S
C942   H955    1.109   .     S
C943   H959    1.114   .     S
C943   O978    1.412   .     S
C943   H960    1.107   .     S
C943   H958    1.113   .     S
C944   H961    1.109   .     S
C944   O979    1.420   .     S
C944   H962    1.117   .     S
C944   H963    1.106   .     S
C945   O980    1.411   .     S
C945   H965    1.113   .     S
C945   H967    1.109   .     S
C946   O979    1.387   .     S
C946   C948    1.392   .     A
C947   O980    1.383   .     S
C947   C949    1.399   .     A
C948   H953    1.081   .     S
C949   H964    1.084   .     S
C949   C345    1.395   1_556 S
C950   C1083   1.338   .     S
C950   H1170   1.088   .     S
C951   C620    1.338   1_655 S
C952   O986    1.299   .     A
H954   N976    1.029   .     S
H966   C1143   1.114   .     S
H970   C797    1.082   1_655 S
H973   C1149   1.088   .     S
H974   N975    1.027   .     S
N975   N976    1.284   .     D
N975   Zn990   2.029   .     S
N976   Zn989   2.029   .     S
O977   Zn989   1.951   .     S
O977   C793    1.280   1_655 S
O981   Zn990   1.951   .     S
O982   Zn990   1.975   .     S
O983   Zn989   1.975   .     S
O984   Zn989   1.964   .     S
O984   C820    1.303   1_655 S
O985   Zn990   1.964   .     S
O986   Zn990   1.941   .     S
O987   Zn989   1.941   .     S
C991   O1048   1.292   .     A
C991   C1016   1.401   .     S
C991   O1175   1.280   1_455 S
C992   C994    1.453   .     S
C992   O1053   1.299   .     A
C992   O1117   1.297   .     S
C993   C999    1.406   .     A
C993   C1018   1.463   .     S
C993   C1129   1.403   1_455 S
C994   C998    1.404   .     A
C994   C1000   1.392   .     A
C995   C1004   1.399   .     A
C995   C1129   1.392   1_455 S
C995   H1168   1.082   1_455 S
C996   C998    1.394   .     A
C996   H1037   1.084   .     S
C996   C1005   1.399   .     A
C997   H1035   1.079   .     S
C997   C1059   1.403   .     S
C997   C1061   1.392   .     S
C998   H1100   1.077   .     S
C999   C1001   1.397   .     A
C999   O1044   1.385   .     S
C1000  C1003   1.403   .     A
C1000  O1054   1.386   .     S
C1001  C1004   1.414   .     A
C1001  C1006   1.409   .     A
C1002  C1017   1.401   .     S
C1002  O1049   1.292   .     A
C1002  O1113   1.280   .     S
C1003  C1007   1.402   .     A
C1003  C1005   1.412   .     A
C1004  C420    1.393   1_556 S
C1006  C1013   1.426   .     A
C1006  C413    1.400   1_556 S
C1007  C1012   1.422   .     A
C1008  O1054   1.409   .     S
C1008  H1023   1.113   .     S
C1008  H1022   1.113   .     S
C1008  H1021   1.109   .     S
C1009  H1025   1.114   .     S
C1009  O1044   1.412   .     S
C1009  H1026   1.107   .     S
C1009  H1024   1.113   .     S
C1010  H1027   1.109   .     S
C1010  O1045   1.420   .     S
C1010  H1028   1.117   .     S
C1010  H1029   1.106   .     S
C1011  O1046   1.411   .     S
C1011  H1031   1.113   .     S
C1011  H1033   1.109   .     S
C1012  O1045   1.387   .     S
C1012  C1014   1.392   .     A
C1013  O1046   1.383   .     S
C1013  C1015   1.399   .     A
C1014  H1019   1.081   .     S
C1015  H1030   1.084   .     S
C1015  C411    1.395   1_556 S
C1016  C753    1.338   1_465 S
C1016  H642    1.088   1_565 S
C1018  O1052   1.299   .     A
C1018  O1182   1.303   1_455 S
H1020  N1042   1.029   .     S
H1032  C615    1.114   1_565 S
H1034  C1130   1.077   1_455 S
H1036  C1061   1.082   .     S
H1039  C621    1.088   1_565 S
H1040  N1041   1.027   .     S
N1041  N1042   1.284   .     D
N1041  Zn1056  2.029   .     S
N1042  Zn1055  2.029   .     S
O1043  Zn1055  1.951   .     S
O1043  C1057   1.280   .     S
O1047  Zn1056  1.951   .     S
O1047  C1134   1.280   1_455 S
O1048  Zn1056  1.975   .     S
O1049  Zn1055  1.975   .     S
O1050  Zn1055  1.964   .     S
O1050  C1084   1.303   .     S
O1051  Zn1056  1.964   .     S
O1051  C1124   1.297   1_455 S
O1052  Zn1056  1.941   .     S
O1053  Zn1055  1.941   .     S
C1057  O1114   1.292   .     A
C1057  C1082   1.401   .     S
C1058  C1060   1.453   .     S
C1058  O1119   1.299   .     A
C1058  O1183   1.297   .     S
C1059  C1065   1.406   .     A
C1059  C1084   1.463   .     S
C1060  C1064   1.404   .     A
C1060  C1066   1.392   .     A
C1061  C1070   1.399   .     A
C1062  C1064   1.394   .     A
C1062  H1103   1.084   .     S
C1062  C1071   1.399   .     A
C1063  H1101   1.079   .     S
C1063  C1125   1.403   .     S
C1063  C1127   1.392   .     S
C1064  H1166   1.077   .     S
C1065  C1067   1.397   .     A
C1065  O1110   1.385   .     S
C1066  C1069   1.403   .     A
C1066  O1120   1.386   .     S
C1067  C1070   1.414   .     A
C1067  C1072   1.409   .     A
C1068  C1083   1.401   .     S
C1068  O1115   1.292   .     A
C1068  O1179   1.280   .     S
C1069  C1073   1.402   .     A
C1069  C1071   1.412   .     A
C1070  C486    1.393   1_556 S
C1072  C1079   1.426   .     A
C1072  C479    1.400   1_556 S
C1073  C1078   1.422   .     A
C1074  O1120   1.409   .     S
C1074  H1089   1.113   .     S
C1074  H1088   1.113   .     S
C1074  H1087   1.109   .     S
C1075  H1091   1.114   .     S
C1075  O1110   1.412   .     S
C1075  H1092   1.107   .     S
C1075  H1090   1.113   .     S
C1076  H1093   1.109   .     S
C1076  O1111   1.420   .     S
C1076  H1094   1.117   .     S
C1076  H1095   1.106   .     S
C1077  O1112   1.411   .     S
C1077  H1097   1.113   .     S
C1077  H1099   1.109   .     S
C1078  O1111   1.387   .     S
C1078  C1080   1.392   .     A
C1079  O1112   1.383   .     S
C1079  C1081   1.399   .     A
C1080  H1085   1.081   .     S
C1081  H1096   1.084   .     S
C1081  C477    1.395   1_556 S
C1082  C621    1.338   1_565 S
C1082  H708    1.088   1_565 S
C1084  O1118   1.299   .     A
H1086  N1108   1.029   .     S
H1098  C681    1.114   1_565 S
H1102  C1127   1.082   .     S
H1105  C687    1.088   1_565 S
H1106  N1107   1.027   .     S
N1107  N1108   1.284   .     D
N1107  Zn1122  2.029   .     S
N1108  Zn1121  2.029   .     S
O1109  Zn1121  1.951   .     S
O1109  C1123   1.280   .     S
O1113  Zn1122  1.951   .     S
O1114  Zn1122  1.975   .     S
O1115  Zn1121  1.975   .     S
O1116  Zn1121  1.964   .     S
O1116  C1150   1.303   .     S
O1117  Zn1122  1.964   .     S
O1118  Zn1122  1.941   .     S
O1119  Zn1121  1.941   .     S
C1123  O1180   1.292   .     A
C1123  C1148   1.401   .     S
C1124  C1126   1.453   .     S
C1124  O1185   1.299   .     A
C1124  O1051   1.297   1_655 S
C1125  C1131   1.406   .     A
C1125  C1150   1.463   .     S
C1126  C1130   1.404   .     A
C1126  C1132   1.392   .     A
C1127  C1136   1.399   .     A
C1128  C1130   1.394   .     A
C1128  H1169   1.084   .     S
C1128  C1137   1.399   .     A
C1129  H1167   1.079   .     S
C1129  C993    1.403   1_655 S
C1129  C995    1.392   1_655 S
C1130  H1034   1.077   1_655 S
C1131  C1133   1.397   .     A
C1131  O1176   1.385   .     S
C1132  C1135   1.403   .     A
C1132  O1186   1.386   .     S
C1133  C1136   1.414   .     A
C1133  C1138   1.409   .     A
C1134  C1149   1.401   .     S
C1134  O1181   1.292   .     A
C1134  O1047   1.280   1_655 S
C1135  C1139   1.402   .     A
C1135  C1137   1.412   .     A
C1136  C552    1.393   1_556 S
C1138  C1145   1.426   .     A
C1138  C545    1.400   1_556 S
C1139  C1144   1.422   .     A
C1140  O1186   1.409   .     S
C1140  H1155   1.113   .     S
C1140  H1154   1.113   .     S
C1140  H1153   1.109   .     S
C1141  H1157   1.114   .     S
C1141  O1176   1.412   .     S
C1141  H1158   1.107   .     S
C1141  H1156   1.113   .     S
C1142  H1159   1.109   .     S
C1142  O1177   1.420   .     S
C1142  H1160   1.117   .     S
C1142  H1161   1.106   .     S
C1143  O1178   1.411   .     S
C1143  H1163   1.113   .     S
C1143  H1165   1.109   .     S
C1144  O1177   1.387   .     S
C1144  C1146   1.392   .     A
C1145  O1178   1.383   .     S
C1145  C1147   1.399   .     A
C1146  H1151   1.081   .     S
C1147  H1162   1.084   .     S
C1147  C543    1.395   1_556 S
C1148  C687    1.338   1_565 S
C1148  H774    1.088   1_565 S
C1149  C818    1.338   1_655 S
C1150  O1184   1.299   .     A
H1152  N1174   1.029   .     S
H1164  C747    1.114   1_565 S
H1168  C995    1.082   1_655 S
H1171  C753    1.088   1_565 S
H1172  N1173   1.027   .     S
N1173  N1174   1.284   .     D
N1173  Zn1188  2.029   .     S
N1174  Zn1187  2.029   .     S
O1175  Zn1187  1.951   .     S
O1175  C991    1.280   1_655 S
O1179  Zn1188  1.951   .     S
O1180  Zn1188  1.975   .     S
O1181  Zn1187  1.975   .     S
O1182  Zn1187  1.964   .     S
O1182  C1018   1.303   1_655 S
O1183  Zn1188  1.964   .     S
O1184  Zn1188  1.941   .     S
O1185  Zn1187  1.941   .     S
