data_str_m3_o1_o2_pcu_sym.24
_audit_creation_date              2020-01-03
_audit_creation_method            'Materials Studio'
_symmetry_space_group_name_H-M    'P1'
_symmetry_Int_Tables_number       1
_symmetry_cell_setting            triclinic
loop_
_symmetry_equiv_pos_as_xyz
  x,y,z
_cell_length_a                    31.9437
_cell_length_b                    29.4627
_cell_length_c                    30.0927
_cell_angle_alpha                 89.9135
_cell_angle_beta                  89.7399
_cell_angle_gamma                 91.9869
loop_
_atom_site_label
_atom_site_type_symbol
_atom_site_fract_x
_atom_site_fract_y
_atom_site_fract_z
_atom_site_U_iso_or_equiv
_atom_site_adp_type
_atom_site_occupancy
C1     C     0.08640   0.16571   0.25459   0.00000  Uiso   1.00
C2     C     0.31441   0.20940   0.24998   0.00000  Uiso   1.00
C3     C     0.31147   0.12920   0.22927   0.00000  Uiso   1.00
C4     C     0.02110   0.20479   0.26680   0.00000  Uiso   1.00
C5     C     0.19232   0.20134   0.04586   0.00000  Uiso   1.00
C6     C     0.14295   0.14196   0.45441   0.00000  Uiso   1.00
C7     C     0.20929   0.18445   0.44979   0.00000  Uiso   1.00
C8     C     0.16487   0.12379   0.04653   0.00000  Uiso   1.00
C9     C     0.18747   0.20397   0.09169   0.00000  Uiso   1.00
C10    C     0.13991   0.14165   0.40857   0.00000  Uiso   1.00
C11    C     0.20483   0.18806   0.40396   0.00000  Uiso   1.00
C12    C     0.24664   0.16763   0.24455   0.00000  Uiso   1.00
C13    C     0.15782   0.12609   0.09186   0.00000  Uiso   1.00
C14    C     0.16987   0.16615   0.11517   0.00000  Uiso   1.00
C15    C     0.17022   0.16606   0.38347   0.00000  Uiso   1.00
C16    C     0.18014   0.16184   0.02325   0.00000  Uiso   1.00
C17    C     0.17801   0.16217   0.47505   0.00000  Uiso   1.00
C18    C     0.29147   0.16988   0.23755   0.00000  Uiso   1.00
C19    C     0.04117   0.16370   0.25952   0.00000  Uiso   1.00
C20    C     0.17601   0.28324   0.10516   0.00000  Uiso   1.00
C21    C     0.11013   0.06821   0.39030   0.00000  Uiso   1.00
C22    C     0.24122   0.25950   0.38788   0.00000  Uiso   1.00
C23    C     0.16694   0.16668   0.16361   0.00000  Uiso   1.00
C24    C     0.09194   0.09430   0.11809   0.00000  Uiso   1.00
C25    C     0.16703   0.16658   0.33592   0.00000  Uiso   1.00
C26    C     0.18367   0.02459   0.28455   0.00000  Uiso   1.00
C27    C     0.14926   0.30872   0.21578   0.00000  Uiso   1.00
C28    C     0.14997   0.02334   0.21539   0.00000  Uiso   1.00
C29    C     0.18373   0.30995   0.28447   0.00000  Uiso   1.00
C30    C     0.01814   0.12426   0.24607   0.00000  Uiso   1.00
H31    H     0.19748   0.04322   0.31206   0.00000  Uiso   1.00
H32    H     0.17947   0.29436   0.07000   0.00000  Uiso   1.00
H33    H     0.18654   0.31188   0.12678   0.00000  Uiso   1.00
H34    H     0.14247   0.27481   0.11220   0.00000  Uiso   1.00
H35    H     0.07735   0.12669   0.39960   0.00000  Uiso   1.00
H36    H     0.11266   0.05669   0.42535   0.00000  Uiso   1.00
H37    H     0.13821   0.05799   0.37140   0.00000  Uiso   1.00
H38    H     0.08201   0.05083   0.37594   0.00000  Uiso   1.00
H39    H     0.26426   0.19542   0.37786   0.00000  Uiso   1.00
H40    H     0.25668   0.26470   0.42056   0.00000  Uiso   1.00
H41    H     0.21034   0.27574   0.38831   0.00000  Uiso   1.00
H42    H     0.13443   0.29001   0.18901   0.00000  Uiso   1.00
H43    H     0.26110   0.27619   0.36189   0.00000  Uiso   1.00
H44    H     0.14320   0.05758   0.09956   0.00000  Uiso   1.00
H45    H     0.07726   0.09948   0.08512   0.00000  Uiso   1.00
H46    H     0.08578   0.12371   0.13995   0.00000  Uiso   1.00
H47    H     0.07736   0.06329   0.13331   0.00000  Uiso   1.00
H48    H     0.06445   0.01540   0.22431   0.00000  Uiso   1.00
H49    H     0.24526   0.28369   0.19366   0.00000  Uiso   1.00
H50    H     0.24409   0.03301   0.19514   0.00000  Uiso   1.00
H51    H     0.08865   0.24538   0.35704   0.00000  Uiso   1.00
H52    H     0.13653   0.04093   0.18777   0.00000  Uiso   1.00
H53    H     0.19748   0.29223   0.31184   0.00000  Uiso   1.00
H54    H     0.20419   0.23094   0.02781   0.00000  Uiso   1.00
H55    H     0.11789   0.12586   0.47376   0.00000  Uiso   1.00
H56    H     0.23685   0.19934   0.46565   0.00000  Uiso   1.00
H57    H     0.15596   0.09283   0.02902   0.00000  Uiso   1.00
H58    H     0.23263   0.25189   0.10830   0.00000  Uiso   1.00
N59    N     0.16667   0.28573   0.25000   0.00000  Uiso   1.00
N60    N     0.16667   0.04760   0.25000   0.00000  Uiso   1.00
N61    N     0.20126   0.24436   0.11379   0.00000  Uiso   1.00
N62    N     0.10615   0.11701   0.38806   0.00000  Uiso   1.00
N63    N     0.23612   0.21155   0.37814   0.00000  Uiso   1.00
N64    N     0.13653   0.08870   0.11309   0.00000  Uiso   1.00
O65    O     0.10559   0.20487   0.25000   0.00000  Uiso   1.00
O66    O     0.33003   0.03929   0.27237   0.00000  Uiso   1.00
O67    O     0.05784   0.04658   0.21529   0.00000  Uiso   1.00
O68    O     0.27706   0.28682   0.27121   0.00000  Uiso   1.00
O69    O     0.00224   0.29250   0.21833   0.00000  Uiso   1.00
O70    O     0.26518   0.25897   0.18989   0.00000  Uiso   1.00
O71    O     0.26055   0.11278   0.15975   0.00000  Uiso   1.00
O72    O     0.32323   0.06791   0.16395   0.00000  Uiso   1.00
O73    O     0.26189   0.04792   0.21809   0.00000  Uiso   1.00
O74    O     0.06704   0.28220   0.27994   0.00000  Uiso   1.00
O75    O     0.00796   0.26721   0.33058   0.00000  Uiso   1.00
O76    O     0.22774   0.12846   0.25000   0.00000  Uiso   1.00
O77    O     0.07428   0.22027   0.34063   0.00000  Uiso   1.00
O78    O     0.22774   0.20487   0.25001   0.00000  Uiso   1.00
O79    O     0.10559   0.12846   0.25000   0.00000  Uiso   1.00
O80    O     0.16666   0.20489   0.18453   0.00000  Uiso   1.00
O81    O     0.16667   0.12845   0.31547   0.00000  Uiso   1.00
O82    O     0.16667   0.20489   0.31547   0.00000  Uiso   1.00
O83    O     0.16666   0.12845   0.18453   0.00000  Uiso   1.00
O84    O     0.06383   0.07008   0.29819   0.00000  Uiso   1.00
S85    S     0.03416   0.06874   0.25967   0.00000  Uiso   1.00
S86    S     0.29827   0.26395   0.23308   0.00000  Uiso   1.00
S87    S     0.28933   0.08903   0.19085   0.00000  Uiso   1.00
S88    S     0.04244   0.24585   0.30473   0.00000  Uiso   1.00
Zn89   Zn    0.16667   0.21771   0.25000   0.00000  Uiso   1.00
Zn90   Zn    0.16667   0.11563   0.25000   0.00000  Uiso   1.00
C91    C     0.41973   0.16571   0.25459   0.00000  Uiso   1.00
C92    C     0.64775   0.20940   0.24998   0.00000  Uiso   1.00
C93    C     0.64480   0.12920   0.22927   0.00000  Uiso   1.00
C94    C     0.35443   0.20479   0.26680   0.00000  Uiso   1.00
C95    C     0.52565   0.20134   0.04586   0.00000  Uiso   1.00
C96    C     0.47629   0.14196   0.45441   0.00000  Uiso   1.00
C97    C     0.54262   0.18445   0.44979   0.00000  Uiso   1.00
C98    C     0.49820   0.12379   0.04653   0.00000  Uiso   1.00
C99    C     0.52080   0.20397   0.09169   0.00000  Uiso   1.00
C100   C     0.47324   0.14165   0.40857   0.00000  Uiso   1.00
C101   C     0.53816   0.18806   0.40396   0.00000  Uiso   1.00
C102   C     0.57998   0.16763   0.24455   0.00000  Uiso   1.00
C103   C     0.49115   0.12609   0.09186   0.00000  Uiso   1.00
C104   C     0.50320   0.16615   0.11517   0.00000  Uiso   1.00
C105   C     0.50355   0.16606   0.38347   0.00000  Uiso   1.00
C106   C     0.51347   0.16184   0.02325   0.00000  Uiso   1.00
C107   C     0.51134   0.16217   0.47505   0.00000  Uiso   1.00
C108   C     0.62481   0.16988   0.23755   0.00000  Uiso   1.00
C109   C     0.37450   0.16370   0.25952   0.00000  Uiso   1.00
C110   C     0.50935   0.28324   0.10516   0.00000  Uiso   1.00
C111   C     0.44346   0.06821   0.39030   0.00000  Uiso   1.00
C112   C     0.57456   0.25950   0.38788   0.00000  Uiso   1.00
C113   C     0.50028   0.16668   0.16361   0.00000  Uiso   1.00
C114   C     0.42528   0.09430   0.11809   0.00000  Uiso   1.00
C115   C     0.50036   0.16658   0.33592   0.00000  Uiso   1.00
C116   C     0.51700   0.02459   0.28455   0.00000  Uiso   1.00
C117   C     0.48259   0.30872   0.21578   0.00000  Uiso   1.00
C118   C     0.48331   0.02334   0.21539   0.00000  Uiso   1.00
C119   C     0.51706   0.30995   0.28447   0.00000  Uiso   1.00
C120   C     0.35148   0.12426   0.24607   0.00000  Uiso   1.00
H121   H     0.53081   0.04322   0.31206   0.00000  Uiso   1.00
H122   H     0.51281   0.29436   0.07000   0.00000  Uiso   1.00
H123   H     0.51988   0.31188   0.12678   0.00000  Uiso   1.00
H124   H     0.47580   0.27481   0.11220   0.00000  Uiso   1.00
H125   H     0.41068   0.12669   0.39960   0.00000  Uiso   1.00
H126   H     0.44600   0.05669   0.42535   0.00000  Uiso   1.00
H127   H     0.47154   0.05799   0.37140   0.00000  Uiso   1.00
H128   H     0.41534   0.05083   0.37594   0.00000  Uiso   1.00
H129   H     0.59760   0.19542   0.37786   0.00000  Uiso   1.00
H130   H     0.59001   0.26470   0.42056   0.00000  Uiso   1.00
H131   H     0.54367   0.27574   0.38831   0.00000  Uiso   1.00
H132   H     0.46777   0.29001   0.18901   0.00000  Uiso   1.00
H133   H     0.59443   0.27619   0.36189   0.00000  Uiso   1.00
H134   H     0.47653   0.05758   0.09956   0.00000  Uiso   1.00
H135   H     0.41059   0.09948   0.08512   0.00000  Uiso   1.00
H136   H     0.41911   0.12371   0.13995   0.00000  Uiso   1.00
H137   H     0.41069   0.06329   0.13331   0.00000  Uiso   1.00
H138   H     0.39778   0.01540   0.22431   0.00000  Uiso   1.00
H139   H     0.57859   0.28369   0.19366   0.00000  Uiso   1.00
H140   H     0.57743   0.03301   0.19514   0.00000  Uiso   1.00
H141   H     0.42198   0.24538   0.35704   0.00000  Uiso   1.00
H142   H     0.46987   0.04093   0.18777   0.00000  Uiso   1.00
H143   H     0.53081   0.29223   0.31184   0.00000  Uiso   1.00
H144   H     0.53752   0.23094   0.02781   0.00000  Uiso   1.00
H145   H     0.45122   0.12586   0.47376   0.00000  Uiso   1.00
H146   H     0.57018   0.19934   0.46565   0.00000  Uiso   1.00
H147   H     0.48929   0.09283   0.02902   0.00000  Uiso   1.00
H148   H     0.56596   0.25189   0.10830   0.00000  Uiso   1.00
N149   N     0.50000   0.28573   0.25000   0.00000  Uiso   1.00
N150   N     0.50000   0.04760   0.25000   0.00000  Uiso   1.00
N151   N     0.53459   0.24436   0.11379   0.00000  Uiso   1.00
N152   N     0.43948   0.11701   0.38806   0.00000  Uiso   1.00
N153   N     0.56945   0.21155   0.37814   0.00000  Uiso   1.00
N154   N     0.46987   0.08870   0.11309   0.00000  Uiso   1.00
O155   O     0.43892   0.20487   0.25000   0.00000  Uiso   1.00
O156   O     0.66337   0.03929   0.27237   0.00000  Uiso   1.00
O157   O     0.39117   0.04658   0.21529   0.00000  Uiso   1.00
O158   O     0.61039   0.28682   0.27121   0.00000  Uiso   1.00
O159   O     0.33558   0.29250   0.21833   0.00000  Uiso   1.00
O160   O     0.59851   0.25897   0.18989   0.00000  Uiso   1.00
O161   O     0.59388   0.11278   0.15975   0.00000  Uiso   1.00
O162   O     0.65657   0.06791   0.16395   0.00000  Uiso   1.00
O163   O     0.59522   0.04792   0.21809   0.00000  Uiso   1.00
O164   O     0.40037   0.28220   0.27994   0.00000  Uiso   1.00
O165   O     0.34130   0.26721   0.33058   0.00000  Uiso   1.00
O166   O     0.56108   0.12846   0.25000   0.00000  Uiso   1.00
O167   O     0.40762   0.22027   0.34063   0.00000  Uiso   1.00
O168   O     0.56108   0.20487   0.25001   0.00000  Uiso   1.00
O169   O     0.43892   0.12846   0.25000   0.00000  Uiso   1.00
O170   O     0.50000   0.20489   0.18453   0.00000  Uiso   1.00
O171   O     0.50000   0.12845   0.31547   0.00000  Uiso   1.00
O172   O     0.50000   0.20489   0.31547   0.00000  Uiso   1.00
O173   O     0.50000   0.12845   0.18453   0.00000  Uiso   1.00
O174   O     0.39716   0.07008   0.29819   0.00000  Uiso   1.00
S175   S     0.36750   0.06874   0.25967   0.00000  Uiso   1.00
S176   S     0.63160   0.26395   0.23308   0.00000  Uiso   1.00
S177   S     0.62266   0.08903   0.19085   0.00000  Uiso   1.00
S178   S     0.37577   0.24585   0.30473   0.00000  Uiso   1.00
Zn179  Zn    0.50000   0.21771   0.25000   0.00000  Uiso   1.00
Zn180  Zn    0.50000   0.11563   0.25000   0.00000  Uiso   1.00
C181   C     0.75307   0.16571   0.25459   0.00000  Uiso   1.00
C182   C     0.98108   0.20940   0.24998   0.00000  Uiso   1.00
C183   C     0.97814   0.12920   0.22927   0.00000  Uiso   1.00
C184   C     0.68776   0.20479   0.26680   0.00000  Uiso   1.00
C185   C     0.85899   0.20134   0.04586   0.00000  Uiso   1.00
C186   C     0.80962   0.14196   0.45441   0.00000  Uiso   1.00
C187   C     0.87595   0.18445   0.44979   0.00000  Uiso   1.00
C188   C     0.83153   0.12379   0.04653   0.00000  Uiso   1.00
C189   C     0.85413   0.20397   0.09169   0.00000  Uiso   1.00
C190   C     0.80657   0.14165   0.40857   0.00000  Uiso   1.00
C191   C     0.87149   0.18806   0.40396   0.00000  Uiso   1.00
C192   C     0.91331   0.16763   0.24455   0.00000  Uiso   1.00
C193   C     0.82449   0.12609   0.09186   0.00000  Uiso   1.00
C194   C     0.83654   0.16615   0.11517   0.00000  Uiso   1.00
C195   C     0.83688   0.16606   0.38347   0.00000  Uiso   1.00
C196   C     0.84680   0.16184   0.02325   0.00000  Uiso   1.00
C197   C     0.84468   0.16217   0.47505   0.00000  Uiso   1.00
C198   C     0.95814   0.16988   0.23755   0.00000  Uiso   1.00
C199   C     0.70783   0.16370   0.25952   0.00000  Uiso   1.00
C200   C     0.84268   0.28324   0.10516   0.00000  Uiso   1.00
C201   C     0.77679   0.06821   0.39030   0.00000  Uiso   1.00
C202   C     0.90789   0.25950   0.38788   0.00000  Uiso   1.00
C203   C     0.83361   0.16668   0.16361   0.00000  Uiso   1.00
C204   C     0.75861   0.09430   0.11809   0.00000  Uiso   1.00
C205   C     0.83370   0.16658   0.33592   0.00000  Uiso   1.00
C206   C     0.85034   0.02459   0.28455   0.00000  Uiso   1.00
C207   C     0.81592   0.30872   0.21578   0.00000  Uiso   1.00
C208   C     0.81664   0.02334   0.21539   0.00000  Uiso   1.00
C209   C     0.85040   0.30995   0.28447   0.00000  Uiso   1.00
C210   C     0.68481   0.12426   0.24607   0.00000  Uiso   1.00
H211   H     0.86415   0.04322   0.31206   0.00000  Uiso   1.00
H212   H     0.84614   0.29436   0.07000   0.00000  Uiso   1.00
H213   H     0.85321   0.31188   0.12678   0.00000  Uiso   1.00
H214   H     0.80913   0.27481   0.11220   0.00000  Uiso   1.00
H215   H     0.74401   0.12669   0.39960   0.00000  Uiso   1.00
H216   H     0.77933   0.05669   0.42535   0.00000  Uiso   1.00
H217   H     0.80487   0.05799   0.37140   0.00000  Uiso   1.00
H218   H     0.74868   0.05083   0.37594   0.00000  Uiso   1.00
H219   H     0.93093   0.19542   0.37786   0.00000  Uiso   1.00
H220   H     0.92335   0.26470   0.42056   0.00000  Uiso   1.00
H221   H     0.87700   0.27574   0.38831   0.00000  Uiso   1.00
H222   H     0.80110   0.29001   0.18901   0.00000  Uiso   1.00
H223   H     0.92777   0.27619   0.36189   0.00000  Uiso   1.00
H224   H     0.80986   0.05758   0.09956   0.00000  Uiso   1.00
H225   H     0.74393   0.09948   0.08512   0.00000  Uiso   1.00
H226   H     0.75244   0.12371   0.13995   0.00000  Uiso   1.00
H227   H     0.74403   0.06329   0.13331   0.00000  Uiso   1.00
H228   H     0.73112   0.01540   0.22431   0.00000  Uiso   1.00
H229   H     0.91192   0.28369   0.19366   0.00000  Uiso   1.00
H230   H     0.91076   0.03301   0.19514   0.00000  Uiso   1.00
H231   H     0.75531   0.24538   0.35704   0.00000  Uiso   1.00
H232   H     0.80320   0.04093   0.18777   0.00000  Uiso   1.00
H233   H     0.86415   0.29223   0.31184   0.00000  Uiso   1.00
H234   H     0.87086   0.23094   0.02781   0.00000  Uiso   1.00
H235   H     0.78456   0.12586   0.47376   0.00000  Uiso   1.00
H236   H     0.90352   0.19934   0.46565   0.00000  Uiso   1.00
H237   H     0.82263   0.09283   0.02902   0.00000  Uiso   1.00
H238   H     0.89930   0.25189   0.10830   0.00000  Uiso   1.00
N239   N     0.83333   0.28573   0.25000   0.00000  Uiso   1.00
N240   N     0.83333   0.04760   0.25000   0.00000  Uiso   1.00
N241   N     0.86793   0.24436   0.11379   0.00000  Uiso   1.00
N242   N     0.77282   0.11701   0.38806   0.00000  Uiso   1.00
N243   N     0.90278   0.21155   0.37814   0.00000  Uiso   1.00
N244   N     0.80320   0.08870   0.11309   0.00000  Uiso   1.00
O245   O     0.77226   0.20487   0.25000   0.00000  Uiso   1.00
O246   O     0.99670   0.03929   0.27237   0.00000  Uiso   1.00
O247   O     0.72450   0.04658   0.21529   0.00000  Uiso   1.00
O248   O     0.94372   0.28682   0.27121   0.00000  Uiso   1.00
O249   O     0.66891   0.29250   0.21833   0.00000  Uiso   1.00
O250   O     0.93184   0.25897   0.18989   0.00000  Uiso   1.00
O251   O     0.92721   0.11278   0.15975   0.00000  Uiso   1.00
O252   O     0.98990   0.06791   0.16395   0.00000  Uiso   1.00
O253   O     0.92855   0.04792   0.21809   0.00000  Uiso   1.00
O254   O     0.73370   0.28220   0.27994   0.00000  Uiso   1.00
O255   O     0.67463   0.26721   0.33058   0.00000  Uiso   1.00
O256   O     0.89441   0.12846   0.25000   0.00000  Uiso   1.00
O257   O     0.74095   0.22027   0.34063   0.00000  Uiso   1.00
O258   O     0.89441   0.20487   0.25001   0.00000  Uiso   1.00
O259   O     0.77226   0.12846   0.25000   0.00000  Uiso   1.00
O260   O     0.83333   0.20489   0.18453   0.00000  Uiso   1.00
O261   O     0.83334   0.12845   0.31547   0.00000  Uiso   1.00
O262   O     0.83334   0.20489   0.31547   0.00000  Uiso   1.00
O263   O     0.83333   0.12845   0.18453   0.00000  Uiso   1.00
O264   O     0.73049   0.07008   0.29819   0.00000  Uiso   1.00
S265   S     0.70083   0.06874   0.25967   0.00000  Uiso   1.00
S266   S     0.96493   0.26395   0.23308   0.00000  Uiso   1.00
S267   S     0.95600   0.08903   0.19085   0.00000  Uiso   1.00
S268   S     0.70910   0.24585   0.30473   0.00000  Uiso   1.00
Zn269  Zn    0.83333   0.21771   0.25000   0.00000  Uiso   1.00
Zn270  Zn    0.83333   0.11563   0.25000   0.00000  Uiso   1.00
C271   C     0.08640   0.49905   0.25459   0.00000  Uiso   1.00
C272   C     0.31441   0.54274   0.24998   0.00000  Uiso   1.00
C273   C     0.31147   0.46254   0.22927   0.00000  Uiso   1.00
C274   C     0.02110   0.53812   0.26680   0.00000  Uiso   1.00
C275   C     0.19232   0.53467   0.04586   0.00000  Uiso   1.00
C276   C     0.14295   0.47530   0.45441   0.00000  Uiso   1.00
C277   C     0.20929   0.51778   0.44979   0.00000  Uiso   1.00
C278   C     0.16487   0.45712   0.04653   0.00000  Uiso   1.00
C279   C     0.18747   0.53730   0.09169   0.00000  Uiso   1.00
C280   C     0.13991   0.47499   0.40857   0.00000  Uiso   1.00
C281   C     0.20483   0.52139   0.40396   0.00000  Uiso   1.00
C282   C     0.24664   0.50096   0.24455   0.00000  Uiso   1.00
C283   C     0.15782   0.45943   0.09186   0.00000  Uiso   1.00
C284   C     0.16987   0.49948   0.11517   0.00000  Uiso   1.00
C285   C     0.17022   0.49940   0.38347   0.00000  Uiso   1.00
C286   C     0.18014   0.49518   0.02325   0.00000  Uiso   1.00
C287   C     0.17801   0.49550   0.47505   0.00000  Uiso   1.00
C288   C     0.29147   0.50322   0.23755   0.00000  Uiso   1.00
C289   C     0.04117   0.49704   0.25952   0.00000  Uiso   1.00
C290   C     0.17601   0.61658   0.10516   0.00000  Uiso   1.00
C291   C     0.11013   0.40154   0.39030   0.00000  Uiso   1.00
C292   C     0.24122   0.59283   0.38788   0.00000  Uiso   1.00
C293   C     0.16694   0.50001   0.16361   0.00000  Uiso   1.00
C294   C     0.09194   0.42763   0.11809   0.00000  Uiso   1.00
C295   C     0.16703   0.49991   0.33592   0.00000  Uiso   1.00
C296   C     0.18367   0.35792   0.28455   0.00000  Uiso   1.00
C297   C     0.14926   0.64205   0.21578   0.00000  Uiso   1.00
C298   C     0.14997   0.35668   0.21539   0.00000  Uiso   1.00
C299   C     0.18373   0.64328   0.28447   0.00000  Uiso   1.00
C300   C     0.01814   0.45760   0.24607   0.00000  Uiso   1.00
H301   H     0.19748   0.37655   0.31206   0.00000  Uiso   1.00
H302   H     0.17947   0.62769   0.07000   0.00000  Uiso   1.00
H303   H     0.18654   0.64521   0.12678   0.00000  Uiso   1.00
H304   H     0.14247   0.60814   0.11220   0.00000  Uiso   1.00
H305   H     0.07735   0.46003   0.39960   0.00000  Uiso   1.00
H306   H     0.11266   0.39002   0.42535   0.00000  Uiso   1.00
H307   H     0.13821   0.39132   0.37140   0.00000  Uiso   1.00
H308   H     0.08201   0.38416   0.37594   0.00000  Uiso   1.00
H309   H     0.26426   0.52876   0.37786   0.00000  Uiso   1.00
H310   H     0.25668   0.59803   0.42056   0.00000  Uiso   1.00
H311   H     0.21034   0.60907   0.38831   0.00000  Uiso   1.00
H312   H     0.13443   0.62334   0.18901   0.00000  Uiso   1.00
H313   H     0.26110   0.60952   0.36189   0.00000  Uiso   1.00
H314   H     0.14320   0.39092   0.09956   0.00000  Uiso   1.00
H315   H     0.07726   0.43281   0.08512   0.00000  Uiso   1.00
H316   H     0.08578   0.45704   0.13995   0.00000  Uiso   1.00
H317   H     0.07736   0.39662   0.13331   0.00000  Uiso   1.00
H318   H     0.06445   0.34873   0.22431   0.00000  Uiso   1.00
H319   H     0.24526   0.61702   0.19366   0.00000  Uiso   1.00
H320   H     0.24409   0.36635   0.19514   0.00000  Uiso   1.00
H321   H     0.08865   0.57871   0.35704   0.00000  Uiso   1.00
H322   H     0.13653   0.37426   0.18777   0.00000  Uiso   1.00
H323   H     0.19748   0.62557   0.31184   0.00000  Uiso   1.00
H324   H     0.20419   0.56427   0.02781   0.00000  Uiso   1.00
H325   H     0.11789   0.45919   0.47376   0.00000  Uiso   1.00
H326   H     0.23685   0.53268   0.46565   0.00000  Uiso   1.00
H327   H     0.15596   0.42616   0.02902   0.00000  Uiso   1.00
H328   H     0.23263   0.58523   0.10830   0.00000  Uiso   1.00
N329   N     0.16667   0.61907   0.25000   0.00000  Uiso   1.00
N330   N     0.16667   0.38093   0.25000   0.00000  Uiso   1.00
N331   N     0.20126   0.57770   0.11379   0.00000  Uiso   1.00
N332   N     0.10615   0.45034   0.38806   0.00000  Uiso   1.00
N333   N     0.23612   0.54488   0.37814   0.00000  Uiso   1.00
N334   N     0.13653   0.42204   0.11309   0.00000  Uiso   1.00
O335   O     0.10559   0.53821   0.25000   0.00000  Uiso   1.00
O336   O     0.33003   0.37263   0.27237   0.00000  Uiso   1.00
O337   O     0.05784   0.37991   0.21529   0.00000  Uiso   1.00
O338   O     0.27706   0.62015   0.27121   0.00000  Uiso   1.00
O339   O     0.00224   0.62583   0.21833   0.00000  Uiso   1.00
O340   O     0.26518   0.59231   0.18989   0.00000  Uiso   1.00
O341   O     0.26055   0.44612   0.15975   0.00000  Uiso   1.00
O342   O     0.32323   0.40124   0.16395   0.00000  Uiso   1.00
O343   O     0.26189   0.38125   0.21809   0.00000  Uiso   1.00
O344   O     0.06704   0.61554   0.27994   0.00000  Uiso   1.00
O345   O     0.00796   0.60055   0.33058   0.00000  Uiso   1.00
O346   O     0.22774   0.46179   0.25000   0.00000  Uiso   1.00
O347   O     0.07428   0.55360   0.34063   0.00000  Uiso   1.00
O348   O     0.22774   0.53821   0.25001   0.00000  Uiso   1.00
O349   O     0.10559   0.46179   0.25000   0.00000  Uiso   1.00
O350   O     0.16666   0.53822   0.18453   0.00000  Uiso   1.00
O351   O     0.16667   0.46178   0.31547   0.00000  Uiso   1.00
O352   O     0.16667   0.53822   0.31547   0.00000  Uiso   1.00
O353   O     0.16666   0.46178   0.18453   0.00000  Uiso   1.00
O354   O     0.06383   0.40342   0.29819   0.00000  Uiso   1.00
S355   S     0.03416   0.40207   0.25967   0.00000  Uiso   1.00
S356   S     0.29827   0.59729   0.23308   0.00000  Uiso   1.00
S357   S     0.28933   0.42236   0.19085   0.00000  Uiso   1.00
S358   S     0.04244   0.57918   0.30473   0.00000  Uiso   1.00
Zn359  Zn    0.16667   0.55104   0.25000   0.00000  Uiso   1.00
Zn360  Zn    0.16667   0.44896   0.25000   0.00000  Uiso   1.00
C361   C     0.41973   0.49905   0.25459   0.00000  Uiso   1.00
C362   C     0.64775   0.54274   0.24998   0.00000  Uiso   1.00
C363   C     0.64480   0.46254   0.22927   0.00000  Uiso   1.00
C364   C     0.35443   0.53812   0.26680   0.00000  Uiso   1.00
C365   C     0.52565   0.53467   0.04586   0.00000  Uiso   1.00
C366   C     0.47629   0.47530   0.45441   0.00000  Uiso   1.00
C367   C     0.54262   0.51778   0.44979   0.00000  Uiso   1.00
C368   C     0.49820   0.45712   0.04653   0.00000  Uiso   1.00
C369   C     0.52080   0.53730   0.09169   0.00000  Uiso   1.00
C370   C     0.47324   0.47499   0.40857   0.00000  Uiso   1.00
C371   C     0.53816   0.52139   0.40396   0.00000  Uiso   1.00
C372   C     0.57998   0.50096   0.24455   0.00000  Uiso   1.00
C373   C     0.49115   0.45943   0.09186   0.00000  Uiso   1.00
C374   C     0.50320   0.49948   0.11517   0.00000  Uiso   1.00
C375   C     0.50355   0.49940   0.38347   0.00000  Uiso   1.00
C376   C     0.51347   0.49518   0.02325   0.00000  Uiso   1.00
C377   C     0.51134   0.49550   0.47505   0.00000  Uiso   1.00
C378   C     0.62481   0.50322   0.23755   0.00000  Uiso   1.00
C379   C     0.37450   0.49704   0.25952   0.00000  Uiso   1.00
C380   C     0.50935   0.61658   0.10516   0.00000  Uiso   1.00
C381   C     0.44346   0.40154   0.39030   0.00000  Uiso   1.00
C382   C     0.57456   0.59283   0.38788   0.00000  Uiso   1.00
C383   C     0.50028   0.50001   0.16361   0.00000  Uiso   1.00
C384   C     0.42528   0.42763   0.11809   0.00000  Uiso   1.00
C385   C     0.50036   0.49991   0.33592   0.00000  Uiso   1.00
C386   C     0.51700   0.35792   0.28455   0.00000  Uiso   1.00
C387   C     0.48259   0.64205   0.21578   0.00000  Uiso   1.00
C388   C     0.48331   0.35668   0.21539   0.00000  Uiso   1.00
C389   C     0.51706   0.64328   0.28447   0.00000  Uiso   1.00
C390   C     0.35148   0.45760   0.24607   0.00000  Uiso   1.00
H391   H     0.53081   0.37655   0.31206   0.00000  Uiso   1.00
H392   H     0.51281   0.62769   0.07000   0.00000  Uiso   1.00
H393   H     0.51988   0.64521   0.12678   0.00000  Uiso   1.00
H394   H     0.47580   0.60814   0.11220   0.00000  Uiso   1.00
H395   H     0.41068   0.46003   0.39960   0.00000  Uiso   1.00
H396   H     0.44600   0.39002   0.42535   0.00000  Uiso   1.00
H397   H     0.47154   0.39132   0.37140   0.00000  Uiso   1.00
H398   H     0.41534   0.38416   0.37594   0.00000  Uiso   1.00
H399   H     0.59760   0.52876   0.37786   0.00000  Uiso   1.00
H400   H     0.59001   0.59803   0.42056   0.00000  Uiso   1.00
H401   H     0.54367   0.60907   0.38831   0.00000  Uiso   1.00
H402   H     0.46777   0.62334   0.18901   0.00000  Uiso   1.00
H403   H     0.59443   0.60952   0.36189   0.00000  Uiso   1.00
H404   H     0.47653   0.39092   0.09956   0.00000  Uiso   1.00
H405   H     0.41059   0.43281   0.08512   0.00000  Uiso   1.00
H406   H     0.41911   0.45704   0.13995   0.00000  Uiso   1.00
H407   H     0.41069   0.39662   0.13331   0.00000  Uiso   1.00
H408   H     0.39778   0.34873   0.22431   0.00000  Uiso   1.00
H409   H     0.57859   0.61702   0.19366   0.00000  Uiso   1.00
H410   H     0.57743   0.36635   0.19514   0.00000  Uiso   1.00
H411   H     0.42198   0.57871   0.35704   0.00000  Uiso   1.00
H412   H     0.46987   0.37426   0.18777   0.00000  Uiso   1.00
H413   H     0.53081   0.62557   0.31184   0.00000  Uiso   1.00
H414   H     0.53752   0.56427   0.02781   0.00000  Uiso   1.00
H415   H     0.45122   0.45919   0.47376   0.00000  Uiso   1.00
H416   H     0.57018   0.53268   0.46565   0.00000  Uiso   1.00
H417   H     0.48929   0.42616   0.02902   0.00000  Uiso   1.00
H418   H     0.56596   0.58523   0.10830   0.00000  Uiso   1.00
N419   N     0.50000   0.61907   0.25000   0.00000  Uiso   1.00
N420   N     0.50000   0.38093   0.25000   0.00000  Uiso   1.00
N421   N     0.53459   0.57770   0.11379   0.00000  Uiso   1.00
N422   N     0.43948   0.45034   0.38806   0.00000  Uiso   1.00
N423   N     0.56945   0.54488   0.37814   0.00000  Uiso   1.00
N424   N     0.46987   0.42204   0.11309   0.00000  Uiso   1.00
O425   O     0.43892   0.53821   0.25000   0.00000  Uiso   1.00
O426   O     0.66337   0.37263   0.27237   0.00000  Uiso   1.00
O427   O     0.39117   0.37991   0.21529   0.00000  Uiso   1.00
O428   O     0.61039   0.62015   0.27121   0.00000  Uiso   1.00
O429   O     0.33558   0.62583   0.21833   0.00000  Uiso   1.00
O430   O     0.59851   0.59231   0.18989   0.00000  Uiso   1.00
O431   O     0.59388   0.44612   0.15975   0.00000  Uiso   1.00
O432   O     0.65657   0.40124   0.16395   0.00000  Uiso   1.00
O433   O     0.59522   0.38125   0.21809   0.00000  Uiso   1.00
O434   O     0.40037   0.61554   0.27994   0.00000  Uiso   1.00
O435   O     0.34130   0.60055   0.33058   0.00000  Uiso   1.00
O436   O     0.56108   0.46179   0.25000   0.00000  Uiso   1.00
O437   O     0.40762   0.55360   0.34063   0.00000  Uiso   1.00
O438   O     0.56108   0.53821   0.25001   0.00000  Uiso   1.00
O439   O     0.43892   0.46179   0.25000   0.00000  Uiso   1.00
O440   O     0.50000   0.53822   0.18453   0.00000  Uiso   1.00
O441   O     0.50000   0.46178   0.31547   0.00000  Uiso   1.00
O442   O     0.50000   0.53822   0.31547   0.00000  Uiso   1.00
O443   O     0.50000   0.46178   0.18453   0.00000  Uiso   1.00
O444   O     0.39716   0.40342   0.29819   0.00000  Uiso   1.00
S445   S     0.36750   0.40207   0.25967   0.00000  Uiso   1.00
S446   S     0.63160   0.59729   0.23308   0.00000  Uiso   1.00
S447   S     0.62266   0.42236   0.19085   0.00000  Uiso   1.00
S448   S     0.37577   0.57918   0.30473   0.00000  Uiso   1.00
Zn449  Zn    0.50000   0.55104   0.25000   0.00000  Uiso   1.00
Zn450  Zn    0.50000   0.44896   0.25000   0.00000  Uiso   1.00
C451   C     0.75307   0.49905   0.25459   0.00000  Uiso   1.00
C452   C     0.98108   0.54274   0.24998   0.00000  Uiso   1.00
C453   C     0.97814   0.46254   0.22927   0.00000  Uiso   1.00
C454   C     0.68776   0.53812   0.26680   0.00000  Uiso   1.00
C455   C     0.85899   0.53467   0.04586   0.00000  Uiso   1.00
C456   C     0.80962   0.47530   0.45441   0.00000  Uiso   1.00
C457   C     0.87595   0.51778   0.44979   0.00000  Uiso   1.00
C458   C     0.83153   0.45712   0.04653   0.00000  Uiso   1.00
C459   C     0.85413   0.53730   0.09169   0.00000  Uiso   1.00
C460   C     0.80657   0.47499   0.40857   0.00000  Uiso   1.00
C461   C     0.87149   0.52139   0.40396   0.00000  Uiso   1.00
C462   C     0.91331   0.50096   0.24455   0.00000  Uiso   1.00
C463   C     0.82449   0.45943   0.09186   0.00000  Uiso   1.00
C464   C     0.83654   0.49948   0.11517   0.00000  Uiso   1.00
C465   C     0.83688   0.49940   0.38347   0.00000  Uiso   1.00
C466   C     0.84680   0.49518   0.02325   0.00000  Uiso   1.00
C467   C     0.84468   0.49550   0.47505   0.00000  Uiso   1.00
C468   C     0.95814   0.50322   0.23755   0.00000  Uiso   1.00
C469   C     0.70783   0.49704   0.25952   0.00000  Uiso   1.00
C470   C     0.84268   0.61658   0.10516   0.00000  Uiso   1.00
C471   C     0.77679   0.40154   0.39030   0.00000  Uiso   1.00
C472   C     0.90789   0.59283   0.38788   0.00000  Uiso   1.00
C473   C     0.83361   0.50001   0.16361   0.00000  Uiso   1.00
C474   C     0.75861   0.42763   0.11809   0.00000  Uiso   1.00
C475   C     0.83370   0.49991   0.33592   0.00000  Uiso   1.00
C476   C     0.85034   0.35792   0.28455   0.00000  Uiso   1.00
C477   C     0.81592   0.64205   0.21578   0.00000  Uiso   1.00
C478   C     0.81664   0.35668   0.21539   0.00000  Uiso   1.00
C479   C     0.85040   0.64328   0.28447   0.00000  Uiso   1.00
C480   C     0.68481   0.45760   0.24607   0.00000  Uiso   1.00
H481   H     0.86415   0.37655   0.31206   0.00000  Uiso   1.00
H482   H     0.84614   0.62769   0.07000   0.00000  Uiso   1.00
H483   H     0.85321   0.64521   0.12678   0.00000  Uiso   1.00
H484   H     0.80913   0.60814   0.11220   0.00000  Uiso   1.00
H485   H     0.74401   0.46003   0.39960   0.00000  Uiso   1.00
H486   H     0.77933   0.39002   0.42535   0.00000  Uiso   1.00
H487   H     0.80487   0.39132   0.37140   0.00000  Uiso   1.00
H488   H     0.74868   0.38416   0.37594   0.00000  Uiso   1.00
H489   H     0.93093   0.52876   0.37786   0.00000  Uiso   1.00
H490   H     0.92335   0.59803   0.42056   0.00000  Uiso   1.00
H491   H     0.87700   0.60907   0.38831   0.00000  Uiso   1.00
H492   H     0.80110   0.62334   0.18901   0.00000  Uiso   1.00
H493   H     0.92777   0.60952   0.36189   0.00000  Uiso   1.00
H494   H     0.80986   0.39092   0.09956   0.00000  Uiso   1.00
H495   H     0.74393   0.43281   0.08512   0.00000  Uiso   1.00
H496   H     0.75244   0.45704   0.13995   0.00000  Uiso   1.00
H497   H     0.74403   0.39662   0.13331   0.00000  Uiso   1.00
H498   H     0.73112   0.34873   0.22431   0.00000  Uiso   1.00
H499   H     0.91192   0.61702   0.19366   0.00000  Uiso   1.00
H500   H     0.91076   0.36635   0.19514   0.00000  Uiso   1.00
H501   H     0.75531   0.57871   0.35704   0.00000  Uiso   1.00
H502   H     0.80320   0.37426   0.18777   0.00000  Uiso   1.00
H503   H     0.86415   0.62557   0.31184   0.00000  Uiso   1.00
H504   H     0.87086   0.56427   0.02781   0.00000  Uiso   1.00
H505   H     0.78456   0.45919   0.47376   0.00000  Uiso   1.00
H506   H     0.90352   0.53268   0.46565   0.00000  Uiso   1.00
H507   H     0.82263   0.42616   0.02902   0.00000  Uiso   1.00
H508   H     0.89930   0.58523   0.10830   0.00000  Uiso   1.00
N509   N     0.83333   0.61907   0.25000   0.00000  Uiso   1.00
N510   N     0.83333   0.38093   0.25000   0.00000  Uiso   1.00
N511   N     0.86793   0.57770   0.11379   0.00000  Uiso   1.00
N512   N     0.77282   0.45034   0.38806   0.00000  Uiso   1.00
N513   N     0.90278   0.54488   0.37814   0.00000  Uiso   1.00
N514   N     0.80320   0.42204   0.11309   0.00000  Uiso   1.00
O515   O     0.77226   0.53821   0.25000   0.00000  Uiso   1.00
O516   O     0.99670   0.37263   0.27237   0.00000  Uiso   1.00
O517   O     0.72450   0.37991   0.21529   0.00000  Uiso   1.00
O518   O     0.94372   0.62015   0.27121   0.00000  Uiso   1.00
O519   O     0.66891   0.62583   0.21833   0.00000  Uiso   1.00
O520   O     0.93184   0.59231   0.18989   0.00000  Uiso   1.00
O521   O     0.92721   0.44612   0.15975   0.00000  Uiso   1.00
O522   O     0.98990   0.40124   0.16395   0.00000  Uiso   1.00
O523   O     0.92855   0.38125   0.21809   0.00000  Uiso   1.00
O524   O     0.73370   0.61554   0.27994   0.00000  Uiso   1.00
O525   O     0.67463   0.60055   0.33058   0.00000  Uiso   1.00
O526   O     0.89441   0.46179   0.25000   0.00000  Uiso   1.00
O527   O     0.74095   0.55360   0.34063   0.00000  Uiso   1.00
O528   O     0.89441   0.53821   0.25001   0.00000  Uiso   1.00
O529   O     0.77226   0.46179   0.25000   0.00000  Uiso   1.00
O530   O     0.83333   0.53822   0.18453   0.00000  Uiso   1.00
O531   O     0.83334   0.46178   0.31547   0.00000  Uiso   1.00
O532   O     0.83334   0.53822   0.31547   0.00000  Uiso   1.00
O533   O     0.83333   0.46178   0.18453   0.00000  Uiso   1.00
O534   O     0.73049   0.40342   0.29819   0.00000  Uiso   1.00
S535   S     0.70083   0.40207   0.25967   0.00000  Uiso   1.00
S536   S     0.96493   0.59729   0.23308   0.00000  Uiso   1.00
S537   S     0.95600   0.42236   0.19085   0.00000  Uiso   1.00
S538   S     0.70910   0.57918   0.30473   0.00000  Uiso   1.00
Zn539  Zn    0.83333   0.55104   0.25000   0.00000  Uiso   1.00
Zn540  Zn    0.83333   0.44896   0.25000   0.00000  Uiso   1.00
C541   C     0.08640   0.83238   0.25459   0.00000  Uiso   1.00
C542   C     0.31441   0.87607   0.24998   0.00000  Uiso   1.00
C543   C     0.31147   0.79587   0.22927   0.00000  Uiso   1.00
C544   C     0.02110   0.87146   0.26680   0.00000  Uiso   1.00
C545   C     0.19232   0.86800   0.04586   0.00000  Uiso   1.00
C546   C     0.14295   0.80863   0.45441   0.00000  Uiso   1.00
C547   C     0.20929   0.85112   0.44979   0.00000  Uiso   1.00
C548   C     0.16487   0.79046   0.04653   0.00000  Uiso   1.00
C549   C     0.18747   0.87063   0.09169   0.00000  Uiso   1.00
C550   C     0.13991   0.80832   0.40857   0.00000  Uiso   1.00
C551   C     0.20483   0.85473   0.40396   0.00000  Uiso   1.00
C552   C     0.24664   0.83430   0.24455   0.00000  Uiso   1.00
C553   C     0.15782   0.79276   0.09186   0.00000  Uiso   1.00
C554   C     0.16987   0.83281   0.11517   0.00000  Uiso   1.00
C555   C     0.17022   0.83273   0.38347   0.00000  Uiso   1.00
C556   C     0.18014   0.82851   0.02325   0.00000  Uiso   1.00
C557   C     0.17801   0.82883   0.47505   0.00000  Uiso   1.00
C558   C     0.29147   0.83655   0.23755   0.00000  Uiso   1.00
C559   C     0.04117   0.83037   0.25952   0.00000  Uiso   1.00
C560   C     0.17601   0.94991   0.10516   0.00000  Uiso   1.00
C561   C     0.11013   0.73487   0.39030   0.00000  Uiso   1.00
C562   C     0.24122   0.92616   0.38788   0.00000  Uiso   1.00
C563   C     0.16694   0.83335   0.16361   0.00000  Uiso   1.00
C564   C     0.09194   0.76097   0.11809   0.00000  Uiso   1.00
C565   C     0.16703   0.83324   0.33592   0.00000  Uiso   1.00
C566   C     0.18367   0.69126   0.28455   0.00000  Uiso   1.00
C567   C     0.14926   0.97539   0.21578   0.00000  Uiso   1.00
C568   C     0.14997   0.69001   0.21539   0.00000  Uiso   1.00
C569   C     0.18373   0.97661   0.28447   0.00000  Uiso   1.00
C570   C     0.01814   0.79093   0.24607   0.00000  Uiso   1.00
H571   H     0.19748   0.70988   0.31206   0.00000  Uiso   1.00
H572   H     0.17947   0.96103   0.07000   0.00000  Uiso   1.00
H573   H     0.18654   0.97854   0.12678   0.00000  Uiso   1.00
H574   H     0.14247   0.94147   0.11220   0.00000  Uiso   1.00
H575   H     0.07735   0.79336   0.39960   0.00000  Uiso   1.00
H576   H     0.11266   0.72336   0.42535   0.00000  Uiso   1.00
H577   H     0.13821   0.72465   0.37140   0.00000  Uiso   1.00
H578   H     0.08201   0.71750   0.37594   0.00000  Uiso   1.00
H579   H     0.26426   0.86209   0.37786   0.00000  Uiso   1.00
H580   H     0.25668   0.93137   0.42056   0.00000  Uiso   1.00
H581   H     0.21034   0.94241   0.38831   0.00000  Uiso   1.00
H582   H     0.13443   0.95668   0.18901   0.00000  Uiso   1.00
H583   H     0.26110   0.94286   0.36189   0.00000  Uiso   1.00
H584   H     0.14320   0.72425   0.09956   0.00000  Uiso   1.00
H585   H     0.07726   0.76615   0.08512   0.00000  Uiso   1.00
H586   H     0.08578   0.79037   0.13995   0.00000  Uiso   1.00
H587   H     0.07736   0.72995   0.13331   0.00000  Uiso   1.00
H588   H     0.06445   0.68207   0.22431   0.00000  Uiso   1.00
H589   H     0.24526   0.95036   0.19366   0.00000  Uiso   1.00
H590   H     0.24409   0.69968   0.19514   0.00000  Uiso   1.00
H591   H     0.08865   0.91204   0.35704   0.00000  Uiso   1.00
H592   H     0.13653   0.70759   0.18777   0.00000  Uiso   1.00
H593   H     0.19748   0.95890   0.31184   0.00000  Uiso   1.00
H594   H     0.20419   0.89760   0.02781   0.00000  Uiso   1.00
H595   H     0.11789   0.79252   0.47376   0.00000  Uiso   1.00
H596   H     0.23685   0.86601   0.46565   0.00000  Uiso   1.00
H597   H     0.15596   0.75950   0.02902   0.00000  Uiso   1.00
H598   H     0.23263   0.91856   0.10830   0.00000  Uiso   1.00
N599   N     0.16667   0.95240   0.25000   0.00000  Uiso   1.00
N600   N     0.16667   0.71427   0.25000   0.00000  Uiso   1.00
N601   N     0.20126   0.91103   0.11379   0.00000  Uiso   1.00
N602   N     0.10615   0.78368   0.38806   0.00000  Uiso   1.00
N603   N     0.23612   0.87821   0.37814   0.00000  Uiso   1.00
N604   N     0.13653   0.75537   0.11309   0.00000  Uiso   1.00
O605   O     0.10559   0.87154   0.25000   0.00000  Uiso   1.00
O606   O     0.33003   0.70596   0.27237   0.00000  Uiso   1.00
O607   O     0.05784   0.71325   0.21529   0.00000  Uiso   1.00
O608   O     0.27706   0.95349   0.27121   0.00000  Uiso   1.00
O609   O     0.00224   0.95917   0.21833   0.00000  Uiso   1.00
O610   O     0.26518   0.92564   0.18989   0.00000  Uiso   1.00
O611   O     0.26055   0.77945   0.15975   0.00000  Uiso   1.00
O612   O     0.32323   0.73458   0.16395   0.00000  Uiso   1.00
O613   O     0.26189   0.71459   0.21809   0.00000  Uiso   1.00
O614   O     0.06704   0.94887   0.27994   0.00000  Uiso   1.00
O615   O     0.00796   0.93388   0.33058   0.00000  Uiso   1.00
O616   O     0.22774   0.79513   0.25000   0.00000  Uiso   1.00
O617   O     0.07428   0.88694   0.34063   0.00000  Uiso   1.00
O618   O     0.22774   0.87154   0.25001   0.00000  Uiso   1.00
O619   O     0.10559   0.79513   0.25000   0.00000  Uiso   1.00
O620   O     0.16666   0.87155   0.18453   0.00000  Uiso   1.00
O621   O     0.16667   0.79511   0.31547   0.00000  Uiso   1.00
O622   O     0.16667   0.87155   0.31547   0.00000  Uiso   1.00
O623   O     0.16666   0.79511   0.18453   0.00000  Uiso   1.00
O624   O     0.06383   0.73675   0.29819   0.00000  Uiso   1.00
S625   S     0.03416   0.73541   0.25967   0.00000  Uiso   1.00
S626   S     0.29827   0.93062   0.23308   0.00000  Uiso   1.00
S627   S     0.28933   0.75569   0.19085   0.00000  Uiso   1.00
S628   S     0.04244   0.91251   0.30473   0.00000  Uiso   1.00
Zn629  Zn    0.16667   0.88437   0.25000   0.00000  Uiso   1.00
Zn630  Zn    0.16667   0.78229   0.25000   0.00000  Uiso   1.00
C631   C     0.41973   0.83238   0.25459   0.00000  Uiso   1.00
C632   C     0.64775   0.87607   0.24998   0.00000  Uiso   1.00
C633   C     0.64480   0.79587   0.22927   0.00000  Uiso   1.00
C634   C     0.35443   0.87146   0.26680   0.00000  Uiso   1.00
C635   C     0.52565   0.86800   0.04586   0.00000  Uiso   1.00
C636   C     0.47629   0.80863   0.45441   0.00000  Uiso   1.00
C637   C     0.54262   0.85112   0.44979   0.00000  Uiso   1.00
C638   C     0.49820   0.79046   0.04653   0.00000  Uiso   1.00
C639   C     0.52080   0.87063   0.09169   0.00000  Uiso   1.00
C640   C     0.47324   0.80832   0.40857   0.00000  Uiso   1.00
C641   C     0.53816   0.85473   0.40396   0.00000  Uiso   1.00
C642   C     0.57998   0.83430   0.24455   0.00000  Uiso   1.00
C643   C     0.49115   0.79276   0.09186   0.00000  Uiso   1.00
C644   C     0.50320   0.83281   0.11517   0.00000  Uiso   1.00
C645   C     0.50355   0.83273   0.38347   0.00000  Uiso   1.00
C646   C     0.51347   0.82851   0.02325   0.00000  Uiso   1.00
C647   C     0.51134   0.82883   0.47505   0.00000  Uiso   1.00
C648   C     0.62481   0.83655   0.23755   0.00000  Uiso   1.00
C649   C     0.37450   0.83037   0.25952   0.00000  Uiso   1.00
C650   C     0.50935   0.94991   0.10516   0.00000  Uiso   1.00
C651   C     0.44346   0.73487   0.39030   0.00000  Uiso   1.00
C652   C     0.57456   0.92616   0.38788   0.00000  Uiso   1.00
C653   C     0.50028   0.83335   0.16361   0.00000  Uiso   1.00
C654   C     0.42528   0.76097   0.11809   0.00000  Uiso   1.00
C655   C     0.50036   0.83324   0.33592   0.00000  Uiso   1.00
C656   C     0.51700   0.69126   0.28455   0.00000  Uiso   1.00
C657   C     0.48259   0.97539   0.21578   0.00000  Uiso   1.00
C658   C     0.48331   0.69001   0.21539   0.00000  Uiso   1.00
C659   C     0.51706   0.97661   0.28447   0.00000  Uiso   1.00
C660   C     0.35148   0.79093   0.24607   0.00000  Uiso   1.00
H661   H     0.53081   0.70988   0.31206   0.00000  Uiso   1.00
H662   H     0.51281   0.96103   0.07000   0.00000  Uiso   1.00
H663   H     0.51988   0.97854   0.12678   0.00000  Uiso   1.00
H664   H     0.47580   0.94147   0.11220   0.00000  Uiso   1.00
H665   H     0.41068   0.79336   0.39960   0.00000  Uiso   1.00
H666   H     0.44600   0.72336   0.42535   0.00000  Uiso   1.00
H667   H     0.47154   0.72465   0.37140   0.00000  Uiso   1.00
H668   H     0.41534   0.71750   0.37594   0.00000  Uiso   1.00
H669   H     0.59760   0.86209   0.37786   0.00000  Uiso   1.00
H670   H     0.59001   0.93137   0.42056   0.00000  Uiso   1.00
H671   H     0.54367   0.94241   0.38831   0.00000  Uiso   1.00
H672   H     0.46777   0.95668   0.18901   0.00000  Uiso   1.00
H673   H     0.59443   0.94286   0.36189   0.00000  Uiso   1.00
H674   H     0.47653   0.72425   0.09956   0.00000  Uiso   1.00
H675   H     0.41059   0.76615   0.08512   0.00000  Uiso   1.00
H676   H     0.41911   0.79037   0.13995   0.00000  Uiso   1.00
H677   H     0.41069   0.72995   0.13331   0.00000  Uiso   1.00
H678   H     0.39778   0.68207   0.22431   0.00000  Uiso   1.00
H679   H     0.57859   0.95036   0.19366   0.00000  Uiso   1.00
H680   H     0.57743   0.69968   0.19514   0.00000  Uiso   1.00
H681   H     0.42198   0.91204   0.35704   0.00000  Uiso   1.00
H682   H     0.46987   0.70759   0.18777   0.00000  Uiso   1.00
H683   H     0.53081   0.95890   0.31184   0.00000  Uiso   1.00
H684   H     0.53752   0.89760   0.02781   0.00000  Uiso   1.00
H685   H     0.45122   0.79252   0.47376   0.00000  Uiso   1.00
H686   H     0.57018   0.86601   0.46565   0.00000  Uiso   1.00
H687   H     0.48929   0.75950   0.02902   0.00000  Uiso   1.00
H688   H     0.56596   0.91856   0.10830   0.00000  Uiso   1.00
N689   N     0.50000   0.95240   0.25000   0.00000  Uiso   1.00
N690   N     0.50000   0.71427   0.25000   0.00000  Uiso   1.00
N691   N     0.53459   0.91103   0.11379   0.00000  Uiso   1.00
N692   N     0.43948   0.78368   0.38806   0.00000  Uiso   1.00
N693   N     0.56945   0.87821   0.37814   0.00000  Uiso   1.00
N694   N     0.46987   0.75537   0.11309   0.00000  Uiso   1.00
O695   O     0.43892   0.87154   0.25000   0.00000  Uiso   1.00
O696   O     0.66337   0.70596   0.27237   0.00000  Uiso   1.00
O697   O     0.39117   0.71325   0.21529   0.00000  Uiso   1.00
O698   O     0.61039   0.95349   0.27121   0.00000  Uiso   1.00
O699   O     0.33558   0.95917   0.21833   0.00000  Uiso   1.00
O700   O     0.59851   0.92564   0.18989   0.00000  Uiso   1.00
O701   O     0.59388   0.77945   0.15975   0.00000  Uiso   1.00
O702   O     0.65657   0.73458   0.16395   0.00000  Uiso   1.00
O703   O     0.59522   0.71459   0.21809   0.00000  Uiso   1.00
O704   O     0.40037   0.94887   0.27994   0.00000  Uiso   1.00
O705   O     0.34130   0.93388   0.33058   0.00000  Uiso   1.00
O706   O     0.56108   0.79513   0.25000   0.00000  Uiso   1.00
O707   O     0.40762   0.88694   0.34063   0.00000  Uiso   1.00
O708   O     0.56108   0.87154   0.25001   0.00000  Uiso   1.00
O709   O     0.43892   0.79513   0.25000   0.00000  Uiso   1.00
O710   O     0.50000   0.87155   0.18453   0.00000  Uiso   1.00
O711   O     0.50000   0.79511   0.31547   0.00000  Uiso   1.00
O712   O     0.50000   0.87155   0.31547   0.00000  Uiso   1.00
O713   O     0.50000   0.79511   0.18453   0.00000  Uiso   1.00
O714   O     0.39716   0.73675   0.29819   0.00000  Uiso   1.00
S715   S     0.36750   0.73541   0.25967   0.00000  Uiso   1.00
S716   S     0.63160   0.93062   0.23308   0.00000  Uiso   1.00
S717   S     0.62266   0.75569   0.19085   0.00000  Uiso   1.00
S718   S     0.37577   0.91251   0.30473   0.00000  Uiso   1.00
Zn719  Zn    0.50000   0.88437   0.25000   0.00000  Uiso   1.00
Zn720  Zn    0.50000   0.78229   0.25000   0.00000  Uiso   1.00
C721   C     0.75307   0.83238   0.25459   0.00000  Uiso   1.00
C722   C     0.98108   0.87607   0.24998   0.00000  Uiso   1.00
C723   C     0.97814   0.79587   0.22927   0.00000  Uiso   1.00
C724   C     0.68776   0.87146   0.26680   0.00000  Uiso   1.00
C725   C     0.85899   0.86800   0.04586   0.00000  Uiso   1.00
C726   C     0.80962   0.80863   0.45441   0.00000  Uiso   1.00
C727   C     0.87595   0.85112   0.44979   0.00000  Uiso   1.00
C728   C     0.83153   0.79046   0.04653   0.00000  Uiso   1.00
C729   C     0.85413   0.87063   0.09169   0.00000  Uiso   1.00
C730   C     0.80657   0.80832   0.40857   0.00000  Uiso   1.00
C731   C     0.87149   0.85473   0.40396   0.00000  Uiso   1.00
C732   C     0.91331   0.83430   0.24455   0.00000  Uiso   1.00
C733   C     0.82449   0.79276   0.09186   0.00000  Uiso   1.00
C734   C     0.83654   0.83281   0.11517   0.00000  Uiso   1.00
C735   C     0.83688   0.83273   0.38347   0.00000  Uiso   1.00
C736   C     0.84680   0.82851   0.02325   0.00000  Uiso   1.00
C737   C     0.84468   0.82883   0.47505   0.00000  Uiso   1.00
C738   C     0.95814   0.83655   0.23755   0.00000  Uiso   1.00
C739   C     0.70783   0.83037   0.25952   0.00000  Uiso   1.00
C740   C     0.84268   0.94991   0.10516   0.00000  Uiso   1.00
C741   C     0.77679   0.73487   0.39030   0.00000  Uiso   1.00
C742   C     0.90789   0.92616   0.38788   0.00000  Uiso   1.00
C743   C     0.83361   0.83335   0.16361   0.00000  Uiso   1.00
C744   C     0.75861   0.76097   0.11809   0.00000  Uiso   1.00
C745   C     0.83370   0.83324   0.33592   0.00000  Uiso   1.00
C746   C     0.85034   0.69126   0.28455   0.00000  Uiso   1.00
C747   C     0.81592   0.97539   0.21578   0.00000  Uiso   1.00
C748   C     0.81664   0.69001   0.21539   0.00000  Uiso   1.00
C749   C     0.85040   0.97661   0.28447   0.00000  Uiso   1.00
C750   C     0.68481   0.79093   0.24607   0.00000  Uiso   1.00
H751   H     0.86415   0.70988   0.31206   0.00000  Uiso   1.00
H752   H     0.84614   0.96103   0.07000   0.00000  Uiso   1.00
H753   H     0.85321   0.97854   0.12678   0.00000  Uiso   1.00
H754   H     0.80913   0.94147   0.11220   0.00000  Uiso   1.00
H755   H     0.74401   0.79336   0.39960   0.00000  Uiso   1.00
H756   H     0.77933   0.72336   0.42535   0.00000  Uiso   1.00
H757   H     0.80487   0.72465   0.37140   0.00000  Uiso   1.00
H758   H     0.74868   0.71750   0.37594   0.00000  Uiso   1.00
H759   H     0.93093   0.86209   0.37786   0.00000  Uiso   1.00
H760   H     0.92335   0.93137   0.42056   0.00000  Uiso   1.00
H761   H     0.87700   0.94241   0.38831   0.00000  Uiso   1.00
H762   H     0.80110   0.95668   0.18901   0.00000  Uiso   1.00
H763   H     0.92777   0.94286   0.36189   0.00000  Uiso   1.00
H764   H     0.80986   0.72425   0.09956   0.00000  Uiso   1.00
H765   H     0.74393   0.76615   0.08512   0.00000  Uiso   1.00
H766   H     0.75244   0.79037   0.13995   0.00000  Uiso   1.00
H767   H     0.74403   0.72995   0.13331   0.00000  Uiso   1.00
H768   H     0.73112   0.68207   0.22431   0.00000  Uiso   1.00
H769   H     0.91192   0.95036   0.19366   0.00000  Uiso   1.00
H770   H     0.91076   0.69968   0.19514   0.00000  Uiso   1.00
H771   H     0.75531   0.91204   0.35704   0.00000  Uiso   1.00
H772   H     0.80320   0.70759   0.18777   0.00000  Uiso   1.00
H773   H     0.86415   0.95890   0.31184   0.00000  Uiso   1.00
H774   H     0.87086   0.89760   0.02781   0.00000  Uiso   1.00
H775   H     0.78456   0.79252   0.47376   0.00000  Uiso   1.00
H776   H     0.90352   0.86601   0.46565   0.00000  Uiso   1.00
H777   H     0.82263   0.75950   0.02902   0.00000  Uiso   1.00
H778   H     0.89930   0.91856   0.10830   0.00000  Uiso   1.00
N779   N     0.83333   0.95240   0.25000   0.00000  Uiso   1.00
N780   N     0.83333   0.71427   0.25000   0.00000  Uiso   1.00
N781   N     0.86793   0.91103   0.11379   0.00000  Uiso   1.00
N782   N     0.77282   0.78368   0.38806   0.00000  Uiso   1.00
N783   N     0.90278   0.87821   0.37814   0.00000  Uiso   1.00
N784   N     0.80320   0.75537   0.11309   0.00000  Uiso   1.00
O785   O     0.77226   0.87154   0.25000   0.00000  Uiso   1.00
O786   O     0.99670   0.70596   0.27237   0.00000  Uiso   1.00
O787   O     0.72450   0.71325   0.21529   0.00000  Uiso   1.00
O788   O     0.94372   0.95349   0.27121   0.00000  Uiso   1.00
O789   O     0.66891   0.95917   0.21833   0.00000  Uiso   1.00
O790   O     0.93184   0.92564   0.18989   0.00000  Uiso   1.00
O791   O     0.92721   0.77945   0.15975   0.00000  Uiso   1.00
O792   O     0.98990   0.73458   0.16395   0.00000  Uiso   1.00
O793   O     0.92855   0.71459   0.21809   0.00000  Uiso   1.00
O794   O     0.73370   0.94887   0.27994   0.00000  Uiso   1.00
O795   O     0.67463   0.93388   0.33058   0.00000  Uiso   1.00
O796   O     0.89441   0.79513   0.25000   0.00000  Uiso   1.00
O797   O     0.74095   0.88694   0.34063   0.00000  Uiso   1.00
O798   O     0.89441   0.87154   0.25001   0.00000  Uiso   1.00
O799   O     0.77226   0.79513   0.25000   0.00000  Uiso   1.00
O800   O     0.83333   0.87155   0.18453   0.00000  Uiso   1.00
O801   O     0.83334   0.79511   0.31547   0.00000  Uiso   1.00
O802   O     0.83334   0.87155   0.31547   0.00000  Uiso   1.00
O803   O     0.83333   0.79511   0.18453   0.00000  Uiso   1.00
O804   O     0.73049   0.73675   0.29819   0.00000  Uiso   1.00
S805   S     0.70083   0.73541   0.25967   0.00000  Uiso   1.00
S806   S     0.96493   0.93062   0.23308   0.00000  Uiso   1.00
S807   S     0.95600   0.75569   0.19085   0.00000  Uiso   1.00
S808   S     0.70910   0.91251   0.30473   0.00000  Uiso   1.00
Zn809  Zn    0.83333   0.88437   0.25000   0.00000  Uiso   1.00
Zn810  Zn    0.83333   0.78229   0.25000   0.00000  Uiso   1.00
C811   C     0.08640   0.16571   0.75459   0.00000  Uiso   1.00
C812   C     0.31441   0.20940   0.74998   0.00000  Uiso   1.00
C813   C     0.31147   0.12920   0.72927   0.00000  Uiso   1.00
C814   C     0.02110   0.20479   0.76680   0.00000  Uiso   1.00
C815   C     0.19232   0.20134   0.54586   0.00000  Uiso   1.00
C816   C     0.14295   0.14196   0.95441   0.00000  Uiso   1.00
C817   C     0.20929   0.18445   0.94979   0.00000  Uiso   1.00
C818   C     0.16487   0.12379   0.54653   0.00000  Uiso   1.00
C819   C     0.18747   0.20397   0.59169   0.00000  Uiso   1.00
C820   C     0.13991   0.14165   0.90857   0.00000  Uiso   1.00
C821   C     0.20483   0.18806   0.90396   0.00000  Uiso   1.00
C822   C     0.24664   0.16763   0.74455   0.00000  Uiso   1.00
C823   C     0.15782   0.12609   0.59186   0.00000  Uiso   1.00
C824   C     0.16987   0.16615   0.61517   0.00000  Uiso   1.00
C825   C     0.17022   0.16606   0.88347   0.00000  Uiso   1.00
C826   C     0.18014   0.16184   0.52325   0.00000  Uiso   1.00
C827   C     0.17801   0.16217   0.97505   0.00000  Uiso   1.00
C828   C     0.29147   0.16988   0.73755   0.00000  Uiso   1.00
C829   C     0.04117   0.16370   0.75952   0.00000  Uiso   1.00
C830   C     0.17601   0.28324   0.60516   0.00000  Uiso   1.00
C831   C     0.11013   0.06821   0.89030   0.00000  Uiso   1.00
C832   C     0.24122   0.25950   0.88788   0.00000  Uiso   1.00
C833   C     0.16694   0.16668   0.66361   0.00000  Uiso   1.00
C834   C     0.09194   0.09430   0.61809   0.00000  Uiso   1.00
C835   C     0.16703   0.16658   0.83592   0.00000  Uiso   1.00
C836   C     0.18367   0.02459   0.78455   0.00000  Uiso   1.00
C837   C     0.14926   0.30872   0.71578   0.00000  Uiso   1.00
C838   C     0.14997   0.02334   0.71539   0.00000  Uiso   1.00
C839   C     0.18373   0.30995   0.78447   0.00000  Uiso   1.00
C840   C     0.01814   0.12426   0.74607   0.00000  Uiso   1.00
H841   H     0.19748   0.04322   0.81206   0.00000  Uiso   1.00
H842   H     0.17947   0.29436   0.57000   0.00000  Uiso   1.00
H843   H     0.18654   0.31188   0.62678   0.00000  Uiso   1.00
H844   H     0.14247   0.27481   0.61220   0.00000  Uiso   1.00
H845   H     0.07735   0.12669   0.89960   0.00000  Uiso   1.00
H846   H     0.11266   0.05669   0.92535   0.00000  Uiso   1.00
H847   H     0.13821   0.05799   0.87140   0.00000  Uiso   1.00
H848   H     0.08201   0.05083   0.87594   0.00000  Uiso   1.00
H849   H     0.26426   0.19542   0.87786   0.00000  Uiso   1.00
H850   H     0.25668   0.26470   0.92056   0.00000  Uiso   1.00
H851   H     0.21034   0.27574   0.88831   0.00000  Uiso   1.00
H852   H     0.13443   0.29001   0.68901   0.00000  Uiso   1.00
H853   H     0.26110   0.27619   0.86189   0.00000  Uiso   1.00
H854   H     0.14320   0.05758   0.59956   0.00000  Uiso   1.00
H855   H     0.07726   0.09948   0.58512   0.00000  Uiso   1.00
H856   H     0.08578   0.12371   0.63995   0.00000  Uiso   1.00
H857   H     0.07736   0.06329   0.63331   0.00000  Uiso   1.00
H858   H     0.06445   0.01540   0.72431   0.00000  Uiso   1.00
H859   H     0.24526   0.28369   0.69366   0.00000  Uiso   1.00
H860   H     0.24409   0.03301   0.69514   0.00000  Uiso   1.00
H861   H     0.08865   0.24538   0.85704   0.00000  Uiso   1.00
H862   H     0.13653   0.04093   0.68777   0.00000  Uiso   1.00
H863   H     0.19748   0.29223   0.81184   0.00000  Uiso   1.00
H864   H     0.20419   0.23094   0.52781   0.00000  Uiso   1.00
H865   H     0.11789   0.12586   0.97376   0.00000  Uiso   1.00
H866   H     0.23685   0.19934   0.96565   0.00000  Uiso   1.00
H867   H     0.15596   0.09283   0.52902   0.00000  Uiso   1.00
H868   H     0.23263   0.25189   0.60830   0.00000  Uiso   1.00
N869   N     0.16667   0.28573   0.75000   0.00000  Uiso   1.00
N870   N     0.16667   0.04760   0.75000   0.00000  Uiso   1.00
N871   N     0.20126   0.24436   0.61379   0.00000  Uiso   1.00
N872   N     0.10615   0.11701   0.88806   0.00000  Uiso   1.00
N873   N     0.23612   0.21155   0.87814   0.00000  Uiso   1.00
N874   N     0.13653   0.08870   0.61309   0.00000  Uiso   1.00
O875   O     0.10559   0.20487   0.75000   0.00000  Uiso   1.00
O876   O     0.33003   0.03929   0.77237   0.00000  Uiso   1.00
O877   O     0.05784   0.04658   0.71529   0.00000  Uiso   1.00
O878   O     0.27706   0.28682   0.77121   0.00000  Uiso   1.00
O879   O     0.00224   0.29250   0.71833   0.00000  Uiso   1.00
O880   O     0.26518   0.25897   0.68989   0.00000  Uiso   1.00
O881   O     0.26055   0.11278   0.65975   0.00000  Uiso   1.00
O882   O     0.32323   0.06791   0.66395   0.00000  Uiso   1.00
O883   O     0.26189   0.04792   0.71809   0.00000  Uiso   1.00
O884   O     0.06704   0.28220   0.77994   0.00000  Uiso   1.00
O885   O     0.00796   0.26721   0.83058   0.00000  Uiso   1.00
O886   O     0.22774   0.12846   0.75000   0.00000  Uiso   1.00
O887   O     0.07428   0.22027   0.84063   0.00000  Uiso   1.00
O888   O     0.22774   0.20487   0.75001   0.00000  Uiso   1.00
O889   O     0.10559   0.12846   0.75000   0.00000  Uiso   1.00
O890   O     0.16666   0.20489   0.68453   0.00000  Uiso   1.00
O891   O     0.16667   0.12845   0.81547   0.00000  Uiso   1.00
O892   O     0.16667   0.20489   0.81547   0.00000  Uiso   1.00
O893   O     0.16666   0.12845   0.68453   0.00000  Uiso   1.00
O894   O     0.06383   0.07008   0.79819   0.00000  Uiso   1.00
S895   S     0.03416   0.06874   0.75967   0.00000  Uiso   1.00
S896   S     0.29827   0.26395   0.73308   0.00000  Uiso   1.00
S897   S     0.28933   0.08903   0.69085   0.00000  Uiso   1.00
S898   S     0.04244   0.24585   0.80473   0.00000  Uiso   1.00
Zn899  Zn    0.16667   0.21771   0.75000   0.00000  Uiso   1.00
Zn900  Zn    0.16667   0.11563   0.75000   0.00000  Uiso   1.00
C901   C     0.41973   0.16571   0.75459   0.00000  Uiso   1.00
C902   C     0.64775   0.20940   0.74998   0.00000  Uiso   1.00
C903   C     0.64480   0.12920   0.72927   0.00000  Uiso   1.00
C904   C     0.35443   0.20479   0.76680   0.00000  Uiso   1.00
C905   C     0.52565   0.20134   0.54586   0.00000  Uiso   1.00
C906   C     0.47629   0.14196   0.95441   0.00000  Uiso   1.00
C907   C     0.54262   0.18445   0.94979   0.00000  Uiso   1.00
C908   C     0.49820   0.12379   0.54653   0.00000  Uiso   1.00
C909   C     0.52080   0.20397   0.59169   0.00000  Uiso   1.00
C910   C     0.47324   0.14165   0.90857   0.00000  Uiso   1.00
C911   C     0.53816   0.18806   0.90396   0.00000  Uiso   1.00
C912   C     0.57998   0.16763   0.74455   0.00000  Uiso   1.00
C913   C     0.49115   0.12609   0.59186   0.00000  Uiso   1.00
C914   C     0.50320   0.16615   0.61517   0.00000  Uiso   1.00
C915   C     0.50355   0.16606   0.88347   0.00000  Uiso   1.00
C916   C     0.51347   0.16184   0.52325   0.00000  Uiso   1.00
C917   C     0.51134   0.16217   0.97505   0.00000  Uiso   1.00
C918   C     0.62481   0.16988   0.73755   0.00000  Uiso   1.00
C919   C     0.37450   0.16370   0.75952   0.00000  Uiso   1.00
C920   C     0.50935   0.28324   0.60516   0.00000  Uiso   1.00
C921   C     0.44346   0.06821   0.89030   0.00000  Uiso   1.00
C922   C     0.57456   0.25950   0.88788   0.00000  Uiso   1.00
C923   C     0.50028   0.16668   0.66361   0.00000  Uiso   1.00
C924   C     0.42528   0.09430   0.61809   0.00000  Uiso   1.00
C925   C     0.50036   0.16658   0.83592   0.00000  Uiso   1.00
C926   C     0.51700   0.02459   0.78455   0.00000  Uiso   1.00
C927   C     0.48259   0.30872   0.71578   0.00000  Uiso   1.00
C928   C     0.48331   0.02334   0.71539   0.00000  Uiso   1.00
C929   C     0.51706   0.30995   0.78447   0.00000  Uiso   1.00
C930   C     0.35148   0.12426   0.74607   0.00000  Uiso   1.00
H931   H     0.53081   0.04322   0.81206   0.00000  Uiso   1.00
H932   H     0.51281   0.29436   0.57000   0.00000  Uiso   1.00
H933   H     0.51988   0.31188   0.62678   0.00000  Uiso   1.00
H934   H     0.47580   0.27481   0.61220   0.00000  Uiso   1.00
H935   H     0.41068   0.12669   0.89960   0.00000  Uiso   1.00
H936   H     0.44600   0.05669   0.92535   0.00000  Uiso   1.00
H937   H     0.47154   0.05799   0.87140   0.00000  Uiso   1.00
H938   H     0.41534   0.05083   0.87594   0.00000  Uiso   1.00
H939   H     0.59760   0.19542   0.87786   0.00000  Uiso   1.00
H940   H     0.59001   0.26470   0.92056   0.00000  Uiso   1.00
H941   H     0.54367   0.27574   0.88831   0.00000  Uiso   1.00
H942   H     0.46777   0.29001   0.68901   0.00000  Uiso   1.00
H943   H     0.59443   0.27619   0.86189   0.00000  Uiso   1.00
H944   H     0.47653   0.05758   0.59956   0.00000  Uiso   1.00
H945   H     0.41059   0.09948   0.58512   0.00000  Uiso   1.00
H946   H     0.41911   0.12371   0.63995   0.00000  Uiso   1.00
H947   H     0.41069   0.06329   0.63331   0.00000  Uiso   1.00
H948   H     0.39778   0.01540   0.72431   0.00000  Uiso   1.00
H949   H     0.57859   0.28369   0.69366   0.00000  Uiso   1.00
H950   H     0.57743   0.03301   0.69514   0.00000  Uiso   1.00
H951   H     0.42198   0.24538   0.85704   0.00000  Uiso   1.00
H952   H     0.46987   0.04093   0.68777   0.00000  Uiso   1.00
H953   H     0.53081   0.29223   0.81184   0.00000  Uiso   1.00
H954   H     0.53752   0.23094   0.52781   0.00000  Uiso   1.00
H955   H     0.45122   0.12586   0.97376   0.00000  Uiso   1.00
H956   H     0.57018   0.19934   0.96565   0.00000  Uiso   1.00
H957   H     0.48929   0.09283   0.52902   0.00000  Uiso   1.00
H958   H     0.56596   0.25189   0.60830   0.00000  Uiso   1.00
N959   N     0.50000   0.28573   0.75000   0.00000  Uiso   1.00
N960   N     0.50000   0.04760   0.75000   0.00000  Uiso   1.00
N961   N     0.53459   0.24436   0.61379   0.00000  Uiso   1.00
N962   N     0.43948   0.11701   0.88806   0.00000  Uiso   1.00
N963   N     0.56945   0.21155   0.87814   0.00000  Uiso   1.00
N964   N     0.46987   0.08870   0.61309   0.00000  Uiso   1.00
O965   O     0.43892   0.20487   0.75000   0.00000  Uiso   1.00
O966   O     0.66337   0.03929   0.77237   0.00000  Uiso   1.00
O967   O     0.39117   0.04658   0.71529   0.00000  Uiso   1.00
O968   O     0.61039   0.28682   0.77121   0.00000  Uiso   1.00
O969   O     0.33558   0.29250   0.71833   0.00000  Uiso   1.00
O970   O     0.59851   0.25897   0.68989   0.00000  Uiso   1.00
O971   O     0.59388   0.11278   0.65975   0.00000  Uiso   1.00
O972   O     0.65657   0.06791   0.66395   0.00000  Uiso   1.00
O973   O     0.59522   0.04792   0.71809   0.00000  Uiso   1.00
O974   O     0.40037   0.28220   0.77994   0.00000  Uiso   1.00
O975   O     0.34130   0.26721   0.83058   0.00000  Uiso   1.00
O976   O     0.56108   0.12846   0.75000   0.00000  Uiso   1.00
O977   O     0.40762   0.22027   0.84063   0.00000  Uiso   1.00
O978   O     0.56108   0.20487   0.75001   0.00000  Uiso   1.00
O979   O     0.43892   0.12846   0.75000   0.00000  Uiso   1.00
O980   O     0.50000   0.20489   0.68453   0.00000  Uiso   1.00
O981   O     0.50000   0.12845   0.81547   0.00000  Uiso   1.00
O982   O     0.50000   0.20489   0.81547   0.00000  Uiso   1.00
O983   O     0.50000   0.12845   0.68453   0.00000  Uiso   1.00
O984   O     0.39716   0.07008   0.79819   0.00000  Uiso   1.00
S985   S     0.36750   0.06874   0.75967   0.00000  Uiso   1.00
S986   S     0.63160   0.26395   0.73308   0.00000  Uiso   1.00
S987   S     0.62266   0.08903   0.69085   0.00000  Uiso   1.00
S988   S     0.37577   0.24585   0.80473   0.00000  Uiso   1.00
Zn989  Zn    0.50000   0.21771   0.75000   0.00000  Uiso   1.00
Zn990  Zn    0.50000   0.11563   0.75000   0.00000  Uiso   1.00
C991   C     0.75307   0.16571   0.75459   0.00000  Uiso   1.00
C992   C     0.98108   0.20940   0.74998   0.00000  Uiso   1.00
C993   C     0.97814   0.12920   0.72927   0.00000  Uiso   1.00
C994   C     0.68776   0.20479   0.76680   0.00000  Uiso   1.00
C995   C     0.85899   0.20134   0.54586   0.00000  Uiso   1.00
C996   C     0.80962   0.14196   0.95441   0.00000  Uiso   1.00
C997   C     0.87595   0.18445   0.94979   0.00000  Uiso   1.00
C998   C     0.83153   0.12379   0.54653   0.00000  Uiso   1.00
C999   C     0.85413   0.20397   0.59169   0.00000  Uiso   1.00
C1000  C     0.80657   0.14165   0.90857   0.00000  Uiso   1.00
C1001  C     0.87149   0.18806   0.90396   0.00000  Uiso   1.00
C1002  C     0.91331   0.16763   0.74455   0.00000  Uiso   1.00
C1003  C     0.82449   0.12609   0.59186   0.00000  Uiso   1.00
C1004  C     0.83654   0.16615   0.61517   0.00000  Uiso   1.00
C1005  C     0.83688   0.16606   0.88347   0.00000  Uiso   1.00
C1006  C     0.84680   0.16184   0.52325   0.00000  Uiso   1.00
C1007  C     0.84468   0.16217   0.97505   0.00000  Uiso   1.00
C1008  C     0.95814   0.16988   0.73755   0.00000  Uiso   1.00
C1009  C     0.70783   0.16370   0.75952   0.00000  Uiso   1.00
C1010  C     0.84268   0.28324   0.60516   0.00000  Uiso   1.00
C1011  C     0.77679   0.06821   0.89030   0.00000  Uiso   1.00
C1012  C     0.90789   0.25950   0.88788   0.00000  Uiso   1.00
C1013  C     0.83361   0.16668   0.66361   0.00000  Uiso   1.00
C1014  C     0.75861   0.09430   0.61809   0.00000  Uiso   1.00
C1015  C     0.83370   0.16658   0.83592   0.00000  Uiso   1.00
C1016  C     0.85034   0.02459   0.78455   0.00000  Uiso   1.00
C1017  C     0.81592   0.30872   0.71578   0.00000  Uiso   1.00
C1018  C     0.81664   0.02334   0.71539   0.00000  Uiso   1.00
C1019  C     0.85040   0.30995   0.78447   0.00000  Uiso   1.00
C1020  C     0.68481   0.12426   0.74607   0.00000  Uiso   1.00
H1021  H     0.86415   0.04322   0.81206   0.00000  Uiso   1.00
H1022  H     0.84614   0.29436   0.57000   0.00000  Uiso   1.00
H1023  H     0.85321   0.31188   0.62678   0.00000  Uiso   1.00
H1024  H     0.80913   0.27481   0.61220   0.00000  Uiso   1.00
H1025  H     0.74401   0.12669   0.89960   0.00000  Uiso   1.00
H1026  H     0.77933   0.05669   0.92535   0.00000  Uiso   1.00
H1027  H     0.80487   0.05799   0.87140   0.00000  Uiso   1.00
H1028  H     0.74868   0.05083   0.87594   0.00000  Uiso   1.00
H1029  H     0.93093   0.19542   0.87786   0.00000  Uiso   1.00
H1030  H     0.92335   0.26470   0.92056   0.00000  Uiso   1.00
H1031  H     0.87700   0.27574   0.88831   0.00000  Uiso   1.00
H1032  H     0.80110   0.29001   0.68901   0.00000  Uiso   1.00
H1033  H     0.92777   0.27619   0.86189   0.00000  Uiso   1.00
H1034  H     0.80986   0.05758   0.59956   0.00000  Uiso   1.00
H1035  H     0.74393   0.09948   0.58512   0.00000  Uiso   1.00
H1036  H     0.75244   0.12371   0.63995   0.00000  Uiso   1.00
H1037  H     0.74403   0.06329   0.63331   0.00000  Uiso   1.00
H1038  H     0.73112   0.01540   0.72431   0.00000  Uiso   1.00
H1039  H     0.91192   0.28369   0.69366   0.00000  Uiso   1.00
H1040  H     0.91076   0.03301   0.69514   0.00000  Uiso   1.00
H1041  H     0.75531   0.24538   0.85704   0.00000  Uiso   1.00
H1042  H     0.80320   0.04093   0.68777   0.00000  Uiso   1.00
H1043  H     0.86415   0.29223   0.81184   0.00000  Uiso   1.00
H1044  H     0.87086   0.23094   0.52781   0.00000  Uiso   1.00
H1045  H     0.78456   0.12586   0.97376   0.00000  Uiso   1.00
H1046  H     0.90352   0.19934   0.96565   0.00000  Uiso   1.00
H1047  H     0.82263   0.09283   0.52902   0.00000  Uiso   1.00
H1048  H     0.89930   0.25189   0.60830   0.00000  Uiso   1.00
N1049  N     0.83333   0.28573   0.75000   0.00000  Uiso   1.00
N1050  N     0.83333   0.04760   0.75000   0.00000  Uiso   1.00
N1051  N     0.86793   0.24436   0.61379   0.00000  Uiso   1.00
N1052  N     0.77282   0.11701   0.88806   0.00000  Uiso   1.00
N1053  N     0.90278   0.21155   0.87814   0.00000  Uiso   1.00
N1054  N     0.80320   0.08870   0.61309   0.00000  Uiso   1.00
O1055  O     0.77226   0.20487   0.75000   0.00000  Uiso   1.00
O1056  O     0.99670   0.03929   0.77237   0.00000  Uiso   1.00
O1057  O     0.72450   0.04658   0.71529   0.00000  Uiso   1.00
O1058  O     0.94372   0.28682   0.77121   0.00000  Uiso   1.00
O1059  O     0.66891   0.29250   0.71833   0.00000  Uiso   1.00
O1060  O     0.93184   0.25897   0.68989   0.00000  Uiso   1.00
O1061  O     0.92721   0.11278   0.65975   0.00000  Uiso   1.00
O1062  O     0.98990   0.06791   0.66395   0.00000  Uiso   1.00
O1063  O     0.92855   0.04792   0.71809   0.00000  Uiso   1.00
O1064  O     0.73370   0.28220   0.77994   0.00000  Uiso   1.00
O1065  O     0.67463   0.26721   0.83058   0.00000  Uiso   1.00
O1066  O     0.89441   0.12846   0.75000   0.00000  Uiso   1.00
O1067  O     0.74095   0.22027   0.84063   0.00000  Uiso   1.00
O1068  O     0.89441   0.20487   0.75001   0.00000  Uiso   1.00
O1069  O     0.77226   0.12846   0.75000   0.00000  Uiso   1.00
O1070  O     0.83333   0.20489   0.68453   0.00000  Uiso   1.00
O1071  O     0.83334   0.12845   0.81547   0.00000  Uiso   1.00
O1072  O     0.83334   0.20489   0.81547   0.00000  Uiso   1.00
O1073  O     0.83333   0.12845   0.68453   0.00000  Uiso   1.00
O1074  O     0.73049   0.07008   0.79819   0.00000  Uiso   1.00
S1075  S     0.70083   0.06874   0.75967   0.00000  Uiso   1.00
S1076  S     0.96493   0.26395   0.73308   0.00000  Uiso   1.00
S1077  S     0.95600   0.08903   0.69085   0.00000  Uiso   1.00
S1078  S     0.70910   0.24585   0.80473   0.00000  Uiso   1.00
Zn1079 Zn    0.83333   0.21771   0.75000   0.00000  Uiso   1.00
Zn1080 Zn    0.83333   0.11563   0.75000   0.00000  Uiso   1.00
C1081  C     0.08640   0.49905   0.75459   0.00000  Uiso   1.00
C1082  C     0.31441   0.54274   0.74998   0.00000  Uiso   1.00
C1083  C     0.31147   0.46254   0.72927   0.00000  Uiso   1.00
C1084  C     0.02110   0.53812   0.76680   0.00000  Uiso   1.00
C1085  C     0.19232   0.53467   0.54586   0.00000  Uiso   1.00
C1086  C     0.14295   0.47530   0.95441   0.00000  Uiso   1.00
C1087  C     0.20929   0.51778   0.94979   0.00000  Uiso   1.00
C1088  C     0.16487   0.45712   0.54653   0.00000  Uiso   1.00
C1089  C     0.18747   0.53730   0.59169   0.00000  Uiso   1.00
C1090  C     0.13991   0.47499   0.90857   0.00000  Uiso   1.00
C1091  C     0.20483   0.52139   0.90396   0.00000  Uiso   1.00
C1092  C     0.24664   0.50096   0.74455   0.00000  Uiso   1.00
C1093  C     0.15782   0.45943   0.59186   0.00000  Uiso   1.00
C1094  C     0.16987   0.49948   0.61517   0.00000  Uiso   1.00
C1095  C     0.17022   0.49940   0.88347   0.00000  Uiso   1.00
C1096  C     0.18014   0.49518   0.52325   0.00000  Uiso   1.00
C1097  C     0.17801   0.49550   0.97505   0.00000  Uiso   1.00
C1098  C     0.29147   0.50322   0.73755   0.00000  Uiso   1.00
C1099  C     0.04117   0.49704   0.75952   0.00000  Uiso   1.00
C1100  C     0.17601   0.61658   0.60516   0.00000  Uiso   1.00
C1101  C     0.11013   0.40154   0.89030   0.00000  Uiso   1.00
C1102  C     0.24122   0.59283   0.88788   0.00000  Uiso   1.00
C1103  C     0.16694   0.50001   0.66361   0.00000  Uiso   1.00
C1104  C     0.09194   0.42763   0.61809   0.00000  Uiso   1.00
C1105  C     0.16703   0.49991   0.83592   0.00000  Uiso   1.00
C1106  C     0.18367   0.35792   0.78455   0.00000  Uiso   1.00
C1107  C     0.14926   0.64205   0.71578   0.00000  Uiso   1.00
C1108  C     0.14997   0.35668   0.71539   0.00000  Uiso   1.00
C1109  C     0.18373   0.64328   0.78447   0.00000  Uiso   1.00
C1110  C     0.01814   0.45760   0.74607   0.00000  Uiso   1.00
H1111  H     0.19748   0.37655   0.81206   0.00000  Uiso   1.00
H1112  H     0.17947   0.62769   0.57000   0.00000  Uiso   1.00
H1113  H     0.18654   0.64521   0.62678   0.00000  Uiso   1.00
H1114  H     0.14247   0.60814   0.61220   0.00000  Uiso   1.00
H1115  H     0.07735   0.46003   0.89960   0.00000  Uiso   1.00
H1116  H     0.11266   0.39002   0.92535   0.00000  Uiso   1.00
H1117  H     0.13821   0.39132   0.87140   0.00000  Uiso   1.00
H1118  H     0.08201   0.38416   0.87594   0.00000  Uiso   1.00
H1119  H     0.26426   0.52876   0.87786   0.00000  Uiso   1.00
H1120  H     0.25668   0.59803   0.92056   0.00000  Uiso   1.00
H1121  H     0.21034   0.60907   0.88831   0.00000  Uiso   1.00
H1122  H     0.13443   0.62334   0.68901   0.00000  Uiso   1.00
H1123  H     0.26110   0.60952   0.86189   0.00000  Uiso   1.00
H1124  H     0.14320   0.39092   0.59956   0.00000  Uiso   1.00
H1125  H     0.07726   0.43281   0.58512   0.00000  Uiso   1.00
H1126  H     0.08578   0.45704   0.63995   0.00000  Uiso   1.00
H1127  H     0.07736   0.39662   0.63331   0.00000  Uiso   1.00
H1128  H     0.06445   0.34873   0.72431   0.00000  Uiso   1.00
H1129  H     0.24526   0.61702   0.69366   0.00000  Uiso   1.00
H1130  H     0.24409   0.36635   0.69514   0.00000  Uiso   1.00
H1131  H     0.08865   0.57871   0.85704   0.00000  Uiso   1.00
H1132  H     0.13653   0.37426   0.68777   0.00000  Uiso   1.00
H1133  H     0.19748   0.62557   0.81184   0.00000  Uiso   1.00
H1134  H     0.20419   0.56427   0.52781   0.00000  Uiso   1.00
H1135  H     0.11789   0.45919   0.97376   0.00000  Uiso   1.00
H1136  H     0.23685   0.53268   0.96565   0.00000  Uiso   1.00
H1137  H     0.15596   0.42616   0.52902   0.00000  Uiso   1.00
H1138  H     0.23263   0.58523   0.60830   0.00000  Uiso   1.00
N1139  N     0.16667   0.61907   0.75000   0.00000  Uiso   1.00
N1140  N     0.16667   0.38093   0.75000   0.00000  Uiso   1.00
N1141  N     0.20126   0.57770   0.61379   0.00000  Uiso   1.00
N1142  N     0.10615   0.45034   0.88806   0.00000  Uiso   1.00
N1143  N     0.23612   0.54488   0.87814   0.00000  Uiso   1.00
N1144  N     0.13653   0.42204   0.61309   0.00000  Uiso   1.00
O1145  O     0.10559   0.53821   0.75000   0.00000  Uiso   1.00
O1146  O     0.33003   0.37263   0.77237   0.00000  Uiso   1.00
O1147  O     0.05784   0.37991   0.71529   0.00000  Uiso   1.00
O1148  O     0.27706   0.62015   0.77121   0.00000  Uiso   1.00
O1149  O     0.00224   0.62583   0.71833   0.00000  Uiso   1.00
O1150  O     0.26518   0.59231   0.68989   0.00000  Uiso   1.00
O1151  O     0.26055   0.44612   0.65975   0.00000  Uiso   1.00
O1152  O     0.32323   0.40124   0.66395   0.00000  Uiso   1.00
O1153  O     0.26189   0.38125   0.71809   0.00000  Uiso   1.00
O1154  O     0.06704   0.61554   0.77994   0.00000  Uiso   1.00
O1155  O     0.00796   0.60055   0.83058   0.00000  Uiso   1.00
O1156  O     0.22774   0.46179   0.75000   0.00000  Uiso   1.00
O1157  O     0.07428   0.55360   0.84063   0.00000  Uiso   1.00
O1158  O     0.22774   0.53821   0.75001   0.00000  Uiso   1.00
O1159  O     0.10559   0.46179   0.75000   0.00000  Uiso   1.00
O1160  O     0.16666   0.53822   0.68453   0.00000  Uiso   1.00
O1161  O     0.16667   0.46178   0.81547   0.00000  Uiso   1.00
O1162  O     0.16667   0.53822   0.81547   0.00000  Uiso   1.00
O1163  O     0.16666   0.46178   0.68453   0.00000  Uiso   1.00
O1164  O     0.06383   0.40342   0.79819   0.00000  Uiso   1.00
S1165  S     0.03416   0.40207   0.75967   0.00000  Uiso   1.00
S1166  S     0.29827   0.59729   0.73308   0.00000  Uiso   1.00
S1167  S     0.28933   0.42236   0.69085   0.00000  Uiso   1.00
S1168  S     0.04244   0.57918   0.80473   0.00000  Uiso   1.00
Zn1169 Zn    0.16667   0.55104   0.75000   0.00000  Uiso   1.00
Zn1170 Zn    0.16667   0.44896   0.75000   0.00000  Uiso   1.00
C1171  C     0.41973   0.49905   0.75459   0.00000  Uiso   1.00
C1172  C     0.64775   0.54274   0.74998   0.00000  Uiso   1.00
C1173  C     0.64480   0.46254   0.72927   0.00000  Uiso   1.00
C1174  C     0.35443   0.53812   0.76680   0.00000  Uiso   1.00
C1175  C     0.52565   0.53467   0.54586   0.00000  Uiso   1.00
C1176  C     0.47629   0.47530   0.95441   0.00000  Uiso   1.00
C1177  C     0.54262   0.51778   0.94979   0.00000  Uiso   1.00
C1178  C     0.49820   0.45712   0.54653   0.00000  Uiso   1.00
C1179  C     0.52080   0.53730   0.59169   0.00000  Uiso   1.00
C1180  C     0.47324   0.47499   0.90857   0.00000  Uiso   1.00
C1181  C     0.53816   0.52139   0.90396   0.00000  Uiso   1.00
C1182  C     0.57998   0.50096   0.74455   0.00000  Uiso   1.00
C1183  C     0.49115   0.45943   0.59186   0.00000  Uiso   1.00
C1184  C     0.50320   0.49948   0.61517   0.00000  Uiso   1.00
C1185  C     0.50355   0.49940   0.88347   0.00000  Uiso   1.00
C1186  C     0.51347   0.49518   0.52325   0.00000  Uiso   1.00
C1187  C     0.51134   0.49550   0.97505   0.00000  Uiso   1.00
C1188  C     0.62481   0.50322   0.73755   0.00000  Uiso   1.00
C1189  C     0.37450   0.49704   0.75952   0.00000  Uiso   1.00
C1190  C     0.50935   0.61658   0.60516   0.00000  Uiso   1.00
C1191  C     0.44346   0.40154   0.89030   0.00000  Uiso   1.00
C1192  C     0.57456   0.59283   0.88788   0.00000  Uiso   1.00
C1193  C     0.50028   0.50001   0.66361   0.00000  Uiso   1.00
C1194  C     0.42528   0.42763   0.61809   0.00000  Uiso   1.00
C1195  C     0.50036   0.49991   0.83592   0.00000  Uiso   1.00
C1196  C     0.51700   0.35792   0.78455   0.00000  Uiso   1.00
C1197  C     0.48259   0.64205   0.71578   0.00000  Uiso   1.00
C1198  C     0.48331   0.35668   0.71539   0.00000  Uiso   1.00
C1199  C     0.51706   0.64328   0.78447   0.00000  Uiso   1.00
C1200  C     0.35148   0.45760   0.74607   0.00000  Uiso   1.00
H1201  H     0.53081   0.37655   0.81206   0.00000  Uiso   1.00
H1202  H     0.51281   0.62769   0.57000   0.00000  Uiso   1.00
H1203  H     0.51988   0.64521   0.62678   0.00000  Uiso   1.00
H1204  H     0.47580   0.60814   0.61220   0.00000  Uiso   1.00
H1205  H     0.41068   0.46003   0.89960   0.00000  Uiso   1.00
H1206  H     0.44600   0.39002   0.92535   0.00000  Uiso   1.00
H1207  H     0.47154   0.39132   0.87140   0.00000  Uiso   1.00
H1208  H     0.41534   0.38416   0.87594   0.00000  Uiso   1.00
H1209  H     0.59760   0.52876   0.87786   0.00000  Uiso   1.00
H1210  H     0.59001   0.59803   0.92056   0.00000  Uiso   1.00
H1211  H     0.54367   0.60907   0.88831   0.00000  Uiso   1.00
H1212  H     0.46777   0.62334   0.68901   0.00000  Uiso   1.00
H1213  H     0.59443   0.60952   0.86189   0.00000  Uiso   1.00
H1214  H     0.47653   0.39092   0.59956   0.00000  Uiso   1.00
H1215  H     0.41059   0.43281   0.58512   0.00000  Uiso   1.00
H1216  H     0.41911   0.45704   0.63995   0.00000  Uiso   1.00
H1217  H     0.41069   0.39662   0.63331   0.00000  Uiso   1.00
H1218  H     0.39778   0.34873   0.72431   0.00000  Uiso   1.00
H1219  H     0.57859   0.61702   0.69366   0.00000  Uiso   1.00
H1220  H     0.57743   0.36635   0.69514   0.00000  Uiso   1.00
H1221  H     0.42198   0.57871   0.85704   0.00000  Uiso   1.00
H1222  H     0.46987   0.37426   0.68777   0.00000  Uiso   1.00
H1223  H     0.53081   0.62557   0.81184   0.00000  Uiso   1.00
H1224  H     0.53752   0.56427   0.52781   0.00000  Uiso   1.00
H1225  H     0.45122   0.45919   0.97376   0.00000  Uiso   1.00
H1226  H     0.57018   0.53268   0.96565   0.00000  Uiso   1.00
H1227  H     0.48929   0.42616   0.52902   0.00000  Uiso   1.00
H1228  H     0.56596   0.58523   0.60830   0.00000  Uiso   1.00
N1229  N     0.50000   0.61907   0.75000   0.00000  Uiso   1.00
N1230  N     0.50000   0.38093   0.75000   0.00000  Uiso   1.00
N1231  N     0.53459   0.57770   0.61379   0.00000  Uiso   1.00
N1232  N     0.43948   0.45034   0.88806   0.00000  Uiso   1.00
N1233  N     0.56945   0.54488   0.87814   0.00000  Uiso   1.00
N1234  N     0.46987   0.42204   0.61309   0.00000  Uiso   1.00
O1235  O     0.43892   0.53821   0.75000   0.00000  Uiso   1.00
O1236  O     0.66337   0.37263   0.77237   0.00000  Uiso   1.00
O1237  O     0.39117   0.37991   0.71529   0.00000  Uiso   1.00
O1238  O     0.61039   0.62015   0.77121   0.00000  Uiso   1.00
O1239  O     0.33558   0.62583   0.71833   0.00000  Uiso   1.00
O1240  O     0.59851   0.59231   0.68989   0.00000  Uiso   1.00
O1241  O     0.59388   0.44612   0.65975   0.00000  Uiso   1.00
O1242  O     0.65657   0.40124   0.66395   0.00000  Uiso   1.00
O1243  O     0.59522   0.38125   0.71809   0.00000  Uiso   1.00
O1244  O     0.40037   0.61554   0.77994   0.00000  Uiso   1.00
O1245  O     0.34130   0.60055   0.83058   0.00000  Uiso   1.00
O1246  O     0.56108   0.46179   0.75000   0.00000  Uiso   1.00
O1247  O     0.40762   0.55360   0.84063   0.00000  Uiso   1.00
O1248  O     0.56108   0.53821   0.75001   0.00000  Uiso   1.00
O1249  O     0.43892   0.46179   0.75000   0.00000  Uiso   1.00
O1250  O     0.50000   0.53822   0.68453   0.00000  Uiso   1.00
O1251  O     0.50000   0.46178   0.81547   0.00000  Uiso   1.00
O1252  O     0.50000   0.53822   0.81547   0.00000  Uiso   1.00
O1253  O     0.50000   0.46178   0.68453   0.00000  Uiso   1.00
O1254  O     0.39716   0.40342   0.79819   0.00000  Uiso   1.00
S1255  S     0.36750   0.40207   0.75967   0.00000  Uiso   1.00
S1256  S     0.63160   0.59729   0.73308   0.00000  Uiso   1.00
S1257  S     0.62266   0.42236   0.69085   0.00000  Uiso   1.00
S1258  S     0.37577   0.57918   0.80473   0.00000  Uiso   1.00
Zn1259 Zn    0.50000   0.55104   0.75000   0.00000  Uiso   1.00
Zn1260 Zn    0.50000   0.44896   0.75000   0.00000  Uiso   1.00
C1261  C     0.75307   0.49905   0.75459   0.00000  Uiso   1.00
C1262  C     0.98108   0.54274   0.74998   0.00000  Uiso   1.00
C1263  C     0.97814   0.46254   0.72927   0.00000  Uiso   1.00
C1264  C     0.68776   0.53812   0.76680   0.00000  Uiso   1.00
C1265  C     0.85899   0.53467   0.54586   0.00000  Uiso   1.00
C1266  C     0.80962   0.47530   0.95441   0.00000  Uiso   1.00
C1267  C     0.87595   0.51778   0.94979   0.00000  Uiso   1.00
C1268  C     0.83153   0.45712   0.54653   0.00000  Uiso   1.00
C1269  C     0.85413   0.53730   0.59169   0.00000  Uiso   1.00
C1270  C     0.80657   0.47499   0.90857   0.00000  Uiso   1.00
C1271  C     0.87149   0.52139   0.90396   0.00000  Uiso   1.00
C1272  C     0.91331   0.50096   0.74455   0.00000  Uiso   1.00
C1273  C     0.82449   0.45943   0.59186   0.00000  Uiso   1.00
C1274  C     0.83654   0.49948   0.61517   0.00000  Uiso   1.00
C1275  C     0.83688   0.49940   0.88347   0.00000  Uiso   1.00
C1276  C     0.84680   0.49518   0.52325   0.00000  Uiso   1.00
C1277  C     0.84468   0.49550   0.97505   0.00000  Uiso   1.00
C1278  C     0.95814   0.50322   0.73755   0.00000  Uiso   1.00
C1279  C     0.70783   0.49704   0.75952   0.00000  Uiso   1.00
C1280  C     0.84268   0.61658   0.60516   0.00000  Uiso   1.00
C1281  C     0.77679   0.40154   0.89030   0.00000  Uiso   1.00
C1282  C     0.90789   0.59283   0.88788   0.00000  Uiso   1.00
C1283  C     0.83361   0.50001   0.66361   0.00000  Uiso   1.00
C1284  C     0.75861   0.42763   0.61809   0.00000  Uiso   1.00
C1285  C     0.83370   0.49991   0.83592   0.00000  Uiso   1.00
C1286  C     0.85034   0.35792   0.78455   0.00000  Uiso   1.00
C1287  C     0.81592   0.64205   0.71578   0.00000  Uiso   1.00
C1288  C     0.81664   0.35668   0.71539   0.00000  Uiso   1.00
C1289  C     0.85040   0.64328   0.78447   0.00000  Uiso   1.00
C1290  C     0.68481   0.45760   0.74607   0.00000  Uiso   1.00
H1291  H     0.86415   0.37655   0.81206   0.00000  Uiso   1.00
H1292  H     0.84614   0.62769   0.57000   0.00000  Uiso   1.00
H1293  H     0.85321   0.64521   0.62678   0.00000  Uiso   1.00
H1294  H     0.80913   0.60814   0.61220   0.00000  Uiso   1.00
H1295  H     0.74401   0.46003   0.89960   0.00000  Uiso   1.00
H1296  H     0.77933   0.39002   0.92535   0.00000  Uiso   1.00
H1297  H     0.80487   0.39132   0.87140   0.00000  Uiso   1.00
H1298  H     0.74868   0.38416   0.87594   0.00000  Uiso   1.00
H1299  H     0.93093   0.52876   0.87786   0.00000  Uiso   1.00
H1300  H     0.92335   0.59803   0.92056   0.00000  Uiso   1.00
H1301  H     0.87700   0.60907   0.88831   0.00000  Uiso   1.00
H1302  H     0.80110   0.62334   0.68901   0.00000  Uiso   1.00
H1303  H     0.92777   0.60952   0.86189   0.00000  Uiso   1.00
H1304  H     0.80986   0.39092   0.59956   0.00000  Uiso   1.00
H1305  H     0.74393   0.43281   0.58512   0.00000  Uiso   1.00
H1306  H     0.75244   0.45704   0.63995   0.00000  Uiso   1.00
H1307  H     0.74403   0.39662   0.63331   0.00000  Uiso   1.00
H1308  H     0.73112   0.34873   0.72431   0.00000  Uiso   1.00
H1309  H     0.91192   0.61702   0.69366   0.00000  Uiso   1.00
H1310  H     0.91076   0.36635   0.69514   0.00000  Uiso   1.00
H1311  H     0.75531   0.57871   0.85704   0.00000  Uiso   1.00
H1312  H     0.80320   0.37426   0.68777   0.00000  Uiso   1.00
H1313  H     0.86415   0.62557   0.81184   0.00000  Uiso   1.00
H1314  H     0.87086   0.56427   0.52781   0.00000  Uiso   1.00
H1315  H     0.78456   0.45919   0.97376   0.00000  Uiso   1.00
H1316  H     0.90352   0.53268   0.96565   0.00000  Uiso   1.00
H1317  H     0.82263   0.42616   0.52902   0.00000  Uiso   1.00
H1318  H     0.89930   0.58523   0.60830   0.00000  Uiso   1.00
N1319  N     0.83333   0.61907   0.75000   0.00000  Uiso   1.00
N1320  N     0.83333   0.38093   0.75000   0.00000  Uiso   1.00
N1321  N     0.86793   0.57770   0.61379   0.00000  Uiso   1.00
N1322  N     0.77282   0.45034   0.88806   0.00000  Uiso   1.00
N1323  N     0.90278   0.54488   0.87814   0.00000  Uiso   1.00
N1324  N     0.80320   0.42204   0.61309   0.00000  Uiso   1.00
O1325  O     0.77226   0.53821   0.75000   0.00000  Uiso   1.00
O1326  O     0.99670   0.37263   0.77237   0.00000  Uiso   1.00
O1327  O     0.72450   0.37991   0.71529   0.00000  Uiso   1.00
O1328  O     0.94372   0.62015   0.77121   0.00000  Uiso   1.00
O1329  O     0.66891   0.62583   0.71833   0.00000  Uiso   1.00
O1330  O     0.93184   0.59231   0.68989   0.00000  Uiso   1.00
O1331  O     0.92721   0.44612   0.65975   0.00000  Uiso   1.00
O1332  O     0.98990   0.40124   0.66395   0.00000  Uiso   1.00
O1333  O     0.92855   0.38125   0.71809   0.00000  Uiso   1.00
O1334  O     0.73370   0.61554   0.77994   0.00000  Uiso   1.00
O1335  O     0.67463   0.60055   0.83058   0.00000  Uiso   1.00
O1336  O     0.89441   0.46179   0.75000   0.00000  Uiso   1.00
O1337  O     0.74095   0.55360   0.84063   0.00000  Uiso   1.00
O1338  O     0.89441   0.53821   0.75001   0.00000  Uiso   1.00
O1339  O     0.77226   0.46179   0.75000   0.00000  Uiso   1.00
O1340  O     0.83333   0.53822   0.68453   0.00000  Uiso   1.00
O1341  O     0.83334   0.46178   0.81547   0.00000  Uiso   1.00
O1342  O     0.83334   0.53822   0.81547   0.00000  Uiso   1.00
O1343  O     0.83333   0.46178   0.68453   0.00000  Uiso   1.00
O1344  O     0.73049   0.40342   0.79819   0.00000  Uiso   1.00
S1345  S     0.70083   0.40207   0.75967   0.00000  Uiso   1.00
S1346  S     0.96493   0.59729   0.73308   0.00000  Uiso   1.00
S1347  S     0.95600   0.42236   0.69085   0.00000  Uiso   1.00
S1348  S     0.70910   0.57918   0.80473   0.00000  Uiso   1.00
Zn1349 Zn    0.83333   0.55104   0.75000   0.00000  Uiso   1.00
Zn1350 Zn    0.83333   0.44896   0.75000   0.00000  Uiso   1.00
C1351  C     0.08640   0.83238   0.75459   0.00000  Uiso   1.00
C1352  C     0.31441   0.87607   0.74998   0.00000  Uiso   1.00
C1353  C     0.31147   0.79587   0.72927   0.00000  Uiso   1.00
C1354  C     0.02110   0.87146   0.76680   0.00000  Uiso   1.00
C1355  C     0.19232   0.86800   0.54586   0.00000  Uiso   1.00
C1356  C     0.14295   0.80863   0.95441   0.00000  Uiso   1.00
C1357  C     0.20929   0.85112   0.94979   0.00000  Uiso   1.00
C1358  C     0.16487   0.79046   0.54653   0.00000  Uiso   1.00
C1359  C     0.18747   0.87063   0.59169   0.00000  Uiso   1.00
C1360  C     0.13991   0.80832   0.90857   0.00000  Uiso   1.00
C1361  C     0.20483   0.85473   0.90396   0.00000  Uiso   1.00
C1362  C     0.24664   0.83430   0.74455   0.00000  Uiso   1.00
C1363  C     0.15782   0.79276   0.59186   0.00000  Uiso   1.00
C1364  C     0.16987   0.83281   0.61517   0.00000  Uiso   1.00
C1365  C     0.17022   0.83273   0.88347   0.00000  Uiso   1.00
C1366  C     0.18014   0.82851   0.52325   0.00000  Uiso   1.00
C1367  C     0.17801   0.82883   0.97505   0.00000  Uiso   1.00
C1368  C     0.29147   0.83655   0.73755   0.00000  Uiso   1.00
C1369  C     0.04117   0.83037   0.75952   0.00000  Uiso   1.00
C1370  C     0.17601   0.94991   0.60516   0.00000  Uiso   1.00
C1371  C     0.11013   0.73487   0.89030   0.00000  Uiso   1.00
C1372  C     0.24122   0.92616   0.88788   0.00000  Uiso   1.00
C1373  C     0.16694   0.83335   0.66361   0.00000  Uiso   1.00
C1374  C     0.09194   0.76097   0.61809   0.00000  Uiso   1.00
C1375  C     0.16703   0.83324   0.83592   0.00000  Uiso   1.00
C1376  C     0.18367   0.69126   0.78455   0.00000  Uiso   1.00
C1377  C     0.14926   0.97539   0.71578   0.00000  Uiso   1.00
C1378  C     0.14997   0.69001   0.71539   0.00000  Uiso   1.00
C1379  C     0.18373   0.97661   0.78447   0.00000  Uiso   1.00
C1380  C     0.01814   0.79093   0.74607   0.00000  Uiso   1.00
H1381  H     0.19748   0.70988   0.81206   0.00000  Uiso   1.00
H1382  H     0.17947   0.96103   0.57000   0.00000  Uiso   1.00
H1383  H     0.18654   0.97854   0.62678   0.00000  Uiso   1.00
H1384  H     0.14247   0.94147   0.61220   0.00000  Uiso   1.00
H1385  H     0.07735   0.79336   0.89960   0.00000  Uiso   1.00
H1386  H     0.11266   0.72336   0.92535   0.00000  Uiso   1.00
H1387  H     0.13821   0.72465   0.87140   0.00000  Uiso   1.00
H1388  H     0.08201   0.71750   0.87594   0.00000  Uiso   1.00
H1389  H     0.26426   0.86209   0.87786   0.00000  Uiso   1.00
H1390  H     0.25668   0.93137   0.92056   0.00000  Uiso   1.00
H1391  H     0.21034   0.94241   0.88831   0.00000  Uiso   1.00
H1392  H     0.13443   0.95668   0.68901   0.00000  Uiso   1.00
H1393  H     0.26110   0.94286   0.86189   0.00000  Uiso   1.00
H1394  H     0.14320   0.72425   0.59956   0.00000  Uiso   1.00
H1395  H     0.07726   0.76615   0.58512   0.00000  Uiso   1.00
H1396  H     0.08578   0.79037   0.63995   0.00000  Uiso   1.00
H1397  H     0.07736   0.72995   0.63331   0.00000  Uiso   1.00
H1398  H     0.06445   0.68207   0.72431   0.00000  Uiso   1.00
H1399  H     0.24526   0.95036   0.69366   0.00000  Uiso   1.00
H1400  H     0.24409   0.69968   0.69514   0.00000  Uiso   1.00
H1401  H     0.08865   0.91204   0.85704   0.00000  Uiso   1.00
H1402  H     0.13653   0.70759   0.68777   0.00000  Uiso   1.00
H1403  H     0.19748   0.95890   0.81184   0.00000  Uiso   1.00
H1404  H     0.20419   0.89760   0.52781   0.00000  Uiso   1.00
H1405  H     0.11789   0.79252   0.97376   0.00000  Uiso   1.00
H1406  H     0.23685   0.86601   0.96565   0.00000  Uiso   1.00
H1407  H     0.15596   0.75950   0.52902   0.00000  Uiso   1.00
H1408  H     0.23263   0.91856   0.60830   0.00000  Uiso   1.00
N1409  N     0.16667   0.95240   0.75000   0.00000  Uiso   1.00
N1410  N     0.16667   0.71427   0.75000   0.00000  Uiso   1.00
N1411  N     0.20126   0.91103   0.61379   0.00000  Uiso   1.00
N1412  N     0.10615   0.78368   0.88806   0.00000  Uiso   1.00
N1413  N     0.23612   0.87821   0.87814   0.00000  Uiso   1.00
N1414  N     0.13653   0.75537   0.61309   0.00000  Uiso   1.00
O1415  O     0.10559   0.87154   0.75000   0.00000  Uiso   1.00
O1416  O     0.33003   0.70596   0.77237   0.00000  Uiso   1.00
O1417  O     0.05784   0.71325   0.71529   0.00000  Uiso   1.00
O1418  O     0.27706   0.95349   0.77121   0.00000  Uiso   1.00
O1419  O     0.00224   0.95917   0.71833   0.00000  Uiso   1.00
O1420  O     0.26518   0.92564   0.68989   0.00000  Uiso   1.00
O1421  O     0.26055   0.77945   0.65975   0.00000  Uiso   1.00
O1422  O     0.32323   0.73458   0.66395   0.00000  Uiso   1.00
O1423  O     0.26189   0.71459   0.71809   0.00000  Uiso   1.00
O1424  O     0.06704   0.94887   0.77994   0.00000  Uiso   1.00
O1425  O     0.00796   0.93388   0.83058   0.00000  Uiso   1.00
O1426  O     0.22774   0.79513   0.75000   0.00000  Uiso   1.00
O1427  O     0.07428   0.88694   0.84063   0.00000  Uiso   1.00
O1428  O     0.22774   0.87154   0.75001   0.00000  Uiso   1.00
O1429  O     0.10559   0.79513   0.75000   0.00000  Uiso   1.00
O1430  O     0.16666   0.87155   0.68453   0.00000  Uiso   1.00
O1431  O     0.16667   0.79511   0.81547   0.00000  Uiso   1.00
O1432  O     0.16667   0.87155   0.81547   0.00000  Uiso   1.00
O1433  O     0.16666   0.79511   0.68453   0.00000  Uiso   1.00
O1434  O     0.06383   0.73675   0.79819   0.00000  Uiso   1.00
S1435  S     0.03416   0.73541   0.75967   0.00000  Uiso   1.00
S1436  S     0.29827   0.93062   0.73308   0.00000  Uiso   1.00
S1437  S     0.28933   0.75569   0.69085   0.00000  Uiso   1.00
S1438  S     0.04244   0.91251   0.80473   0.00000  Uiso   1.00
Zn1439 Zn    0.16667   0.88437   0.75000   0.00000  Uiso   1.00
Zn1440 Zn    0.16667   0.78229   0.75000   0.00000  Uiso   1.00
C1441  C     0.41973   0.83238   0.75459   0.00000  Uiso   1.00
C1442  C     0.64775   0.87607   0.74998   0.00000  Uiso   1.00
C1443  C     0.64480   0.79587   0.72927   0.00000  Uiso   1.00
C1444  C     0.35443   0.87146   0.76680   0.00000  Uiso   1.00
C1445  C     0.52565   0.86800   0.54586   0.00000  Uiso   1.00
C1446  C     0.47629   0.80863   0.95441   0.00000  Uiso   1.00
C1447  C     0.54262   0.85112   0.94979   0.00000  Uiso   1.00
C1448  C     0.49820   0.79046   0.54653   0.00000  Uiso   1.00
C1449  C     0.52080   0.87063   0.59169   0.00000  Uiso   1.00
C1450  C     0.47324   0.80832   0.90857   0.00000  Uiso   1.00
C1451  C     0.53816   0.85473   0.90396   0.00000  Uiso   1.00
C1452  C     0.57998   0.83430   0.74455   0.00000  Uiso   1.00
C1453  C     0.49115   0.79276   0.59186   0.00000  Uiso   1.00
C1454  C     0.50320   0.83281   0.61517   0.00000  Uiso   1.00
C1455  C     0.50355   0.83273   0.88347   0.00000  Uiso   1.00
C1456  C     0.51347   0.82851   0.52325   0.00000  Uiso   1.00
C1457  C     0.51134   0.82883   0.97505   0.00000  Uiso   1.00
C1458  C     0.62481   0.83655   0.73755   0.00000  Uiso   1.00
C1459  C     0.37450   0.83037   0.75952   0.00000  Uiso   1.00
C1460  C     0.50935   0.94991   0.60516   0.00000  Uiso   1.00
C1461  C     0.44346   0.73487   0.89030   0.00000  Uiso   1.00
C1462  C     0.57456   0.92616   0.88788   0.00000  Uiso   1.00
C1463  C     0.50028   0.83335   0.66361   0.00000  Uiso   1.00
C1464  C     0.42528   0.76097   0.61809   0.00000  Uiso   1.00
C1465  C     0.50036   0.83324   0.83592   0.00000  Uiso   1.00
C1466  C     0.51700   0.69126   0.78455   0.00000  Uiso   1.00
C1467  C     0.48259   0.97539   0.71578   0.00000  Uiso   1.00
C1468  C     0.48331   0.69001   0.71539   0.00000  Uiso   1.00
C1469  C     0.51706   0.97661   0.78447   0.00000  Uiso   1.00
C1470  C     0.35148   0.79093   0.74607   0.00000  Uiso   1.00
H1471  H     0.53081   0.70988   0.81206   0.00000  Uiso   1.00
H1472  H     0.51281   0.96103   0.57000   0.00000  Uiso   1.00
H1473  H     0.51988   0.97854   0.62678   0.00000  Uiso   1.00
H1474  H     0.47580   0.94147   0.61220   0.00000  Uiso   1.00
H1475  H     0.41068   0.79336   0.89960   0.00000  Uiso   1.00
H1476  H     0.44600   0.72336   0.92535   0.00000  Uiso   1.00
H1477  H     0.47154   0.72465   0.87140   0.00000  Uiso   1.00
H1478  H     0.41534   0.71750   0.87594   0.00000  Uiso   1.00
H1479  H     0.59760   0.86209   0.87786   0.00000  Uiso   1.00
H1480  H     0.59001   0.93137   0.92056   0.00000  Uiso   1.00
H1481  H     0.54367   0.94241   0.88831   0.00000  Uiso   1.00
H1482  H     0.46777   0.95668   0.68901   0.00000  Uiso   1.00
H1483  H     0.59443   0.94286   0.86189   0.00000  Uiso   1.00
H1484  H     0.47653   0.72425   0.59956   0.00000  Uiso   1.00
H1485  H     0.41059   0.76615   0.58512   0.00000  Uiso   1.00
H1486  H     0.41911   0.79037   0.63995   0.00000  Uiso   1.00
H1487  H     0.41069   0.72995   0.63331   0.00000  Uiso   1.00
H1488  H     0.39778   0.68207   0.72431   0.00000  Uiso   1.00
H1489  H     0.57859   0.95036   0.69366   0.00000  Uiso   1.00
H1490  H     0.57743   0.69968   0.69514   0.00000  Uiso   1.00
H1491  H     0.42198   0.91204   0.85704   0.00000  Uiso   1.00
H1492  H     0.46987   0.70759   0.68777   0.00000  Uiso   1.00
H1493  H     0.53081   0.95890   0.81184   0.00000  Uiso   1.00
H1494  H     0.53752   0.89760   0.52781   0.00000  Uiso   1.00
H1495  H     0.45122   0.79252   0.97376   0.00000  Uiso   1.00
H1496  H     0.57018   0.86601   0.96565   0.00000  Uiso   1.00
H1497  H     0.48929   0.75950   0.52902   0.00000  Uiso   1.00
H1498  H     0.56596   0.91856   0.60830   0.00000  Uiso   1.00
N1499  N     0.50000   0.95240   0.75000   0.00000  Uiso   1.00
N1500  N     0.50000   0.71427   0.75000   0.00000  Uiso   1.00
N1501  N     0.53459   0.91103   0.61379   0.00000  Uiso   1.00
N1502  N     0.43948   0.78368   0.88806   0.00000  Uiso   1.00
N1503  N     0.56945   0.87821   0.87814   0.00000  Uiso   1.00
N1504  N     0.46987   0.75537   0.61309   0.00000  Uiso   1.00
O1505  O     0.43892   0.87154   0.75000   0.00000  Uiso   1.00
O1506  O     0.66337   0.70596   0.77237   0.00000  Uiso   1.00
O1507  O     0.39117   0.71325   0.71529   0.00000  Uiso   1.00
O1508  O     0.61039   0.95349   0.77121   0.00000  Uiso   1.00
O1509  O     0.33558   0.95917   0.71833   0.00000  Uiso   1.00
O1510  O     0.59851   0.92564   0.68989   0.00000  Uiso   1.00
O1511  O     0.59388   0.77945   0.65975   0.00000  Uiso   1.00
O1512  O     0.65657   0.73458   0.66395   0.00000  Uiso   1.00
O1513  O     0.59522   0.71459   0.71809   0.00000  Uiso   1.00
O1514  O     0.40037   0.94887   0.77994   0.00000  Uiso   1.00
O1515  O     0.34130   0.93388   0.83058   0.00000  Uiso   1.00
O1516  O     0.56108   0.79513   0.75000   0.00000  Uiso   1.00
O1517  O     0.40762   0.88694   0.84063   0.00000  Uiso   1.00
O1518  O     0.56108   0.87154   0.75001   0.00000  Uiso   1.00
O1519  O     0.43892   0.79513   0.75000   0.00000  Uiso   1.00
O1520  O     0.50000   0.87155   0.68453   0.00000  Uiso   1.00
O1521  O     0.50000   0.79511   0.81547   0.00000  Uiso   1.00
O1522  O     0.50000   0.87155   0.81547   0.00000  Uiso   1.00
O1523  O     0.50000   0.79511   0.68453   0.00000  Uiso   1.00
O1524  O     0.39716   0.73675   0.79819   0.00000  Uiso   1.00
S1525  S     0.36750   0.73541   0.75967   0.00000  Uiso   1.00
S1526  S     0.63160   0.93062   0.73308   0.00000  Uiso   1.00
S1527  S     0.62266   0.75569   0.69085   0.00000  Uiso   1.00
S1528  S     0.37577   0.91251   0.80473   0.00000  Uiso   1.00
Zn1529 Zn    0.50000   0.88437   0.75000   0.00000  Uiso   1.00
Zn1530 Zn    0.50000   0.78229   0.75000   0.00000  Uiso   1.00
C1531  C     0.75307   0.83238   0.75459   0.00000  Uiso   1.00
C1532  C     0.98108   0.87607   0.74998   0.00000  Uiso   1.00
C1533  C     0.97814   0.79587   0.72927   0.00000  Uiso   1.00
C1534  C     0.68776   0.87146   0.76680   0.00000  Uiso   1.00
C1535  C     0.85899   0.86800   0.54586   0.00000  Uiso   1.00
C1536  C     0.80962   0.80863   0.95441   0.00000  Uiso   1.00
C1537  C     0.87595   0.85112   0.94979   0.00000  Uiso   1.00
C1538  C     0.83153   0.79046   0.54653   0.00000  Uiso   1.00
C1539  C     0.85413   0.87063   0.59169   0.00000  Uiso   1.00
C1540  C     0.80657   0.80832   0.90857   0.00000  Uiso   1.00
C1541  C     0.87149   0.85473   0.90396   0.00000  Uiso   1.00
C1542  C     0.91331   0.83430   0.74455   0.00000  Uiso   1.00
C1543  C     0.82449   0.79276   0.59186   0.00000  Uiso   1.00
C1544  C     0.83654   0.83281   0.61517   0.00000  Uiso   1.00
C1545  C     0.83688   0.83273   0.88347   0.00000  Uiso   1.00
C1546  C     0.84680   0.82851   0.52325   0.00000  Uiso   1.00
C1547  C     0.84468   0.82883   0.97505   0.00000  Uiso   1.00
C1548  C     0.95814   0.83655   0.73755   0.00000  Uiso   1.00
C1549  C     0.70783   0.83037   0.75952   0.00000  Uiso   1.00
C1550  C     0.84268   0.94991   0.60516   0.00000  Uiso   1.00
C1551  C     0.77679   0.73487   0.89030   0.00000  Uiso   1.00
C1552  C     0.90789   0.92616   0.88788   0.00000  Uiso   1.00
C1553  C     0.83361   0.83335   0.66361   0.00000  Uiso   1.00
C1554  C     0.75861   0.76097   0.61809   0.00000  Uiso   1.00
C1555  C     0.83370   0.83324   0.83592   0.00000  Uiso   1.00
C1556  C     0.85034   0.69126   0.78455   0.00000  Uiso   1.00
C1557  C     0.81592   0.97539   0.71578   0.00000  Uiso   1.00
C1558  C     0.81664   0.69001   0.71539   0.00000  Uiso   1.00
C1559  C     0.85040   0.97661   0.78447   0.00000  Uiso   1.00
C1560  C     0.68481   0.79093   0.74607   0.00000  Uiso   1.00
H1561  H     0.86415   0.70988   0.81206   0.00000  Uiso   1.00
H1562  H     0.84614   0.96103   0.57000   0.00000  Uiso   1.00
H1563  H     0.85321   0.97854   0.62678   0.00000  Uiso   1.00
H1564  H     0.80913   0.94147   0.61220   0.00000  Uiso   1.00
H1565  H     0.74401   0.79336   0.89960   0.00000  Uiso   1.00
H1566  H     0.77933   0.72336   0.92535   0.00000  Uiso   1.00
H1567  H     0.80487   0.72465   0.87140   0.00000  Uiso   1.00
H1568  H     0.74868   0.71750   0.87594   0.00000  Uiso   1.00
H1569  H     0.93093   0.86209   0.87786   0.00000  Uiso   1.00
H1570  H     0.92335   0.93137   0.92056   0.00000  Uiso   1.00
H1571  H     0.87700   0.94241   0.88831   0.00000  Uiso   1.00
H1572  H     0.80110   0.95668   0.68901   0.00000  Uiso   1.00
H1573  H     0.92777   0.94286   0.86189   0.00000  Uiso   1.00
H1574  H     0.80986   0.72425   0.59956   0.00000  Uiso   1.00
H1575  H     0.74393   0.76615   0.58512   0.00000  Uiso   1.00
H1576  H     0.75244   0.79037   0.63995   0.00000  Uiso   1.00
H1577  H     0.74403   0.72995   0.63331   0.00000  Uiso   1.00
H1578  H     0.73112   0.68207   0.72431   0.00000  Uiso   1.00
H1579  H     0.91192   0.95036   0.69366   0.00000  Uiso   1.00
H1580  H     0.91076   0.69968   0.69514   0.00000  Uiso   1.00
H1581  H     0.75531   0.91204   0.85704   0.00000  Uiso   1.00
H1582  H     0.80320   0.70759   0.68777   0.00000  Uiso   1.00
H1583  H     0.86415   0.95890   0.81184   0.00000  Uiso   1.00
H1584  H     0.87086   0.89760   0.52781   0.00000  Uiso   1.00
H1585  H     0.78456   0.79252   0.97376   0.00000  Uiso   1.00
H1586  H     0.90352   0.86601   0.96565   0.00000  Uiso   1.00
H1587  H     0.82263   0.75950   0.52902   0.00000  Uiso   1.00
H1588  H     0.89930   0.91856   0.60830   0.00000  Uiso   1.00
N1589  N     0.83333   0.95240   0.75000   0.00000  Uiso   1.00
N1590  N     0.83333   0.71427   0.75000   0.00000  Uiso   1.00
N1591  N     0.86793   0.91103   0.61379   0.00000  Uiso   1.00
N1592  N     0.77282   0.78368   0.88806   0.00000  Uiso   1.00
N1593  N     0.90278   0.87821   0.87814   0.00000  Uiso   1.00
N1594  N     0.80320   0.75537   0.61309   0.00000  Uiso   1.00
O1595  O     0.77226   0.87154   0.75000   0.00000  Uiso   1.00
O1596  O     0.99670   0.70596   0.77237   0.00000  Uiso   1.00
O1597  O     0.72450   0.71325   0.71529   0.00000  Uiso   1.00
O1598  O     0.94372   0.95349   0.77121   0.00000  Uiso   1.00
O1599  O     0.66891   0.95917   0.71833   0.00000  Uiso   1.00
O1600  O     0.93184   0.92564   0.68989   0.00000  Uiso   1.00
O1601  O     0.92721   0.77945   0.65975   0.00000  Uiso   1.00
O1602  O     0.98990   0.73458   0.66395   0.00000  Uiso   1.00
O1603  O     0.92855   0.71459   0.71809   0.00000  Uiso   1.00
O1604  O     0.73370   0.94887   0.77994   0.00000  Uiso   1.00
O1605  O     0.67463   0.93388   0.83058   0.00000  Uiso   1.00
O1606  O     0.89441   0.79513   0.75000   0.00000  Uiso   1.00
O1607  O     0.74095   0.88694   0.84063   0.00000  Uiso   1.00
O1608  O     0.89441   0.87154   0.75001   0.00000  Uiso   1.00
O1609  O     0.77226   0.79513   0.75000   0.00000  Uiso   1.00
O1610  O     0.83333   0.87155   0.68453   0.00000  Uiso   1.00
O1611  O     0.83334   0.79511   0.81547   0.00000  Uiso   1.00
O1612  O     0.83334   0.87155   0.81547   0.00000  Uiso   1.00
O1613  O     0.83333   0.79511   0.68453   0.00000  Uiso   1.00
O1614  O     0.73049   0.73675   0.79819   0.00000  Uiso   1.00
S1615  S     0.70083   0.73541   0.75967   0.00000  Uiso   1.00
S1616  S     0.96493   0.93062   0.73308   0.00000  Uiso   1.00
S1617  S     0.95600   0.75569   0.69085   0.00000  Uiso   1.00
S1618  S     0.70910   0.91251   0.80473   0.00000  Uiso   1.00
Zn1619 Zn    0.83333   0.88437   0.75000   0.00000  Uiso   1.00
Zn1620 Zn    0.83333   0.78229   0.75000   0.00000  Uiso   1.00
loop_
_geom_bond_atom_site_label_1
_geom_bond_atom_site_label_2
_geom_bond_distance
_geom_bond_site_symmetry_2
_ccdc_geom_bond_type
C1     O65     1.295   .     A
C1     C19     1.451   .     S
C1     O79     1.283   .     A
C2     C18     1.406   .     A
C2     S86     1.779   .     S
C2     C94     1.388   .     S
C3     C18     1.400   .     A
C3     S87     1.786   .     S
C3     C120    1.389   .     S
C4     C19     1.406   .     A
C4     S88     1.785   .     S
C4     C182    1.388   1_455 S
C5     C16     1.393   .     A
C5     H54     1.083   .     S
C5     C9      1.390   .     A
C6     H55     1.083   .     S
C6     C17     1.398   .     A
C6     C10     1.383   .     A
C7     H56     1.083   .     S
C7     C11     1.391   .     A
C7     C17     1.397   .     A
C8     C13     1.384   .     A
C8     H57     1.084   .     S
C8     C16     1.393   .     A
C9     N61     1.422   .     S
C9     C14     1.417   .     A
C10    C15     1.403   .     A
C10    N62     1.423   .     S
C11    N63     1.423   .     S
C11    C15     1.407   .     A
C12    O78     1.281   .     A
C12    O76     1.294   .     A
C12    C18     1.446   .     S
C13    C14     1.416   .     A
C13    N64     1.423   .     S
C14    C23     1.460   .     S
C15    C25     1.435   .     S
C16    C827    1.453   1_554 S
C17    C826    1.453   .     S
C19    C30     1.414   .     A
C20    N61     1.448   .     S
C20    H34     1.111   .     S
C20    H33     1.110   .     S
C20    H32     1.111   .     S
C21    H36     1.112   .     S
C21    H38     1.108   .     S
C21    N62     1.449   .     S
C21    H37     1.111   .     S
C22    H41     1.111   .     S
C22    N63     1.447   .     S
C22    H43     1.109   .     S
C22    H40     1.111   .     S
C23    O83     1.289   .     A
C23    O80     1.291   .     A
C24    H45     1.112   .     S
C24    N64     1.447   .     S
C24    H47     1.109   .     S
C24    H46     1.111   .     S
C25    O81     1.281   .     A
C25    O82     1.285   .     A
C26    H31     1.081   .     S
C26    N60     1.365   .     A
C26    C569    1.414   1_545 S
C27    N59     1.363   .     A
C27    H42     1.079   .     S
C27    C298    1.412   .     S
C28    N60     1.364   .     A
C28    H52     1.077   .     S
C28    C567    1.412   1_545 S
C29    N59     1.365   .     A
C29    H53     1.078   .     S
C29    C296    1.414   .     S
C30    S85     1.779   .     S
C30    C183    1.389   1_455 S
H35    N62     1.032   .     S
H39    N63     1.031   .     S
H44    N64     1.032   .     S
H48    O67     0.988   .     S
H49    O70     0.990   .     S
H50    O73     0.990   .     S
H51    O77     0.991   .     S
H58    N61     1.031   .     S
N59    Zn89    2.004   .     S
N60    Zn90    2.004   .     S
O65    Zn89    1.974   .     S
O66    S175    1.501   .     S
O67    S85     1.676   .     S
O68    S86     1.502   .     D
O69    S266    1.500   1_455 S
O70    S86     1.682   .     S
O71    S87     1.504   .     D
O72    S87     1.502   .     D
O73    S87     1.680   .     S
O74    S88     1.502   .     D
O75    S88     1.502   .     D
O76    Zn90    1.974   .     S
O77    S88     1.682   .     S
O78    Zn89    2.000   .     S
O79    Zn90    2.000   .     S
O80    Zn89    2.007   .     S
O81    Zn90    2.007   .     S
O82    Zn89    2.005   .     S
O83    Zn90    2.005   .     S
O84    S85     1.500   .     D
S85    O246    1.501   1_455 S
S86    O159    1.500   .     S
C91    O155    1.295   .     A
C91    C109    1.451   .     S
C91    O169    1.283   .     A
C92    C108    1.406   .     A
C92    S176    1.779   .     S
C92    C184    1.388   .     S
C93    C108    1.400   .     A
C93    S177    1.786   .     S
C93    C210    1.389   .     S
C94    C109    1.406   .     A
C94    S178    1.785   .     S
C95    C106    1.393   .     A
C95    H144    1.083   .     S
C95    C99     1.390   .     A
C96    H145    1.083   .     S
C96    C107    1.398   .     A
C96    C100    1.383   .     A
C97    H146    1.083   .     S
C97    C101    1.391   .     A
C97    C107    1.397   .     A
C98    C103    1.384   .     A
C98    H147    1.084   .     S
C98    C106    1.393   .     A
C99    N151    1.422   .     S
C99    C104    1.417   .     A
C100   C105    1.403   .     A
C100   N152    1.423   .     S
C101   N153    1.423   .     S
C101   C105    1.407   .     A
C102   O168    1.281   .     A
C102   O166    1.294   .     A
C102   C108    1.446   .     S
C103   C104    1.416   .     A
C103   N154    1.423   .     S
C104   C113    1.460   .     S
C105   C115    1.435   .     S
C106   C917    1.453   1_554 S
C107   C916    1.453   .     S
C109   C120    1.414   .     A
C110   N151    1.448   .     S
C110   H124    1.111   .     S
C110   H123    1.110   .     S
C110   H122    1.111   .     S
C111   H126    1.112   .     S
C111   H128    1.108   .     S
C111   N152    1.449   .     S
C111   H127    1.111   .     S
C112   H131    1.111   .     S
C112   N153    1.447   .     S
C112   H133    1.109   .     S
C112   H130    1.111   .     S
C113   O173    1.289   .     A
C113   O170    1.291   .     A
C114   H135    1.112   .     S
C114   N154    1.447   .     S
C114   H137    1.109   .     S
C114   H136    1.111   .     S
C115   O171    1.281   .     A
C115   O172    1.285   .     A
C116   H121    1.081   .     S
C116   N150    1.365   .     A
C116   C659    1.414   1_545 S
C117   N149    1.363   .     A
C117   H132    1.079   .     S
C117   C388    1.412   .     S
C118   N150    1.364   .     A
C118   H142    1.077   .     S
C118   C657    1.412   1_545 S
C119   N149    1.365   .     A
C119   H143    1.078   .     S
C119   C386    1.414   .     S
C120   S175    1.779   .     S
H125   N152    1.032   .     S
H129   N153    1.031   .     S
H134   N154    1.032   .     S
H138   O157    0.988   .     S
H139   O160    0.990   .     S
H140   O163    0.990   .     S
H141   O167    0.991   .     S
H148   N151    1.031   .     S
N149   Zn179   2.004   .     S
N150   Zn180   2.004   .     S
O155   Zn179   1.974   .     S
O156   S265    1.501   .     S
O157   S175    1.676   .     S
O158   S176    1.502   .     D
O160   S176    1.682   .     S
O161   S177    1.504   .     D
O162   S177    1.502   .     D
O163   S177    1.680   .     S
O164   S178    1.502   .     D
O165   S178    1.502   .     D
O166   Zn180   1.974   .     S
O167   S178    1.682   .     S
O168   Zn179   2.000   .     S
O169   Zn180   2.000   .     S
O170   Zn179   2.007   .     S
O171   Zn180   2.007   .     S
O172   Zn179   2.005   .     S
O173   Zn180   2.005   .     S
O174   S175    1.500   .     D
S176   O249    1.500   .     S
C181   O245    1.295   .     A
C181   C199    1.451   .     S
C181   O259    1.283   .     A
C182   C198    1.406   .     A
C182   S266    1.779   .     S
C182   C4      1.388   1_655 S
C183   C198    1.400   .     A
C183   S267    1.786   .     S
C183   C30     1.389   1_655 S
C184   C199    1.406   .     A
C184   S268    1.785   .     S
C185   C196    1.393   .     A
C185   H234    1.083   .     S
C185   C189    1.390   .     A
C186   H235    1.083   .     S
C186   C197    1.398   .     A
C186   C190    1.383   .     A
C187   H236    1.083   .     S
C187   C191    1.391   .     A
C187   C197    1.397   .     A
C188   C193    1.384   .     A
C188   H237    1.084   .     S
C188   C196    1.393   .     A
C189   N241    1.422   .     S
C189   C194    1.417   .     A
C190   C195    1.403   .     A
C190   N242    1.423   .     S
C191   N243    1.423   .     S
C191   C195    1.407   .     A
C192   O258    1.281   .     A
C192   O256    1.294   .     A
C192   C198    1.446   .     S
C193   C194    1.416   .     A
C193   N244    1.423   .     S
C194   C203    1.460   .     S
C195   C205    1.435   .     S
C196   C1007   1.453   1_554 S
C197   C1006   1.453   .     S
C199   C210    1.414   .     A
C200   N241    1.448   .     S
C200   H214    1.111   .     S
C200   H213    1.110   .     S
C200   H212    1.111   .     S
C201   H216    1.112   .     S
C201   H218    1.108   .     S
C201   N242    1.449   .     S
C201   H217    1.111   .     S
C202   H221    1.111   .     S
C202   N243    1.447   .     S
C202   H223    1.109   .     S
C202   H220    1.111   .     S
C203   O263    1.289   .     A
C203   O260    1.291   .     A
C204   H225    1.112   .     S
C204   N244    1.447   .     S
C204   H227    1.109   .     S
C204   H226    1.111   .     S
C205   O261    1.281   .     A
C205   O262    1.285   .     A
C206   H211    1.081   .     S
C206   N240    1.365   .     A
C206   C749    1.414   1_545 S
C207   N239    1.363   .     A
C207   H222    1.079   .     S
C207   C478    1.412   .     S
C208   N240    1.364   .     A
C208   H232    1.077   .     S
C208   C747    1.412   1_545 S
C209   N239    1.365   .     A
C209   H233    1.078   .     S
C209   C476    1.414   .     S
C210   S265    1.779   .     S
H215   N242    1.032   .     S
H219   N243    1.031   .     S
H224   N244    1.032   .     S
H228   O247    0.988   .     S
H229   O250    0.990   .     S
H230   O253    0.990   .     S
H231   O257    0.991   .     S
H238   N241    1.031   .     S
N239   Zn269   2.004   .     S
N240   Zn270   2.004   .     S
O245   Zn269   1.974   .     S
O246   S85     1.501   1_655 S
O247   S265    1.676   .     S
O248   S266    1.502   .     D
O250   S266    1.682   .     S
O251   S267    1.504   .     D
O252   S267    1.502   .     D
O253   S267    1.680   .     S
O254   S268    1.502   .     D
O255   S268    1.502   .     D
O256   Zn270   1.974   .     S
O257   S268    1.682   .     S
O258   Zn269   2.000   .     S
O259   Zn270   2.000   .     S
O260   Zn269   2.007   .     S
O261   Zn270   2.007   .     S
O262   Zn269   2.005   .     S
O263   Zn270   2.005   .     S
O264   S265    1.500   .     D
S266   O69     1.500   1_655 S
C271   O335    1.295   .     A
C271   C289    1.451   .     S
C271   O349    1.283   .     A
C272   C288    1.406   .     A
C272   S356    1.779   .     S
C272   C364    1.388   .     S
C273   C288    1.400   .     A
C273   S357    1.786   .     S
C273   C390    1.389   .     S
C274   C289    1.406   .     A
C274   S358    1.785   .     S
C274   C452    1.388   1_455 S
C275   C286    1.393   .     A
C275   H324    1.083   .     S
C275   C279    1.390   .     A
C276   H325    1.083   .     S
C276   C287    1.398   .     A
C276   C280    1.383   .     A
C277   H326    1.083   .     S
C277   C281    1.391   .     A
C277   C287    1.397   .     A
C278   C283    1.384   .     A
C278   H327    1.084   .     S
C278   C286    1.393   .     A
C279   N331    1.422   .     S
C279   C284    1.417   .     A
C280   C285    1.403   .     A
C280   N332    1.423   .     S
C281   N333    1.423   .     S
C281   C285    1.407   .     A
C282   O348    1.281   .     A
C282   O346    1.294   .     A
C282   C288    1.446   .     S
C283   C284    1.416   .     A
C283   N334    1.423   .     S
C284   C293    1.460   .     S
C285   C295    1.435   .     S
C286   C1097   1.453   1_554 S
C287   C1096   1.453   .     S
C289   C300    1.414   .     A
C290   N331    1.448   .     S
C290   H304    1.111   .     S
C290   H303    1.110   .     S
C290   H302    1.111   .     S
C291   H306    1.112   .     S
C291   H308    1.108   .     S
C291   N332    1.449   .     S
C291   H307    1.111   .     S
C292   H311    1.111   .     S
C292   N333    1.447   .     S
C292   H313    1.109   .     S
C292   H310    1.111   .     S
C293   O353    1.289   .     A
C293   O350    1.291   .     A
C294   H315    1.112   .     S
C294   N334    1.447   .     S
C294   H317    1.109   .     S
C294   H316    1.111   .     S
C295   O351    1.281   .     A
C295   O352    1.285   .     A
C296   H301    1.081   .     S
C296   N330    1.365   .     A
C297   N329    1.363   .     A
C297   H312    1.079   .     S
C297   C568    1.412   .     S
C298   N330    1.364   .     A
C298   H322    1.077   .     S
C299   N329    1.365   .     A
C299   H323    1.078   .     S
C299   C566    1.414   .     S
C300   S355    1.779   .     S
C300   C453    1.389   1_455 S
H305   N332    1.032   .     S
H309   N333    1.031   .     S
H314   N334    1.032   .     S
H318   O337    0.988   .     S
H319   O340    0.990   .     S
H320   O343    0.990   .     S
H321   O347    0.991   .     S
H328   N331    1.031   .     S
N329   Zn359   2.004   .     S
N330   Zn360   2.004   .     S
O335   Zn359   1.974   .     S
O336   S445    1.501   .     S
O337   S355    1.676   .     S
O338   S356    1.502   .     D
O339   S536    1.500   1_455 S
O340   S356    1.682   .     S
O341   S357    1.504   .     D
O342   S357    1.502   .     D
O343   S357    1.680   .     S
O344   S358    1.502   .     D
O345   S358    1.502   .     D
O346   Zn360   1.974   .     S
O347   S358    1.682   .     S
O348   Zn359   2.000   .     S
O349   Zn360   2.000   .     S
O350   Zn359   2.007   .     S
O351   Zn360   2.007   .     S
O352   Zn359   2.005   .     S
O353   Zn360   2.005   .     S
O354   S355    1.500   .     D
S355   O516    1.501   1_455 S
S356   O429    1.500   .     S
C361   O425    1.295   .     A
C361   C379    1.451   .     S
C361   O439    1.283   .     A
C362   C378    1.406   .     A
C362   S446    1.779   .     S
C362   C454    1.388   .     S
C363   C378    1.400   .     A
C363   S447    1.786   .     S
C363   C480    1.389   .     S
C364   C379    1.406   .     A
C364   S448    1.785   .     S
C365   C376    1.393   .     A
C365   H414    1.083   .     S
C365   C369    1.390   .     A
C366   H415    1.083   .     S
C366   C377    1.398   .     A
C366   C370    1.383   .     A
C367   H416    1.083   .     S
C367   C371    1.391   .     A
C367   C377    1.397   .     A
C368   C373    1.384   .     A
C368   H417    1.084   .     S
C368   C376    1.393   .     A
C369   N421    1.422   .     S
C369   C374    1.417   .     A
C370   C375    1.403   .     A
C370   N422    1.423   .     S
C371   N423    1.423   .     S
C371   C375    1.407   .     A
C372   O438    1.281   .     A
C372   O436    1.294   .     A
C372   C378    1.446   .     S
C373   C374    1.416   .     A
C373   N424    1.423   .     S
C374   C383    1.460   .     S
C375   C385    1.435   .     S
C376   C1187   1.453   1_554 S
C377   C1186   1.453   .     S
C379   C390    1.414   .     A
C380   N421    1.448   .     S
C380   H394    1.111   .     S
C380   H393    1.110   .     S
C380   H392    1.111   .     S
C381   H396    1.112   .     S
C381   H398    1.108   .     S
C381   N422    1.449   .     S
C381   H397    1.111   .     S
C382   H401    1.111   .     S
C382   N423    1.447   .     S
C382   H403    1.109   .     S
C382   H400    1.111   .     S
C383   O443    1.289   .     A
C383   O440    1.291   .     A
C384   H405    1.112   .     S
C384   N424    1.447   .     S
C384   H407    1.109   .     S
C384   H406    1.111   .     S
C385   O441    1.281   .     A
C385   O442    1.285   .     A
C386   H391    1.081   .     S
C386   N420    1.365   .     A
C387   N419    1.363   .     A
C387   H402    1.079   .     S
C387   C658    1.412   .     S
C388   N420    1.364   .     A
C388   H412    1.077   .     S
C389   N419    1.365   .     A
C389   H413    1.078   .     S
C389   C656    1.414   .     S
C390   S445    1.779   .     S
H395   N422    1.032   .     S
H399   N423    1.031   .     S
H404   N424    1.032   .     S
H408   O427    0.988   .     S
H409   O430    0.990   .     S
H410   O433    0.990   .     S
H411   O437    0.991   .     S
H418   N421    1.031   .     S
N419   Zn449   2.004   .     S
N420   Zn450   2.004   .     S
O425   Zn449   1.974   .     S
O426   S535    1.501   .     S
O427   S445    1.676   .     S
O428   S446    1.502   .     D
O430   S446    1.682   .     S
O431   S447    1.504   .     D
O432   S447    1.502   .     D
O433   S447    1.680   .     S
O434   S448    1.502   .     D
O435   S448    1.502   .     D
O436   Zn450   1.974   .     S
O437   S448    1.682   .     S
O438   Zn449   2.000   .     S
O439   Zn450   2.000   .     S
O440   Zn449   2.007   .     S
O441   Zn450   2.007   .     S
O442   Zn449   2.005   .     S
O443   Zn450   2.005   .     S
O444   S445    1.500   .     D
S446   O519    1.500   .     S
C451   O515    1.295   .     A
C451   C469    1.451   .     S
C451   O529    1.283   .     A
C452   C468    1.406   .     A
C452   S536    1.779   .     S
C452   C274    1.388   1_655 S
C453   C468    1.400   .     A
C453   S537    1.786   .     S
C453   C300    1.389   1_655 S
C454   C469    1.406   .     A
C454   S538    1.785   .     S
C455   C466    1.393   .     A
C455   H504    1.083   .     S
C455   C459    1.390   .     A
C456   H505    1.083   .     S
C456   C467    1.398   .     A
C456   C460    1.383   .     A
C457   H506    1.083   .     S
C457   C461    1.391   .     A
C457   C467    1.397   .     A
C458   C463    1.384   .     A
C458   H507    1.084   .     S
C458   C466    1.393   .     A
C459   N511    1.422   .     S
C459   C464    1.417   .     A
C460   C465    1.403   .     A
C460   N512    1.423   .     S
C461   N513    1.423   .     S
C461   C465    1.407   .     A
C462   O528    1.281   .     A
C462   O526    1.294   .     A
C462   C468    1.446   .     S
C463   C464    1.416   .     A
C463   N514    1.423   .     S
C464   C473    1.460   .     S
C465   C475    1.435   .     S
C466   C1277   1.453   1_554 S
C467   C1276   1.453   .     S
C469   C480    1.414   .     A
C470   N511    1.448   .     S
C470   H484    1.111   .     S
C470   H483    1.110   .     S
C470   H482    1.111   .     S
C471   H486    1.112   .     S
C471   H488    1.108   .     S
C471   N512    1.449   .     S
C471   H487    1.111   .     S
C472   H491    1.111   .     S
C472   N513    1.447   .     S
C472   H493    1.109   .     S
C472   H490    1.111   .     S
C473   O533    1.289   .     A
C473   O530    1.291   .     A
C474   H495    1.112   .     S
C474   N514    1.447   .     S
C474   H497    1.109   .     S
C474   H496    1.111   .     S
C475   O531    1.281   .     A
C475   O532    1.285   .     A
C476   H481    1.081   .     S
C476   N510    1.365   .     A
C477   N509    1.363   .     A
C477   H492    1.079   .     S
C477   C748    1.412   .     S
C478   N510    1.364   .     A
C478   H502    1.077   .     S
C479   N509    1.365   .     A
C479   H503    1.078   .     S
C479   C746    1.414   .     S
C480   S535    1.779   .     S
H485   N512    1.032   .     S
H489   N513    1.031   .     S
H494   N514    1.032   .     S
H498   O517    0.988   .     S
H499   O520    0.990   .     S
H500   O523    0.990   .     S
H501   O527    0.991   .     S
H508   N511    1.031   .     S
N509   Zn539   2.004   .     S
N510   Zn540   2.004   .     S
O515   Zn539   1.974   .     S
O516   S355    1.501   1_655 S
O517   S535    1.676   .     S
O518   S536    1.502   .     D
O520   S536    1.682   .     S
O521   S537    1.504   .     D
O522   S537    1.502   .     D
O523   S537    1.680   .     S
O524   S538    1.502   .     D
O525   S538    1.502   .     D
O526   Zn540   1.974   .     S
O527   S538    1.682   .     S
O528   Zn539   2.000   .     S
O529   Zn540   2.000   .     S
O530   Zn539   2.007   .     S
O531   Zn540   2.007   .     S
O532   Zn539   2.005   .     S
O533   Zn540   2.005   .     S
O534   S535    1.500   .     D
S536   O339    1.500   1_655 S
C541   O605    1.295   .     A
C541   C559    1.451   .     S
C541   O619    1.283   .     A
C542   C558    1.406   .     A
C542   S626    1.779   .     S
C542   C634    1.388   .     S
C543   C558    1.400   .     A
C543   S627    1.786   .     S
C543   C660    1.389   .     S
C544   C559    1.406   .     A
C544   S628    1.785   .     S
C544   C722    1.388   1_455 S
C545   C556    1.393   .     A
C545   H594    1.083   .     S
C545   C549    1.390   .     A
C546   H595    1.083   .     S
C546   C557    1.398   .     A
C546   C550    1.383   .     A
C547   H596    1.083   .     S
C547   C551    1.391   .     A
C547   C557    1.397   .     A
C548   C553    1.384   .     A
C548   H597    1.084   .     S
C548   C556    1.393   .     A
C549   N601    1.422   .     S
C549   C554    1.417   .     A
C550   C555    1.403   .     A
C550   N602    1.423   .     S
C551   N603    1.423   .     S
C551   C555    1.407   .     A
C552   O618    1.281   .     A
C552   O616    1.294   .     A
C552   C558    1.446   .     S
C553   C554    1.416   .     A
C553   N604    1.423   .     S
C554   C563    1.460   .     S
C555   C565    1.435   .     S
C556   C1367   1.453   1_554 S
C557   C1366   1.453   .     S
C559   C570    1.414   .     A
C560   N601    1.448   .     S
C560   H574    1.111   .     S
C560   H573    1.110   .     S
C560   H572    1.111   .     S
C561   H576    1.112   .     S
C561   H578    1.108   .     S
C561   N602    1.449   .     S
C561   H577    1.111   .     S
C562   H581    1.111   .     S
C562   N603    1.447   .     S
C562   H583    1.109   .     S
C562   H580    1.111   .     S
C563   O623    1.289   .     A
C563   O620    1.291   .     A
C564   H585    1.112   .     S
C564   N604    1.447   .     S
C564   H587    1.109   .     S
C564   H586    1.111   .     S
C565   O621    1.281   .     A
C565   O622    1.285   .     A
C566   H571    1.081   .     S
C566   N600    1.365   .     A
C567   N599    1.363   .     A
C567   H582    1.079   .     S
C567   C28     1.412   1_565 S
C568   N600    1.364   .     A
C568   H592    1.077   .     S
C569   N599    1.365   .     A
C569   H593    1.078   .     S
C569   C26     1.414   1_565 S
C570   S625    1.779   .     S
C570   C723    1.389   1_455 S
H575   N602    1.032   .     S
H579   N603    1.031   .     S
H584   N604    1.032   .     S
H588   O607    0.988   .     S
H589   O610    0.990   .     S
H590   O613    0.990   .     S
H591   O617    0.991   .     S
H598   N601    1.031   .     S
N599   Zn629   2.004   .     S
N600   Zn630   2.004   .     S
O605   Zn629   1.974   .     S
O606   S715    1.501   .     S
O607   S625    1.676   .     S
O608   S626    1.502   .     D
O609   S806    1.500   1_455 S
O610   S626    1.682   .     S
O611   S627    1.504   .     D
O612   S627    1.502   .     D
O613   S627    1.680   .     S
O614   S628    1.502   .     D
O615   S628    1.502   .     D
O616   Zn630   1.974   .     S
O617   S628    1.682   .     S
O618   Zn629   2.000   .     S
O619   Zn630   2.000   .     S
O620   Zn629   2.007   .     S
O621   Zn630   2.007   .     S
O622   Zn629   2.005   .     S
O623   Zn630   2.005   .     S
O624   S625    1.500   .     D
S625   O786    1.501   1_455 S
S626   O699    1.500   .     S
C631   O695    1.295   .     A
C631   C649    1.451   .     S
C631   O709    1.283   .     A
C632   C648    1.406   .     A
C632   S716    1.779   .     S
C632   C724    1.388   .     S
C633   C648    1.400   .     A
C633   S717    1.786   .     S
C633   C750    1.389   .     S
C634   C649    1.406   .     A
C634   S718    1.785   .     S
C635   C646    1.393   .     A
C635   H684    1.083   .     S
C635   C639    1.390   .     A
C636   H685    1.083   .     S
C636   C647    1.398   .     A
C636   C640    1.383   .     A
C637   H686    1.083   .     S
C637   C641    1.391   .     A
C637   C647    1.397   .     A
C638   C643    1.384   .     A
C638   H687    1.084   .     S
C638   C646    1.393   .     A
C639   N691    1.422   .     S
C639   C644    1.417   .     A
C640   C645    1.403   .     A
C640   N692    1.423   .     S
C641   N693    1.423   .     S
C641   C645    1.407   .     A
C642   O708    1.281   .     A
C642   O706    1.294   .     A
C642   C648    1.446   .     S
C643   C644    1.416   .     A
C643   N694    1.423   .     S
C644   C653    1.460   .     S
C645   C655    1.435   .     S
C646   C1457   1.453   1_554 S
C647   C1456   1.453   .     S
C649   C660    1.414   .     A
C650   N691    1.448   .     S
C650   H664    1.111   .     S
C650   H663    1.110   .     S
C650   H662    1.111   .     S
C651   H666    1.112   .     S
C651   H668    1.108   .     S
C651   N692    1.449   .     S
C651   H667    1.111   .     S
C652   H671    1.111   .     S
C652   N693    1.447   .     S
C652   H673    1.109   .     S
C652   H670    1.111   .     S
C653   O713    1.289   .     A
C653   O710    1.291   .     A
C654   H675    1.112   .     S
C654   N694    1.447   .     S
C654   H677    1.109   .     S
C654   H676    1.111   .     S
C655   O711    1.281   .     A
C655   O712    1.285   .     A
C656   H661    1.081   .     S
C656   N690    1.365   .     A
C657   N689    1.363   .     A
C657   H672    1.079   .     S
C657   C118    1.412   1_565 S
C658   N690    1.364   .     A
C658   H682    1.077   .     S
C659   N689    1.365   .     A
C659   H683    1.078   .     S
C659   C116    1.414   1_565 S
C660   S715    1.779   .     S
H665   N692    1.032   .     S
H669   N693    1.031   .     S
H674   N694    1.032   .     S
H678   O697    0.988   .     S
H679   O700    0.990   .     S
H680   O703    0.990   .     S
H681   O707    0.991   .     S
H688   N691    1.031   .     S
N689   Zn719   2.004   .     S
N690   Zn720   2.004   .     S
O695   Zn719   1.974   .     S
O696   S805    1.501   .     S
O697   S715    1.676   .     S
O698   S716    1.502   .     D
O700   S716    1.682   .     S
O701   S717    1.504   .     D
O702   S717    1.502   .     D
O703   S717    1.680   .     S
O704   S718    1.502   .     D
O705   S718    1.502   .     D
O706   Zn720   1.974   .     S
O707   S718    1.682   .     S
O708   Zn719   2.000   .     S
O709   Zn720   2.000   .     S
O710   Zn719   2.007   .     S
O711   Zn720   2.007   .     S
O712   Zn719   2.005   .     S
O713   Zn720   2.005   .     S
O714   S715    1.500   .     D
S716   O789    1.500   .     S
C721   O785    1.295   .     A
C721   C739    1.451   .     S
C721   O799    1.283   .     A
C722   C738    1.406   .     A
C722   S806    1.779   .     S
C722   C544    1.388   1_655 S
C723   C738    1.400   .     A
C723   S807    1.786   .     S
C723   C570    1.389   1_655 S
C724   C739    1.406   .     A
C724   S808    1.785   .     S
C725   C736    1.393   .     A
C725   H774    1.083   .     S
C725   C729    1.390   .     A
C726   H775    1.083   .     S
C726   C737    1.398   .     A
C726   C730    1.383   .     A
C727   H776    1.083   .     S
C727   C731    1.391   .     A
C727   C737    1.397   .     A
C728   C733    1.384   .     A
C728   H777    1.084   .     S
C728   C736    1.393   .     A
C729   N781    1.422   .     S
C729   C734    1.417   .     A
C730   C735    1.403   .     A
C730   N782    1.423   .     S
C731   N783    1.423   .     S
C731   C735    1.407   .     A
C732   O798    1.281   .     A
C732   O796    1.294   .     A
C732   C738    1.446   .     S
C733   C734    1.416   .     A
C733   N784    1.423   .     S
C734   C743    1.460   .     S
C735   C745    1.435   .     S
C736   C1547   1.453   1_554 S
C737   C1546   1.453   .     S
C739   C750    1.414   .     A
C740   N781    1.448   .     S
C740   H754    1.111   .     S
C740   H753    1.110   .     S
C740   H752    1.111   .     S
C741   H756    1.112   .     S
C741   H758    1.108   .     S
C741   N782    1.449   .     S
C741   H757    1.111   .     S
C742   H761    1.111   .     S
C742   N783    1.447   .     S
C742   H763    1.109   .     S
C742   H760    1.111   .     S
C743   O803    1.289   .     A
C743   O800    1.291   .     A
C744   H765    1.112   .     S
C744   N784    1.447   .     S
C744   H767    1.109   .     S
C744   H766    1.111   .     S
C745   O801    1.281   .     A
C745   O802    1.285   .     A
C746   H751    1.081   .     S
C746   N780    1.365   .     A
C747   N779    1.363   .     A
C747   H762    1.079   .     S
C747   C208    1.412   1_565 S
C748   N780    1.364   .     A
C748   H772    1.077   .     S
C749   N779    1.365   .     A
C749   H773    1.078   .     S
C749   C206    1.414   1_565 S
C750   S805    1.779   .     S
H755   N782    1.032   .     S
H759   N783    1.031   .     S
H764   N784    1.032   .     S
H768   O787    0.988   .     S
H769   O790    0.990   .     S
H770   O793    0.990   .     S
H771   O797    0.991   .     S
H778   N781    1.031   .     S
N779   Zn809   2.004   .     S
N780   Zn810   2.004   .     S
O785   Zn809   1.974   .     S
O786   S625    1.501   1_655 S
O787   S805    1.676   .     S
O788   S806    1.502   .     D
O790   S806    1.682   .     S
O791   S807    1.504   .     D
O792   S807    1.502   .     D
O793   S807    1.680   .     S
O794   S808    1.502   .     D
O795   S808    1.502   .     D
O796   Zn810   1.974   .     S
O797   S808    1.682   .     S
O798   Zn809   2.000   .     S
O799   Zn810   2.000   .     S
O800   Zn809   2.007   .     S
O801   Zn810   2.007   .     S
O802   Zn809   2.005   .     S
O803   Zn810   2.005   .     S
O804   S805    1.500   .     D
S806   O609    1.500   1_655 S
C811   O875    1.295   .     A
C811   C829    1.451   .     S
C811   O889    1.283   .     A
C812   C828    1.406   .     A
C812   S896    1.779   .     S
C812   C904    1.388   .     S
C813   C828    1.400   .     A
C813   S897    1.786   .     S
C813   C930    1.389   .     S
C814   C829    1.406   .     A
C814   S898    1.785   .     S
C814   C992    1.388   1_455 S
C815   C826    1.393   .     A
C815   H864    1.083   .     S
C815   C819    1.390   .     A
C816   H865    1.083   .     S
C816   C827    1.398   .     A
C816   C820    1.383   .     A
C817   H866    1.083   .     S
C817   C821    1.391   .     A
C817   C827    1.397   .     A
C818   C823    1.384   .     A
C818   H867    1.084   .     S
C818   C826    1.393   .     A
C819   N871    1.422   .     S
C819   C824    1.417   .     A
C820   C825    1.403   .     A
C820   N872    1.423   .     S
C821   N873    1.423   .     S
C821   C825    1.407   .     A
C822   O888    1.281   .     A
C822   O886    1.294   .     A
C822   C828    1.446   .     S
C823   C824    1.416   .     A
C823   N874    1.423   .     S
C824   C833    1.460   .     S
C825   C835    1.435   .     S
C827   C16     1.453   1_556 S
C829   C840    1.414   .     A
C830   N871    1.448   .     S
C830   H844    1.111   .     S
C830   H843    1.110   .     S
C830   H842    1.111   .     S
C831   H846    1.112   .     S
C831   H848    1.108   .     S
C831   N872    1.449   .     S
C831   H847    1.111   .     S
C832   H851    1.111   .     S
C832   N873    1.447   .     S
C832   H853    1.109   .     S
C832   H850    1.111   .     S
C833   O893    1.289   .     A
C833   O890    1.291   .     A
C834   H855    1.112   .     S
C834   N874    1.447   .     S
C834   H857    1.109   .     S
C834   H856    1.111   .     S
C835   O891    1.281   .     A
C835   O892    1.285   .     A
C836   H841    1.081   .     S
C836   N870    1.365   .     A
C836   C1379   1.414   1_545 S
C837   N869    1.363   .     A
C837   H852    1.079   .     S
C837   C1108   1.412   .     S
C838   N870    1.364   .     A
C838   H862    1.077   .     S
C838   C1377   1.412   1_545 S
C839   N869    1.365   .     A
C839   H863    1.078   .     S
C839   C1106   1.414   .     S
C840   S895    1.779   .     S
C840   C993    1.389   1_455 S
H845   N872    1.032   .     S
H849   N873    1.031   .     S
H854   N874    1.032   .     S
H858   O877    0.988   .     S
H859   O880    0.990   .     S
H860   O883    0.990   .     S
H861   O887    0.991   .     S
H868   N871    1.031   .     S
N869   Zn899   2.004   .     S
N870   Zn900   2.004   .     S
O875   Zn899   1.974   .     S
O876   S985    1.501   .     S
O877   S895    1.676   .     S
O878   S896    1.502   .     D
O879   S1076   1.500   1_455 S
O880   S896    1.682   .     S
O881   S897    1.504   .     D
O882   S897    1.502   .     D
O883   S897    1.680   .     S
O884   S898    1.502   .     D
O885   S898    1.502   .     D
O886   Zn900   1.974   .     S
O887   S898    1.682   .     S
O888   Zn899   2.000   .     S
O889   Zn900   2.000   .     S
O890   Zn899   2.007   .     S
O891   Zn900   2.007   .     S
O892   Zn899   2.005   .     S
O893   Zn900   2.005   .     S
O894   S895    1.500   .     D
S895   O1056   1.501   1_455 S
S896   O969    1.500   .     S
C901   O965    1.295   .     A
C901   C919    1.451   .     S
C901   O979    1.283   .     A
C902   C918    1.406   .     A
C902   S986    1.779   .     S
C902   C994    1.388   .     S
C903   C918    1.400   .     A
C903   S987    1.786   .     S
C903   C1020   1.389   .     S
C904   C919    1.406   .     A
C904   S988    1.785   .     S
C905   C916    1.393   .     A
C905   H954    1.083   .     S
C905   C909    1.390   .     A
C906   H955    1.083   .     S
C906   C917    1.398   .     A
C906   C910    1.383   .     A
C907   H956    1.083   .     S
C907   C911    1.391   .     A
C907   C917    1.397   .     A
C908   C913    1.384   .     A
C908   H957    1.084   .     S
C908   C916    1.393   .     A
C909   N961    1.422   .     S
C909   C914    1.417   .     A
C910   C915    1.403   .     A
C910   N962    1.423   .     S
C911   N963    1.423   .     S
C911   C915    1.407   .     A
C912   O978    1.281   .     A
C912   O976    1.294   .     A
C912   C918    1.446   .     S
C913   C914    1.416   .     A
C913   N964    1.423   .     S
C914   C923    1.460   .     S
C915   C925    1.435   .     S
C917   C106    1.453   1_556 S
C919   C930    1.414   .     A
C920   N961    1.448   .     S
C920   H934    1.111   .     S
C920   H933    1.110   .     S
C920   H932    1.111   .     S
C921   H936    1.112   .     S
C921   H938    1.108   .     S
C921   N962    1.449   .     S
C921   H937    1.111   .     S
C922   H941    1.111   .     S
C922   N963    1.447   .     S
C922   H943    1.109   .     S
C922   H940    1.111   .     S
C923   O983    1.289   .     A
C923   O980    1.291   .     A
C924   H945    1.112   .     S
C924   N964    1.447   .     S
C924   H947    1.109   .     S
C924   H946    1.111   .     S
C925   O981    1.281   .     A
C925   O982    1.285   .     A
C926   H931    1.081   .     S
C926   N960    1.365   .     A
C926   C1469   1.414   1_545 S
C927   N959    1.363   .     A
C927   H942    1.079   .     S
C927   C1198   1.412   .     S
C928   N960    1.364   .     A
C928   H952    1.077   .     S
C928   C1467   1.412   1_545 S
C929   N959    1.365   .     A
C929   H953    1.078   .     S
C929   C1196   1.414   .     S
C930   S985    1.779   .     S
H935   N962    1.032   .     S
H939   N963    1.031   .     S
H944   N964    1.032   .     S
H948   O967    0.988   .     S
H949   O970    0.990   .     S
H950   O973    0.990   .     S
H951   O977    0.991   .     S
H958   N961    1.031   .     S
N959   Zn989   2.004   .     S
N960   Zn990   2.004   .     S
O965   Zn989   1.974   .     S
O966   S1075   1.501   .     S
O967   S985    1.676   .     S
O968   S986    1.502   .     D
O970   S986    1.682   .     S
O971   S987    1.504   .     D
O972   S987    1.502   .     D
O973   S987    1.680   .     S
O974   S988    1.502   .     D
O975   S988    1.502   .     D
O976   Zn990   1.974   .     S
O977   S988    1.682   .     S
O978   Zn989   2.000   .     S
O979   Zn990   2.000   .     S
O980   Zn989   2.007   .     S
O981   Zn990   2.007   .     S
O982   Zn989   2.005   .     S
O983   Zn990   2.005   .     S
O984   S985    1.500   .     D
S986   O1059   1.500   .     S
C991   O1055   1.295   .     A
C991   C1009   1.451   .     S
C991   O1069   1.283   .     A
C992   C1008   1.406   .     A
C992   S1076   1.779   .     S
C992   C814    1.388   1_655 S
C993   C1008   1.400   .     A
C993   S1077   1.786   .     S
C993   C840    1.389   1_655 S
C994   C1009   1.406   .     A
C994   S1078   1.785   .     S
C995   C1006   1.393   .     A
C995   H1044   1.083   .     S
C995   C999    1.390   .     A
C996   H1045   1.083   .     S
C996   C1007   1.398   .     A
C996   C1000   1.383   .     A
C997   H1046   1.083   .     S
C997   C1001   1.391   .     A
C997   C1007   1.397   .     A
C998   C1003   1.384   .     A
C998   H1047   1.084   .     S
C998   C1006   1.393   .     A
C999   N1051   1.422   .     S
C999   C1004   1.417   .     A
C1000  C1005   1.403   .     A
C1000  N1052   1.423   .     S
C1001  N1053   1.423   .     S
C1001  C1005   1.407   .     A
C1002  O1068   1.281   .     A
C1002  O1066   1.294   .     A
C1002  C1008   1.446   .     S
C1003  C1004   1.416   .     A
C1003  N1054   1.423   .     S
C1004  C1013   1.460   .     S
C1005  C1015   1.435   .     S
C1007  C196    1.453   1_556 S
C1009  C1020   1.414   .     A
C1010  N1051   1.448   .     S
C1010  H1024   1.111   .     S
C1010  H1023   1.110   .     S
C1010  H1022   1.111   .     S
C1011  H1026   1.112   .     S
C1011  H1028   1.108   .     S
C1011  N1052   1.449   .     S
C1011  H1027   1.111   .     S
C1012  H1031   1.111   .     S
C1012  N1053   1.447   .     S
C1012  H1033   1.109   .     S
C1012  H1030   1.111   .     S
C1013  O1073   1.289   .     A
C1013  O1070   1.291   .     A
C1014  H1035   1.112   .     S
C1014  N1054   1.447   .     S
C1014  H1037   1.109   .     S
C1014  H1036   1.111   .     S
C1015  O1071   1.281   .     A
C1015  O1072   1.285   .     A
C1016  H1021   1.081   .     S
C1016  N1050   1.365   .     A
C1016  C1559   1.414   1_545 S
C1017  N1049   1.363   .     A
C1017  H1032   1.079   .     S
C1017  C1288   1.412   .     S
C1018  N1050   1.364   .     A
C1018  H1042   1.077   .     S
C1018  C1557   1.412   1_545 S
C1019  N1049   1.365   .     A
C1019  H1043   1.078   .     S
C1019  C1286   1.414   .     S
C1020  S1075   1.779   .     S
H1025  N1052   1.032   .     S
H1029  N1053   1.031   .     S
H1034  N1054   1.032   .     S
H1038  O1057   0.988   .     S
H1039  O1060   0.990   .     S
H1040  O1063   0.990   .     S
H1041  O1067   0.991   .     S
H1048  N1051   1.031   .     S
N1049  Zn1079  2.004   .     S
N1050  Zn1080  2.004   .     S
O1055  Zn1079  1.974   .     S
O1056  S895    1.501   1_655 S
O1057  S1075   1.676   .     S
O1058  S1076   1.502   .     D
O1060  S1076   1.682   .     S
O1061  S1077   1.504   .     D
O1062  S1077   1.502   .     D
O1063  S1077   1.680   .     S
O1064  S1078   1.502   .     D
O1065  S1078   1.502   .     D
O1066  Zn1080  1.974   .     S
O1067  S1078   1.682   .     S
O1068  Zn1079  2.000   .     S
O1069  Zn1080  2.000   .     S
O1070  Zn1079  2.007   .     S
O1071  Zn1080  2.007   .     S
O1072  Zn1079  2.005   .     S
O1073  Zn1080  2.005   .     S
O1074  S1075   1.500   .     D
S1076  O879    1.500   1_655 S
C1081  O1145   1.295   .     A
C1081  C1099   1.451   .     S
C1081  O1159   1.283   .     A
C1082  C1098   1.406   .     A
C1082  S1166   1.779   .     S
C1082  C1174   1.388   .     S
C1083  C1098   1.400   .     A
C1083  S1167   1.786   .     S
C1083  C1200   1.389   .     S
C1084  C1099   1.406   .     A
C1084  S1168   1.785   .     S
C1084  C1262   1.388   1_455 S
C1085  C1096   1.393   .     A
C1085  H1134   1.083   .     S
C1085  C1089   1.390   .     A
C1086  H1135   1.083   .     S
C1086  C1097   1.398   .     A
C1086  C1090   1.383   .     A
C1087  H1136   1.083   .     S
C1087  C1091   1.391   .     A
C1087  C1097   1.397   .     A
C1088  C1093   1.384   .     A
C1088  H1137   1.084   .     S
C1088  C1096   1.393   .     A
C1089  N1141   1.422   .     S
C1089  C1094   1.417   .     A
C1090  C1095   1.403   .     A
C1090  N1142   1.423   .     S
C1091  N1143   1.423   .     S
C1091  C1095   1.407   .     A
C1092  O1158   1.281   .     A
C1092  O1156   1.294   .     A
C1092  C1098   1.446   .     S
C1093  C1094   1.416   .     A
C1093  N1144   1.423   .     S
C1094  C1103   1.460   .     S
C1095  C1105   1.435   .     S
C1097  C286    1.453   1_556 S
C1099  C1110   1.414   .     A
C1100  N1141   1.448   .     S
C1100  H1114   1.111   .     S
C1100  H1113   1.110   .     S
C1100  H1112   1.111   .     S
C1101  H1116   1.112   .     S
C1101  H1118   1.108   .     S
C1101  N1142   1.449   .     S
C1101  H1117   1.111   .     S
C1102  H1121   1.111   .     S
C1102  N1143   1.447   .     S
C1102  H1123   1.109   .     S
C1102  H1120   1.111   .     S
C1103  O1163   1.289   .     A
C1103  O1160   1.291   .     A
C1104  H1125   1.112   .     S
C1104  N1144   1.447   .     S
C1104  H1127   1.109   .     S
C1104  H1126   1.111   .     S
C1105  O1161   1.281   .     A
C1105  O1162   1.285   .     A
C1106  H1111   1.081   .     S
C1106  N1140   1.365   .     A
C1107  N1139   1.363   .     A
C1107  H1122   1.079   .     S
C1107  C1378   1.412   .     S
C1108  N1140   1.364   .     A
C1108  H1132   1.077   .     S
C1109  N1139   1.365   .     A
C1109  H1133   1.078   .     S
C1109  C1376   1.414   .     S
C1110  S1165   1.779   .     S
C1110  C1263   1.389   1_455 S
H1115  N1142   1.032   .     S
H1119  N1143   1.031   .     S
H1124  N1144   1.032   .     S
H1128  O1147   0.988   .     S
H1129  O1150   0.990   .     S
H1130  O1153   0.990   .     S
H1131  O1157   0.991   .     S
H1138  N1141   1.031   .     S
N1139  Zn1169  2.004   .     S
N1140  Zn1170  2.004   .     S
O1145  Zn1169  1.974   .     S
O1146  S1255   1.501   .     S
O1147  S1165   1.676   .     S
O1148  S1166   1.502   .     D
O1149  S1346   1.500   1_455 S
O1150  S1166   1.682   .     S
O1151  S1167   1.504   .     D
O1152  S1167   1.502   .     D
O1153  S1167   1.680   .     S
O1154  S1168   1.502   .     D
O1155  S1168   1.502   .     D
O1156  Zn1170  1.974   .     S
O1157  S1168   1.682   .     S
O1158  Zn1169  2.000   .     S
O1159  Zn1170  2.000   .     S
O1160  Zn1169  2.007   .     S
O1161  Zn1170  2.007   .     S
O1162  Zn1169  2.005   .     S
O1163  Zn1170  2.005   .     S
O1164  S1165   1.500   .     D
S1165  O1326   1.501   1_455 S
S1166  O1239   1.500   .     S
C1171  O1235   1.295   .     A
C1171  C1189   1.451   .     S
C1171  O1249   1.283   .     A
C1172  C1188   1.406   .     A
C1172  S1256   1.779   .     S
C1172  C1264   1.388   .     S
C1173  C1188   1.400   .     A
C1173  S1257   1.786   .     S
C1173  C1290   1.389   .     S
C1174  C1189   1.406   .     A
C1174  S1258   1.785   .     S
C1175  C1186   1.393   .     A
C1175  H1224   1.083   .     S
C1175  C1179   1.390   .     A
C1176  H1225   1.083   .     S
C1176  C1187   1.398   .     A
C1176  C1180   1.383   .     A
C1177  H1226   1.083   .     S
C1177  C1181   1.391   .     A
C1177  C1187   1.397   .     A
C1178  C1183   1.384   .     A
C1178  H1227   1.084   .     S
C1178  C1186   1.393   .     A
C1179  N1231   1.422   .     S
C1179  C1184   1.417   .     A
C1180  C1185   1.403   .     A
C1180  N1232   1.423   .     S
C1181  N1233   1.423   .     S
C1181  C1185   1.407   .     A
C1182  O1248   1.281   .     A
C1182  O1246   1.294   .     A
C1182  C1188   1.446   .     S
C1183  C1184   1.416   .     A
C1183  N1234   1.423   .     S
C1184  C1193   1.460   .     S
C1185  C1195   1.435   .     S
C1187  C376    1.453   1_556 S
C1189  C1200   1.414   .     A
C1190  N1231   1.448   .     S
C1190  H1204   1.111   .     S
C1190  H1203   1.110   .     S
C1190  H1202   1.111   .     S
C1191  H1206   1.112   .     S
C1191  H1208   1.108   .     S
C1191  N1232   1.449   .     S
C1191  H1207   1.111   .     S
C1192  H1211   1.111   .     S
C1192  N1233   1.447   .     S
C1192  H1213   1.109   .     S
C1192  H1210   1.111   .     S
C1193  O1253   1.289   .     A
C1193  O1250   1.291   .     A
C1194  H1215   1.112   .     S
C1194  N1234   1.447   .     S
C1194  H1217   1.109   .     S
C1194  H1216   1.111   .     S
C1195  O1251   1.281   .     A
C1195  O1252   1.285   .     A
C1196  H1201   1.081   .     S
C1196  N1230   1.365   .     A
C1197  N1229   1.363   .     A
C1197  H1212   1.079   .     S
C1197  C1468   1.412   .     S
C1198  N1230   1.364   .     A
C1198  H1222   1.077   .     S
C1199  N1229   1.365   .     A
C1199  H1223   1.078   .     S
C1199  C1466   1.414   .     S
C1200  S1255   1.779   .     S
H1205  N1232   1.032   .     S
H1209  N1233   1.031   .     S
H1214  N1234   1.032   .     S
H1218  O1237   0.988   .     S
H1219  O1240   0.990   .     S
H1220  O1243   0.990   .     S
H1221  O1247   0.991   .     S
H1228  N1231   1.031   .     S
N1229  Zn1259  2.004   .     S
N1230  Zn1260  2.004   .     S
O1235  Zn1259  1.974   .     S
O1236  S1345   1.501   .     S
O1237  S1255   1.676   .     S
O1238  S1256   1.502   .     D
O1240  S1256   1.682   .     S
O1241  S1257   1.504   .     D
O1242  S1257   1.502   .     D
O1243  S1257   1.680   .     S
O1244  S1258   1.502   .     D
O1245  S1258   1.502   .     D
O1246  Zn1260  1.974   .     S
O1247  S1258   1.682   .     S
O1248  Zn1259  2.000   .     S
O1249  Zn1260  2.000   .     S
O1250  Zn1259  2.007   .     S
O1251  Zn1260  2.007   .     S
O1252  Zn1259  2.005   .     S
O1253  Zn1260  2.005   .     S
O1254  S1255   1.500   .     D
S1256  O1329   1.500   .     S
C1261  O1325   1.295   .     A
C1261  C1279   1.451   .     S
C1261  O1339   1.283   .     A
C1262  C1278   1.406   .     A
C1262  S1346   1.779   .     S
C1262  C1084   1.388   1_655 S
C1263  C1278   1.400   .     A
C1263  S1347   1.786   .     S
C1263  C1110   1.389   1_655 S
C1264  C1279   1.406   .     A
C1264  S1348   1.785   .     S
C1265  C1276   1.393   .     A
C1265  H1314   1.083   .     S
C1265  C1269   1.390   .     A
C1266  H1315   1.083   .     S
C1266  C1277   1.398   .     A
C1266  C1270   1.383   .     A
C1267  H1316   1.083   .     S
C1267  C1271   1.391   .     A
C1267  C1277   1.397   .     A
C1268  C1273   1.384   .     A
C1268  H1317   1.084   .     S
C1268  C1276   1.393   .     A
C1269  N1321   1.422   .     S
C1269  C1274   1.417   .     A
C1270  C1275   1.403   .     A
C1270  N1322   1.423   .     S
C1271  N1323   1.423   .     S
C1271  C1275   1.407   .     A
C1272  O1338   1.281   .     A
C1272  O1336   1.294   .     A
C1272  C1278   1.446   .     S
C1273  C1274   1.416   .     A
C1273  N1324   1.423   .     S
C1274  C1283   1.460   .     S
C1275  C1285   1.435   .     S
C1277  C466    1.453   1_556 S
C1279  C1290   1.414   .     A
C1280  N1321   1.448   .     S
C1280  H1294   1.111   .     S
C1280  H1293   1.110   .     S
C1280  H1292   1.111   .     S
C1281  H1296   1.112   .     S
C1281  H1298   1.108   .     S
C1281  N1322   1.449   .     S
C1281  H1297   1.111   .     S
C1282  H1301   1.111   .     S
C1282  N1323   1.447   .     S
C1282  H1303   1.109   .     S
C1282  H1300   1.111   .     S
C1283  O1343   1.289   .     A
C1283  O1340   1.291   .     A
C1284  H1305   1.112   .     S
C1284  N1324   1.447   .     S
C1284  H1307   1.109   .     S
C1284  H1306   1.111   .     S
C1285  O1341   1.281   .     A
C1285  O1342   1.285   .     A
C1286  H1291   1.081   .     S
C1286  N1320   1.365   .     A
C1287  N1319   1.363   .     A
C1287  H1302   1.079   .     S
C1287  C1558   1.412   .     S
C1288  N1320   1.364   .     A
C1288  H1312   1.077   .     S
C1289  N1319   1.365   .     A
C1289  H1313   1.078   .     S
C1289  C1556   1.414   .     S
C1290  S1345   1.779   .     S
H1295  N1322   1.032   .     S
H1299  N1323   1.031   .     S
H1304  N1324   1.032   .     S
H1308  O1327   0.988   .     S
H1309  O1330   0.990   .     S
H1310  O1333   0.990   .     S
H1311  O1337   0.991   .     S
H1318  N1321   1.031   .     S
N1319  Zn1349  2.004   .     S
N1320  Zn1350  2.004   .     S
O1325  Zn1349  1.974   .     S
O1326  S1165   1.501   1_655 S
O1327  S1345   1.676   .     S
O1328  S1346   1.502   .     D
O1330  S1346   1.682   .     S
O1331  S1347   1.504   .     D
O1332  S1347   1.502   .     D
O1333  S1347   1.680   .     S
O1334  S1348   1.502   .     D
O1335  S1348   1.502   .     D
O1336  Zn1350  1.974   .     S
O1337  S1348   1.682   .     S
O1338  Zn1349  2.000   .     S
O1339  Zn1350  2.000   .     S
O1340  Zn1349  2.007   .     S
O1341  Zn1350  2.007   .     S
O1342  Zn1349  2.005   .     S
O1343  Zn1350  2.005   .     S
O1344  S1345   1.500   .     D
S1346  O1149   1.500   1_655 S
C1351  O1415   1.295   .     A
C1351  C1369   1.451   .     S
C1351  O1429   1.283   .     A
C1352  C1368   1.406   .     A
C1352  S1436   1.779   .     S
C1352  C1444   1.388   .     S
C1353  C1368   1.400   .     A
C1353  S1437   1.786   .     S
C1353  C1470   1.389   .     S
C1354  C1369   1.406   .     A
C1354  S1438   1.785   .     S
C1354  C1532   1.388   1_455 S
C1355  C1366   1.393   .     A
C1355  H1404   1.083   .     S
C1355  C1359   1.390   .     A
C1356  H1405   1.083   .     S
C1356  C1367   1.398   .     A
C1356  C1360   1.383   .     A
C1357  H1406   1.083   .     S
C1357  C1361   1.391   .     A
C1357  C1367   1.397   .     A
C1358  C1363   1.384   .     A
C1358  H1407   1.084   .     S
C1358  C1366   1.393   .     A
C1359  N1411   1.422   .     S
C1359  C1364   1.417   .     A
C1360  C1365   1.403   .     A
C1360  N1412   1.423   .     S
C1361  N1413   1.423   .     S
C1361  C1365   1.407   .     A
C1362  O1428   1.281   .     A
C1362  O1426   1.294   .     A
C1362  C1368   1.446   .     S
C1363  C1364   1.416   .     A
C1363  N1414   1.423   .     S
C1364  C1373   1.460   .     S
C1365  C1375   1.435   .     S
C1367  C556    1.453   1_556 S
C1369  C1380   1.414   .     A
C1370  N1411   1.448   .     S
C1370  H1384   1.111   .     S
C1370  H1383   1.110   .     S
C1370  H1382   1.111   .     S
C1371  H1386   1.112   .     S
C1371  H1388   1.108   .     S
C1371  N1412   1.449   .     S
C1371  H1387   1.111   .     S
C1372  H1391   1.111   .     S
C1372  N1413   1.447   .     S
C1372  H1393   1.109   .     S
C1372  H1390   1.111   .     S
C1373  O1433   1.289   .     A
C1373  O1430   1.291   .     A
C1374  H1395   1.112   .     S
C1374  N1414   1.447   .     S
C1374  H1397   1.109   .     S
C1374  H1396   1.111   .     S
C1375  O1431   1.281   .     A
C1375  O1432   1.285   .     A
C1376  H1381   1.081   .     S
C1376  N1410   1.365   .     A
C1377  N1409   1.363   .     A
C1377  H1392   1.079   .     S
C1377  C838    1.412   1_565 S
C1378  N1410   1.364   .     A
C1378  H1402   1.077   .     S
C1379  N1409   1.365   .     A
C1379  H1403   1.078   .     S
C1379  C836    1.414   1_565 S
C1380  S1435   1.779   .     S
C1380  C1533   1.389   1_455 S
H1385  N1412   1.032   .     S
H1389  N1413   1.031   .     S
H1394  N1414   1.032   .     S
H1398  O1417   0.988   .     S
H1399  O1420   0.990   .     S
H1400  O1423   0.990   .     S
H1401  O1427   0.991   .     S
H1408  N1411   1.031   .     S
N1409  Zn1439  2.004   .     S
N1410  Zn1440  2.004   .     S
O1415  Zn1439  1.974   .     S
O1416  S1525   1.501   .     S
O1417  S1435   1.676   .     S
O1418  S1436   1.502   .     D
O1419  S1616   1.500   1_455 S
O1420  S1436   1.682   .     S
O1421  S1437   1.504   .     D
O1422  S1437   1.502   .     D
O1423  S1437   1.680   .     S
O1424  S1438   1.502   .     D
O1425  S1438   1.502   .     D
O1426  Zn1440  1.974   .     S
O1427  S1438   1.682   .     S
O1428  Zn1439  2.000   .     S
O1429  Zn1440  2.000   .     S
O1430  Zn1439  2.007   .     S
O1431  Zn1440  2.007   .     S
O1432  Zn1439  2.005   .     S
O1433  Zn1440  2.005   .     S
O1434  S1435   1.500   .     D
S1435  O1596   1.501   1_455 S
S1436  O1509   1.500   .     S
C1441  O1505   1.295   .     A
C1441  C1459   1.451   .     S
C1441  O1519   1.283   .     A
C1442  C1458   1.406   .     A
C1442  S1526   1.779   .     S
C1442  C1534   1.388   .     S
C1443  C1458   1.400   .     A
C1443  S1527   1.786   .     S
C1443  C1560   1.389   .     S
C1444  C1459   1.406   .     A
C1444  S1528   1.785   .     S
C1445  C1456   1.393   .     A
C1445  H1494   1.083   .     S
C1445  C1449   1.390   .     A
C1446  H1495   1.083   .     S
C1446  C1457   1.398   .     A
C1446  C1450   1.383   .     A
C1447  H1496   1.083   .     S
C1447  C1451   1.391   .     A
C1447  C1457   1.397   .     A
C1448  C1453   1.384   .     A
C1448  H1497   1.084   .     S
C1448  C1456   1.393   .     A
C1449  N1501   1.422   .     S
C1449  C1454   1.417   .     A
C1450  C1455   1.403   .     A
C1450  N1502   1.423   .     S
C1451  N1503   1.423   .     S
C1451  C1455   1.407   .     A
C1452  O1518   1.281   .     A
C1452  O1516   1.294   .     A
C1452  C1458   1.446   .     S
C1453  C1454   1.416   .     A
C1453  N1504   1.423   .     S
C1454  C1463   1.460   .     S
C1455  C1465   1.435   .     S
C1457  C646    1.453   1_556 S
C1459  C1470   1.414   .     A
C1460  N1501   1.448   .     S
C1460  H1474   1.111   .     S
C1460  H1473   1.110   .     S
C1460  H1472   1.111   .     S
C1461  H1476   1.112   .     S
C1461  H1478   1.108   .     S
C1461  N1502   1.449   .     S
C1461  H1477   1.111   .     S
C1462  H1481   1.111   .     S
C1462  N1503   1.447   .     S
C1462  H1483   1.109   .     S
C1462  H1480   1.111   .     S
C1463  O1523   1.289   .     A
C1463  O1520   1.291   .     A
C1464  H1485   1.112   .     S
C1464  N1504   1.447   .     S
C1464  H1487   1.109   .     S
C1464  H1486   1.111   .     S
C1465  O1521   1.281   .     A
C1465  O1522   1.285   .     A
C1466  H1471   1.081   .     S
C1466  N1500   1.365   .     A
C1467  N1499   1.363   .     A
C1467  H1482   1.079   .     S
C1467  C928    1.412   1_565 S
C1468  N1500   1.364   .     A
C1468  H1492   1.077   .     S
C1469  N1499   1.365   .     A
C1469  H1493   1.078   .     S
C1469  C926    1.414   1_565 S
C1470  S1525   1.779   .     S
H1475  N1502   1.032   .     S
H1479  N1503   1.031   .     S
H1484  N1504   1.032   .     S
H1488  O1507   0.988   .     S
H1489  O1510   0.990   .     S
H1490  O1513   0.990   .     S
H1491  O1517   0.991   .     S
H1498  N1501   1.031   .     S
N1499  Zn1529  2.004   .     S
N1500  Zn1530  2.004   .     S
O1505  Zn1529  1.974   .     S
O1506  S1615   1.501   .     S
O1507  S1525   1.676   .     S
O1508  S1526   1.502   .     D
O1510  S1526   1.682   .     S
O1511  S1527   1.504   .     D
O1512  S1527   1.502   .     D
O1513  S1527   1.680   .     S
O1514  S1528   1.502   .     D
O1515  S1528   1.502   .     D
O1516  Zn1530  1.974   .     S
O1517  S1528   1.682   .     S
O1518  Zn1529  2.000   .     S
O1519  Zn1530  2.000   .     S
O1520  Zn1529  2.007   .     S
O1521  Zn1530  2.007   .     S
O1522  Zn1529  2.005   .     S
O1523  Zn1530  2.005   .     S
O1524  S1525   1.500   .     D
S1526  O1599   1.500   .     S
C1531  O1595   1.295   .     A
C1531  C1549   1.451   .     S
C1531  O1609   1.283   .     A
C1532  C1548   1.406   .     A
C1532  S1616   1.779   .     S
C1532  C1354   1.388   1_655 S
C1533  C1548   1.400   .     A
C1533  S1617   1.786   .     S
C1533  C1380   1.389   1_655 S
C1534  C1549   1.406   .     A
C1534  S1618   1.785   .     S
C1535  C1546   1.393   .     A
C1535  H1584   1.083   .     S
C1535  C1539   1.390   .     A
C1536  H1585   1.083   .     S
C1536  C1547   1.398   .     A
C1536  C1540   1.383   .     A
C1537  H1586   1.083   .     S
C1537  C1541   1.391   .     A
C1537  C1547   1.397   .     A
C1538  C1543   1.384   .     A
C1538  H1587   1.084   .     S
C1538  C1546   1.393   .     A
C1539  N1591   1.422   .     S
C1539  C1544   1.417   .     A
C1540  C1545   1.403   .     A
C1540  N1592   1.423   .     S
C1541  N1593   1.423   .     S
C1541  C1545   1.407   .     A
C1542  O1608   1.281   .     A
C1542  O1606   1.294   .     A
C1542  C1548   1.446   .     S
C1543  C1544   1.416   .     A
C1543  N1594   1.423   .     S
C1544  C1553   1.460   .     S
C1545  C1555   1.435   .     S
C1547  C736    1.453   1_556 S
C1549  C1560   1.414   .     A
C1550  N1591   1.448   .     S
C1550  H1564   1.111   .     S
C1550  H1563   1.110   .     S
C1550  H1562   1.111   .     S
C1551  H1566   1.112   .     S
C1551  H1568   1.108   .     S
C1551  N1592   1.449   .     S
C1551  H1567   1.111   .     S
C1552  H1571   1.111   .     S
C1552  N1593   1.447   .     S
C1552  H1573   1.109   .     S
C1552  H1570   1.111   .     S
C1553  O1613   1.289   .     A
C1553  O1610   1.291   .     A
C1554  H1575   1.112   .     S
C1554  N1594   1.447   .     S
C1554  H1577   1.109   .     S
C1554  H1576   1.111   .     S
C1555  O1611   1.281   .     A
C1555  O1612   1.285   .     A
C1556  H1561   1.081   .     S
C1556  N1590   1.365   .     A
C1557  N1589   1.363   .     A
C1557  H1572   1.079   .     S
C1557  C1018   1.412   1_565 S
C1558  N1590   1.364   .     A
C1558  H1582   1.077   .     S
C1559  N1589   1.365   .     A
C1559  H1583   1.078   .     S
C1559  C1016   1.414   1_565 S
C1560  S1615   1.779   .     S
H1565  N1592   1.032   .     S
H1569  N1593   1.031   .     S
H1574  N1594   1.032   .     S
H1578  O1597   0.988   .     S
H1579  O1600   0.990   .     S
H1580  O1603   0.990   .     S
H1581  O1607   0.991   .     S
H1588  N1591   1.031   .     S
N1589  Zn1619  2.004   .     S
N1590  Zn1620  2.004   .     S
O1595  Zn1619  1.974   .     S
O1596  S1435   1.501   1_655 S
O1597  S1615   1.676   .     S
O1598  S1616   1.502   .     D
O1600  S1616   1.682   .     S
O1601  S1617   1.504   .     D
O1602  S1617   1.502   .     D
O1603  S1617   1.680   .     S
O1604  S1618   1.502   .     D
O1605  S1618   1.502   .     D
O1606  Zn1620  1.974   .     S
O1607  S1618   1.682   .     S
O1608  Zn1619  2.000   .     S
O1609  Zn1620  2.000   .     S
O1610  Zn1619  2.007   .     S
O1611  Zn1620  2.007   .     S
O1612  Zn1619  2.005   .     S
O1613  Zn1620  2.005   .     S
O1614  S1615   1.500   .     D
S1616  O1419   1.500   1_655 S
