data_str_m3_o10_o17_pcu_sym.164
_audit_creation_date              2020-01-03
_audit_creation_method            'Materials Studio'
_symmetry_space_group_name_H-M    'P1'
_symmetry_Int_Tables_number       1
_symmetry_cell_setting            triclinic
loop_
_symmetry_equiv_pos_as_xyz
  x,y,z
_cell_length_a                    23.5646
_cell_length_b                    26.2775
_cell_length_c                    29.9661
_cell_angle_alpha                 91.9509
_cell_angle_beta                  85.0679
_cell_angle_gamma                 92.8185
loop_
_atom_site_label
_atom_site_type_symbol
_atom_site_fract_x
_atom_site_fract_y
_atom_site_fract_z
_atom_site_U_iso_or_equiv
_atom_site_adp_type
_atom_site_occupancy
C1     C     0.18169   0.26475   0.24843   0.00000  Uiso   1.00
C2     C     0.15179   0.06864   0.25253   0.00000  Uiso   1.00
C3     C     0.24516   0.23346   0.47319   0.00000  Uiso   1.00
C4     C     0.08197   0.10955   0.02738   0.00000  Uiso   1.00
C5     C     0.18863   0.31897   0.24233   0.00000  Uiso   1.00
C6     C     0.14555   0.01455   0.25997   0.00000  Uiso   1.00
C7     C     0.16666   0.16568   0.33628   0.00000  Uiso   1.00
C8     C     0.16657   0.16736   0.16367   0.00000  Uiso   1.00
C9     C     0.12999   0.13416   0.09460   0.00000  Uiso   1.00
C10    C     0.20148   0.20317   0.40467   0.00000  Uiso   1.00
C11    C     0.16637   0.16834   0.11583   0.00000  Uiso   1.00
C12    C     0.16639   0.16698   0.38411   0.00000  Uiso   1.00
C13    C     0.20137   0.20419   0.09210   0.00000  Uiso   1.00
C14    C     0.12797   0.13472   0.40878   0.00000  Uiso   1.00
C15    C     0.20305   0.20399   0.04521   0.00000  Uiso   1.00
C16    C     0.12278   0.13980   0.45550   0.00000  Uiso   1.00
C17    C     0.16372   0.17127   0.02352   0.00000  Uiso   1.00
C18    C     0.16321   0.17177   0.47682   0.00000  Uiso   1.00
C19    C     0.12486   0.13794   0.04863   0.00000  Uiso   1.00
C20    C     0.20388   0.20316   0.45130   0.00000  Uiso   1.00
C21    C     0.24212   0.23642   0.01993   0.00000  Uiso   1.00
C22    C     0.07942   0.11219   0.48123   0.00000  Uiso   1.00
N23    N     0.31678   0.15265   0.23783   0.00000  Uiso   1.00
N24    N     0.01656   0.18068   0.26217   0.00000  Uiso   1.00
O25    O     0.12975   0.24619   0.25299   0.00000  Uiso   1.00
O26    O     0.20358   0.08714   0.24702   0.00000  Uiso   1.00
O27    O     0.22613   0.23721   0.24519   0.00000  Uiso   1.00
O28    O     0.10720   0.09613   0.25482   0.00000  Uiso   1.00
O29    O     0.11847   0.17117   0.31998   0.00000  Uiso   1.00
O30    O     0.21486   0.16216   0.18003   0.00000  Uiso   1.00
O31    O     0.21485   0.16219   0.31218   0.00000  Uiso   1.00
O32    O     0.11848   0.17115   0.18783   0.00000  Uiso   1.00
Zn33   Zn    0.10231   0.17266   0.25521   0.00000  Uiso   1.00
Zn34   Zn    0.23102   0.16067   0.24479   0.00000  Uiso   1.00
O35    O     0.09799   0.09843   0.11984   0.00000  Uiso   1.00
C36    C     0.13001   0.05488   0.12164   0.00000  Uiso   1.00
H37    H     0.16846   0.06323   0.14019   0.00000  Uiso   1.00
H38    H     0.14241   0.03922   0.08739   0.00000  Uiso   1.00
H39    H     0.10316   0.02524   0.14001   0.00000  Uiso   1.00
O40    O     0.23268   0.23854   0.37848   0.00000  Uiso   1.00
C41    C     0.19882   0.28046   0.37384   0.00000  Uiso   1.00
H42    H     0.16089   0.26952   0.35539   0.00000  Uiso   1.00
H43    H     0.22473   0.30960   0.35412   0.00000  Uiso   1.00
H44    H     0.18527   0.29806   0.40708   0.00000  Uiso   1.00
O45    O     0.23078   0.24165   0.11537   0.00000  Uiso   1.00
C46    C     0.19382   0.28186   0.12557   0.00000  Uiso   1.00
H47    H     0.16672   0.28914   0.09797   0.00000  Uiso   1.00
H48    H     0.21997   0.31725   0.13097   0.00000  Uiso   1.00
H49    H     0.16582   0.27402   0.15646   0.00000  Uiso   1.00
O50    O     0.09639   0.09752   0.38677   0.00000  Uiso   1.00
C51    C     0.12516   0.05168   0.38641   0.00000  Uiso   1.00
H52    H     0.09510   0.01956   0.37849   0.00000  Uiso   1.00
H53    H     0.14031   0.04363   0.41957   0.00000  Uiso   1.00
H54    H     0.16161   0.05247   0.36027   0.00000  Uiso   1.00
O55    O     0.28071   0.26854   0.04094   0.00000  Uiso   1.00
C56    C     0.26776   0.31990   0.03550   0.00000  Uiso   1.00
H57    H     0.22158   0.32552   0.03272   0.00000  Uiso   1.00
H58    H     0.29308   0.00234   0.00579   0.00000  Uiso   1.00
H59    H     0.27993   0.00919   0.06534   0.00000  Uiso   1.00
O60    O     0.03604   0.08456   0.46157   0.00000  Uiso   1.00
C61    C     0.32596   0.11779   0.45450   0.00000  Uiso   1.00
H62    H     0.00739   0.14581   0.42858   0.00000  Uiso   1.00
H63    H     0.31015   0.13802   0.48604   0.00000  Uiso   1.00
H64    H     0.28936   0.09497   0.44207   0.00000  Uiso   1.00
N65    N     0.29355   0.25868   0.44948   0.00000  Uiso   1.00
H66    H     0.28079   0.28988   0.43287   0.00000  Uiso   1.00
H67    H     0.31412   0.23289   0.42710   0.00000  Uiso   1.00
N68    N     0.04024   0.07811   0.05258   0.00000  Uiso   1.00
H69    H     0.04338   0.04065   0.04010   0.00000  Uiso   1.00
H70    H     0.33299   0.09052   0.04834   0.00000  Uiso   1.00
O71    O     0.23014   0.00603   0.21066   0.00000  Uiso   1.00
C72    C     0.28361   0.31743   0.21081   0.00000  Uiso   1.00
H73    H     0.28547   0.28278   0.18859   0.00000  Uiso   1.00
H74    H     0.29395   0.30925   0.24520   0.00000  Uiso   1.00
H75    H     0.31732   0.01092   0.19668   0.00000  Uiso   1.00
O76    O     0.10485   0.32783   0.29242   0.00000  Uiso   1.00
C77    C     0.05140   0.01659   0.29271   0.00000  Uiso   1.00
H78    H     0.03995   0.02331   0.25836   0.00000  Uiso   1.00
H79    H     0.05049   0.05225   0.31362   0.00000  Uiso   1.00
H80    H     0.01790   0.32399   0.30842   0.00000  Uiso   1.00
O81    O     0.01207   0.11847   0.21126   0.00000  Uiso   1.00
C82    C     0.31536   0.10872   0.17330   0.00000  Uiso   1.00
H83    H     0.31476   0.14365   0.15345   0.00000  Uiso   1.00
H84    H     0.27239   0.09173   0.18222   0.00000  Uiso   1.00
H85    H     0.00359   0.07954   0.15158   0.00000  Uiso   1.00
O86    O     0.32125   0.21490   0.28864   0.00000  Uiso   1.00
C87    C     0.01764   0.22425   0.32677   0.00000  Uiso   1.00
H88    H     0.06057   0.24149   0.31811   0.00000  Uiso   1.00
H89    H     0.01830   0.18908   0.34629   0.00000  Uiso   1.00
H90    H     0.32898   0.25302   0.34861   0.00000  Uiso   1.00
C91    C     0.51502   0.26475   0.24843   0.00000  Uiso   1.00
C92    C     0.48512   0.06864   0.25253   0.00000  Uiso   1.00
C93    C     0.57849   0.23346   0.47319   0.00000  Uiso   1.00
C94    C     0.41530   0.10955   0.02738   0.00000  Uiso   1.00
C95    C     0.52197   0.31897   0.24233   0.00000  Uiso   1.00
C96    C     0.47888   0.01455   0.25997   0.00000  Uiso   1.00
C97    C     0.49999   0.16568   0.33628   0.00000  Uiso   1.00
C98    C     0.49991   0.16736   0.16367   0.00000  Uiso   1.00
C99    C     0.46332   0.13416   0.09460   0.00000  Uiso   1.00
C100   C     0.53481   0.20317   0.40467   0.00000  Uiso   1.00
C101   C     0.49970   0.16834   0.11583   0.00000  Uiso   1.00
C102   C     0.49973   0.16698   0.38411   0.00000  Uiso   1.00
C103   C     0.53471   0.20419   0.09210   0.00000  Uiso   1.00
C104   C     0.46130   0.13472   0.40878   0.00000  Uiso   1.00
C105   C     0.53639   0.20399   0.04521   0.00000  Uiso   1.00
C106   C     0.45611   0.13980   0.45550   0.00000  Uiso   1.00
C107   C     0.49705   0.17127   0.02352   0.00000  Uiso   1.00
C108   C     0.49655   0.17177   0.47682   0.00000  Uiso   1.00
C109   C     0.45819   0.13794   0.04863   0.00000  Uiso   1.00
C110   C     0.53721   0.20316   0.45130   0.00000  Uiso   1.00
C111   C     0.57546   0.23642   0.01993   0.00000  Uiso   1.00
C112   C     0.41276   0.11219   0.48123   0.00000  Uiso   1.00
N113   N     0.65011   0.15265   0.23783   0.00000  Uiso   1.00
N114   N     0.34989   0.18068   0.26217   0.00000  Uiso   1.00
O115   O     0.46308   0.24619   0.25299   0.00000  Uiso   1.00
O116   O     0.53692   0.08714   0.24702   0.00000  Uiso   1.00
O117   O     0.55946   0.23721   0.24519   0.00000  Uiso   1.00
O118   O     0.44054   0.09613   0.25482   0.00000  Uiso   1.00
O119   O     0.45181   0.17117   0.31998   0.00000  Uiso   1.00
O120   O     0.54819   0.16216   0.18003   0.00000  Uiso   1.00
O121   O     0.54819   0.16219   0.31218   0.00000  Uiso   1.00
O122   O     0.45181   0.17115   0.18783   0.00000  Uiso   1.00
Zn123  Zn    0.43565   0.17266   0.25521   0.00000  Uiso   1.00
Zn124  Zn    0.56435   0.16067   0.24479   0.00000  Uiso   1.00
O125   O     0.43132   0.09843   0.11984   0.00000  Uiso   1.00
C126   C     0.46334   0.05488   0.12164   0.00000  Uiso   1.00
H127   H     0.50179   0.06323   0.14019   0.00000  Uiso   1.00
H128   H     0.47575   0.03922   0.08739   0.00000  Uiso   1.00
H129   H     0.43649   0.02524   0.14001   0.00000  Uiso   1.00
O130   O     0.56602   0.23854   0.37848   0.00000  Uiso   1.00
C131   C     0.53216   0.28046   0.37384   0.00000  Uiso   1.00
H132   H     0.49422   0.26952   0.35539   0.00000  Uiso   1.00
H133   H     0.55806   0.30960   0.35412   0.00000  Uiso   1.00
H134   H     0.51861   0.29806   0.40708   0.00000  Uiso   1.00
O135   O     0.56411   0.24165   0.11537   0.00000  Uiso   1.00
C136   C     0.52715   0.28186   0.12557   0.00000  Uiso   1.00
H137   H     0.50005   0.28914   0.09797   0.00000  Uiso   1.00
H138   H     0.55330   0.31725   0.13097   0.00000  Uiso   1.00
H139   H     0.49915   0.27402   0.15646   0.00000  Uiso   1.00
O140   O     0.42972   0.09752   0.38677   0.00000  Uiso   1.00
C141   C     0.45850   0.05168   0.38641   0.00000  Uiso   1.00
H142   H     0.42843   0.01956   0.37849   0.00000  Uiso   1.00
H143   H     0.47364   0.04363   0.41957   0.00000  Uiso   1.00
H144   H     0.49494   0.05247   0.36027   0.00000  Uiso   1.00
O145   O     0.61405   0.26854   0.04094   0.00000  Uiso   1.00
C146   C     0.60109   0.31990   0.03550   0.00000  Uiso   1.00
H147   H     0.55491   0.32552   0.03272   0.00000  Uiso   1.00
H148   H     0.62641   0.00234   0.00579   0.00000  Uiso   1.00
H149   H     0.61326   0.00919   0.06534   0.00000  Uiso   1.00
O150   O     0.36938   0.08456   0.46157   0.00000  Uiso   1.00
C151   C     0.65929   0.11779   0.45450   0.00000  Uiso   1.00
H152   H     0.34072   0.14581   0.42858   0.00000  Uiso   1.00
H153   H     0.64348   0.13802   0.48604   0.00000  Uiso   1.00
H154   H     0.62270   0.09497   0.44207   0.00000  Uiso   1.00
N155   N     0.62689   0.25868   0.44948   0.00000  Uiso   1.00
H156   H     0.61413   0.28988   0.43287   0.00000  Uiso   1.00
H157   H     0.64745   0.23289   0.42710   0.00000  Uiso   1.00
N158   N     0.37358   0.07811   0.05258   0.00000  Uiso   1.00
H159   H     0.37671   0.04065   0.04010   0.00000  Uiso   1.00
H160   H     0.66632   0.09052   0.04834   0.00000  Uiso   1.00
O161   O     0.56348   0.00603   0.21066   0.00000  Uiso   1.00
C162   C     0.61694   0.31743   0.21081   0.00000  Uiso   1.00
H163   H     0.61880   0.28278   0.18859   0.00000  Uiso   1.00
H164   H     0.62728   0.30925   0.24520   0.00000  Uiso   1.00
H165   H     0.65066   0.01092   0.19668   0.00000  Uiso   1.00
O166   O     0.43818   0.32783   0.29242   0.00000  Uiso   1.00
C167   C     0.38473   0.01659   0.29271   0.00000  Uiso   1.00
H168   H     0.37328   0.02331   0.25836   0.00000  Uiso   1.00
H169   H     0.38382   0.05225   0.31362   0.00000  Uiso   1.00
H170   H     0.35124   0.32399   0.30842   0.00000  Uiso   1.00
O171   O     0.34540   0.11847   0.21126   0.00000  Uiso   1.00
C172   C     0.64869   0.10872   0.17330   0.00000  Uiso   1.00
H173   H     0.64810   0.14365   0.15345   0.00000  Uiso   1.00
H174   H     0.60573   0.09173   0.18222   0.00000  Uiso   1.00
H175   H     0.33693   0.07954   0.15158   0.00000  Uiso   1.00
O176   O     0.65458   0.21490   0.28864   0.00000  Uiso   1.00
C177   C     0.35097   0.22425   0.32677   0.00000  Uiso   1.00
H178   H     0.39390   0.24149   0.31811   0.00000  Uiso   1.00
H179   H     0.35163   0.18908   0.34629   0.00000  Uiso   1.00
H180   H     0.66232   0.25302   0.34861   0.00000  Uiso   1.00
C181   C     0.84835   0.26475   0.24843   0.00000  Uiso   1.00
C182   C     0.81845   0.06864   0.25253   0.00000  Uiso   1.00
C183   C     0.91183   0.23346   0.47319   0.00000  Uiso   1.00
C184   C     0.74863   0.10955   0.02738   0.00000  Uiso   1.00
C185   C     0.85530   0.31897   0.24233   0.00000  Uiso   1.00
C186   C     0.81222   0.01455   0.25997   0.00000  Uiso   1.00
C187   C     0.83332   0.16568   0.33628   0.00000  Uiso   1.00
C188   C     0.83324   0.16736   0.16367   0.00000  Uiso   1.00
C189   C     0.79666   0.13416   0.09460   0.00000  Uiso   1.00
C190   C     0.86815   0.20317   0.40467   0.00000  Uiso   1.00
C191   C     0.83304   0.16834   0.11583   0.00000  Uiso   1.00
C192   C     0.83306   0.16698   0.38411   0.00000  Uiso   1.00
C193   C     0.86804   0.20419   0.09210   0.00000  Uiso   1.00
C194   C     0.79463   0.13472   0.40878   0.00000  Uiso   1.00
C195   C     0.86972   0.20399   0.04521   0.00000  Uiso   1.00
C196   C     0.78945   0.13980   0.45550   0.00000  Uiso   1.00
C197   C     0.83038   0.17127   0.02352   0.00000  Uiso   1.00
C198   C     0.82988   0.17177   0.47682   0.00000  Uiso   1.00
C199   C     0.79152   0.13794   0.04863   0.00000  Uiso   1.00
C200   C     0.87055   0.20316   0.45130   0.00000  Uiso   1.00
C201   C     0.90879   0.23642   0.01993   0.00000  Uiso   1.00
C202   C     0.74609   0.11219   0.48123   0.00000  Uiso   1.00
N203   N     0.98344   0.15265   0.23783   0.00000  Uiso   1.00
N204   N     0.68322   0.18068   0.26217   0.00000  Uiso   1.00
O205   O     0.79642   0.24619   0.25299   0.00000  Uiso   1.00
O206   O     0.87025   0.08714   0.24702   0.00000  Uiso   1.00
O207   O     0.89280   0.23721   0.24519   0.00000  Uiso   1.00
O208   O     0.77387   0.09613   0.25482   0.00000  Uiso   1.00
O209   O     0.78514   0.17117   0.31998   0.00000  Uiso   1.00
O210   O     0.88153   0.16216   0.18003   0.00000  Uiso   1.00
O211   O     0.88152   0.16219   0.31218   0.00000  Uiso   1.00
O212   O     0.78515   0.17115   0.18783   0.00000  Uiso   1.00
Zn213  Zn    0.76898   0.17266   0.25521   0.00000  Uiso   1.00
Zn214  Zn    0.89769   0.16067   0.24479   0.00000  Uiso   1.00
O215   O     0.76466   0.09843   0.11984   0.00000  Uiso   1.00
C216   C     0.79667   0.05488   0.12164   0.00000  Uiso   1.00
H217   H     0.83512   0.06323   0.14019   0.00000  Uiso   1.00
H218   H     0.80908   0.03922   0.08739   0.00000  Uiso   1.00
H219   H     0.76983   0.02524   0.14001   0.00000  Uiso   1.00
O220   O     0.89935   0.23854   0.37848   0.00000  Uiso   1.00
C221   C     0.86549   0.28046   0.37384   0.00000  Uiso   1.00
H222   H     0.82755   0.26952   0.35539   0.00000  Uiso   1.00
H223   H     0.89140   0.30960   0.35412   0.00000  Uiso   1.00
H224   H     0.85194   0.29806   0.40708   0.00000  Uiso   1.00
O225   O     0.89745   0.24165   0.11537   0.00000  Uiso   1.00
C226   C     0.86048   0.28186   0.12557   0.00000  Uiso   1.00
H227   H     0.83339   0.28914   0.09797   0.00000  Uiso   1.00
H228   H     0.88664   0.31725   0.13097   0.00000  Uiso   1.00
H229   H     0.83248   0.27402   0.15646   0.00000  Uiso   1.00
O230   O     0.76305   0.09752   0.38677   0.00000  Uiso   1.00
C231   C     0.79183   0.05168   0.38641   0.00000  Uiso   1.00
H232   H     0.76177   0.01956   0.37849   0.00000  Uiso   1.00
H233   H     0.80697   0.04363   0.41957   0.00000  Uiso   1.00
H234   H     0.82828   0.05247   0.36027   0.00000  Uiso   1.00
O235   O     0.94738   0.26854   0.04094   0.00000  Uiso   1.00
C236   C     0.93443   0.31990   0.03550   0.00000  Uiso   1.00
H237   H     0.88825   0.32552   0.03272   0.00000  Uiso   1.00
H238   H     0.95974   0.00234   0.00579   0.00000  Uiso   1.00
H239   H     0.94659   0.00919   0.06534   0.00000  Uiso   1.00
O240   O     0.70271   0.08456   0.46157   0.00000  Uiso   1.00
C241   C     0.99262   0.11779   0.45450   0.00000  Uiso   1.00
H242   H     0.67406   0.14581   0.42858   0.00000  Uiso   1.00
H243   H     0.97682   0.13802   0.48604   0.00000  Uiso   1.00
H244   H     0.95603   0.09497   0.44207   0.00000  Uiso   1.00
N245   N     0.96022   0.25868   0.44948   0.00000  Uiso   1.00
H246   H     0.94746   0.28988   0.43287   0.00000  Uiso   1.00
H247   H     0.98078   0.23289   0.42710   0.00000  Uiso   1.00
N248   N     0.70691   0.07811   0.05258   0.00000  Uiso   1.00
H249   H     0.71005   0.04065   0.04010   0.00000  Uiso   1.00
H250   H     0.99966   0.09052   0.04834   0.00000  Uiso   1.00
O251   O     0.89681   0.00603   0.21066   0.00000  Uiso   1.00
C252   C     0.95027   0.31743   0.21081   0.00000  Uiso   1.00
H253   H     0.95213   0.28278   0.18859   0.00000  Uiso   1.00
H254   H     0.96061   0.30925   0.24520   0.00000  Uiso   1.00
H255   H     0.98399   0.01092   0.19668   0.00000  Uiso   1.00
O256   O     0.77152   0.32783   0.29242   0.00000  Uiso   1.00
C257   C     0.71807   0.01659   0.29271   0.00000  Uiso   1.00
H258   H     0.70662   0.02331   0.25836   0.00000  Uiso   1.00
H259   H     0.71716   0.05225   0.31362   0.00000  Uiso   1.00
H260   H     0.68457   0.32399   0.30842   0.00000  Uiso   1.00
O261   O     0.67874   0.11847   0.21126   0.00000  Uiso   1.00
C262   C     0.98202   0.10872   0.17330   0.00000  Uiso   1.00
H263   H     0.98143   0.14365   0.15345   0.00000  Uiso   1.00
H264   H     0.93906   0.09173   0.18222   0.00000  Uiso   1.00
H265   H     0.67026   0.07954   0.15158   0.00000  Uiso   1.00
O266   O     0.98792   0.21490   0.28864   0.00000  Uiso   1.00
C267   C     0.68430   0.22425   0.32677   0.00000  Uiso   1.00
H268   H     0.72723   0.24149   0.31811   0.00000  Uiso   1.00
H269   H     0.68497   0.18908   0.34629   0.00000  Uiso   1.00
H270   H     0.99565   0.25302   0.34861   0.00000  Uiso   1.00
C271   C     0.18169   0.59808   0.24843   0.00000  Uiso   1.00
C272   C     0.15179   0.40198   0.25253   0.00000  Uiso   1.00
C273   C     0.24516   0.56679   0.47319   0.00000  Uiso   1.00
C274   C     0.08197   0.44288   0.02738   0.00000  Uiso   1.00
C275   C     0.18863   0.65230   0.24233   0.00000  Uiso   1.00
C276   C     0.14555   0.34789   0.25997   0.00000  Uiso   1.00
C277   C     0.16666   0.49902   0.33628   0.00000  Uiso   1.00
C278   C     0.16657   0.50069   0.16367   0.00000  Uiso   1.00
C279   C     0.12999   0.46750   0.09460   0.00000  Uiso   1.00
C280   C     0.20148   0.53650   0.40467   0.00000  Uiso   1.00
C281   C     0.16637   0.50167   0.11583   0.00000  Uiso   1.00
C282   C     0.16639   0.50031   0.38411   0.00000  Uiso   1.00
C283   C     0.20137   0.53753   0.09210   0.00000  Uiso   1.00
C284   C     0.12797   0.46805   0.40878   0.00000  Uiso   1.00
C285   C     0.20305   0.53732   0.04521   0.00000  Uiso   1.00
C286   C     0.12278   0.47313   0.45550   0.00000  Uiso   1.00
C287   C     0.16372   0.50460   0.02352   0.00000  Uiso   1.00
C288   C     0.16321   0.50510   0.47682   0.00000  Uiso   1.00
C289   C     0.12486   0.47128   0.04863   0.00000  Uiso   1.00
C290   C     0.20388   0.53649   0.45130   0.00000  Uiso   1.00
C291   C     0.24212   0.56975   0.01993   0.00000  Uiso   1.00
C292   C     0.07942   0.44552   0.48123   0.00000  Uiso   1.00
N293   N     0.31678   0.48598   0.23783   0.00000  Uiso   1.00
N294   N     0.01656   0.51402   0.26217   0.00000  Uiso   1.00
O295   O     0.12975   0.57952   0.25299   0.00000  Uiso   1.00
O296   O     0.20358   0.42048   0.24702   0.00000  Uiso   1.00
O297   O     0.22613   0.57054   0.24519   0.00000  Uiso   1.00
O298   O     0.10720   0.42946   0.25482   0.00000  Uiso   1.00
O299   O     0.11847   0.50450   0.31998   0.00000  Uiso   1.00
O300   O     0.21486   0.49550   0.18003   0.00000  Uiso   1.00
O301   O     0.21485   0.49552   0.31218   0.00000  Uiso   1.00
O302   O     0.11848   0.50448   0.18783   0.00000  Uiso   1.00
Zn303  Zn    0.10231   0.50600   0.25521   0.00000  Uiso   1.00
Zn304  Zn    0.23102   0.49400   0.24479   0.00000  Uiso   1.00
O305   O     0.09799   0.43176   0.11984   0.00000  Uiso   1.00
C306   C     0.13001   0.38821   0.12164   0.00000  Uiso   1.00
H307   H     0.16846   0.39656   0.14019   0.00000  Uiso   1.00
H308   H     0.14241   0.37255   0.08739   0.00000  Uiso   1.00
H309   H     0.10316   0.35857   0.14001   0.00000  Uiso   1.00
O310   O     0.23268   0.57187   0.37848   0.00000  Uiso   1.00
C311   C     0.19882   0.61380   0.37384   0.00000  Uiso   1.00
H312   H     0.16089   0.60285   0.35539   0.00000  Uiso   1.00
H313   H     0.22473   0.64293   0.35412   0.00000  Uiso   1.00
H314   H     0.18527   0.63139   0.40708   0.00000  Uiso   1.00
O315   O     0.23078   0.57499   0.11537   0.00000  Uiso   1.00
C316   C     0.19382   0.61519   0.12557   0.00000  Uiso   1.00
H317   H     0.16672   0.62247   0.09797   0.00000  Uiso   1.00
H318   H     0.21997   0.65058   0.13097   0.00000  Uiso   1.00
H319   H     0.16582   0.60735   0.15646   0.00000  Uiso   1.00
O320   O     0.09639   0.43085   0.38677   0.00000  Uiso   1.00
C321   C     0.12516   0.38501   0.38641   0.00000  Uiso   1.00
H322   H     0.09510   0.35290   0.37849   0.00000  Uiso   1.00
H323   H     0.14031   0.37696   0.41957   0.00000  Uiso   1.00
H324   H     0.16161   0.38581   0.36027   0.00000  Uiso   1.00
O325   O     0.28071   0.60187   0.04094   0.00000  Uiso   1.00
C326   C     0.26776   0.65323   0.03550   0.00000  Uiso   1.00
H327   H     0.22158   0.65886   0.03272   0.00000  Uiso   1.00
H328   H     0.29308   0.33567   0.00579   0.00000  Uiso   1.00
H329   H     0.27993   0.34252   0.06534   0.00000  Uiso   1.00
O330   O     0.03604   0.41790   0.46157   0.00000  Uiso   1.00
C331   C     0.32596   0.45112   0.45450   0.00000  Uiso   1.00
H332   H     0.00739   0.47915   0.42858   0.00000  Uiso   1.00
H333   H     0.31015   0.47135   0.48604   0.00000  Uiso   1.00
H334   H     0.28936   0.42831   0.44207   0.00000  Uiso   1.00
N335   N     0.29355   0.59202   0.44948   0.00000  Uiso   1.00
H336   H     0.28079   0.62322   0.43287   0.00000  Uiso   1.00
H337   H     0.31412   0.56622   0.42710   0.00000  Uiso   1.00
N338   N     0.04024   0.41145   0.05258   0.00000  Uiso   1.00
H339   H     0.04338   0.37398   0.04010   0.00000  Uiso   1.00
H340   H     0.33299   0.42385   0.04834   0.00000  Uiso   1.00
O341   O     0.23014   0.33936   0.21066   0.00000  Uiso   1.00
C342   C     0.28361   0.65076   0.21081   0.00000  Uiso   1.00
H343   H     0.28547   0.61611   0.18859   0.00000  Uiso   1.00
H344   H     0.29395   0.64258   0.24520   0.00000  Uiso   1.00
H345   H     0.31732   0.34425   0.19668   0.00000  Uiso   1.00
O346   O     0.10485   0.66117   0.29242   0.00000  Uiso   1.00
C347   C     0.05140   0.34993   0.29271   0.00000  Uiso   1.00
H348   H     0.03995   0.35665   0.25836   0.00000  Uiso   1.00
H349   H     0.05049   0.38559   0.31362   0.00000  Uiso   1.00
H350   H     0.01790   0.65732   0.30842   0.00000  Uiso   1.00
O351   O     0.01207   0.45180   0.21126   0.00000  Uiso   1.00
C352   C     0.31536   0.44206   0.17330   0.00000  Uiso   1.00
H353   H     0.31476   0.47699   0.15345   0.00000  Uiso   1.00
H354   H     0.27239   0.42507   0.18222   0.00000  Uiso   1.00
H355   H     0.00359   0.41288   0.15158   0.00000  Uiso   1.00
O356   O     0.32125   0.54823   0.28864   0.00000  Uiso   1.00
C357   C     0.01764   0.55759   0.32677   0.00000  Uiso   1.00
H358   H     0.06057   0.57482   0.31811   0.00000  Uiso   1.00
H359   H     0.01830   0.52241   0.34629   0.00000  Uiso   1.00
H360   H     0.32898   0.58635   0.34861   0.00000  Uiso   1.00
C361   C     0.51502   0.59808   0.24843   0.00000  Uiso   1.00
C362   C     0.48512   0.40198   0.25253   0.00000  Uiso   1.00
C363   C     0.57849   0.56679   0.47319   0.00000  Uiso   1.00
C364   C     0.41530   0.44288   0.02738   0.00000  Uiso   1.00
C365   C     0.52197   0.65230   0.24233   0.00000  Uiso   1.00
C366   C     0.47888   0.34789   0.25997   0.00000  Uiso   1.00
C367   C     0.49999   0.49902   0.33628   0.00000  Uiso   1.00
C368   C     0.49991   0.50069   0.16367   0.00000  Uiso   1.00
C369   C     0.46332   0.46750   0.09460   0.00000  Uiso   1.00
C370   C     0.53481   0.53650   0.40467   0.00000  Uiso   1.00
C371   C     0.49970   0.50167   0.11583   0.00000  Uiso   1.00
C372   C     0.49973   0.50031   0.38411   0.00000  Uiso   1.00
C373   C     0.53471   0.53753   0.09210   0.00000  Uiso   1.00
C374   C     0.46130   0.46805   0.40878   0.00000  Uiso   1.00
C375   C     0.53639   0.53732   0.04521   0.00000  Uiso   1.00
C376   C     0.45611   0.47313   0.45550   0.00000  Uiso   1.00
C377   C     0.49705   0.50460   0.02352   0.00000  Uiso   1.00
C378   C     0.49655   0.50510   0.47682   0.00000  Uiso   1.00
C379   C     0.45819   0.47128   0.04863   0.00000  Uiso   1.00
C380   C     0.53721   0.53649   0.45130   0.00000  Uiso   1.00
C381   C     0.57546   0.56975   0.01993   0.00000  Uiso   1.00
C382   C     0.41276   0.44552   0.48123   0.00000  Uiso   1.00
N383   N     0.65011   0.48598   0.23783   0.00000  Uiso   1.00
N384   N     0.34989   0.51402   0.26217   0.00000  Uiso   1.00
O385   O     0.46308   0.57952   0.25299   0.00000  Uiso   1.00
O386   O     0.53692   0.42048   0.24702   0.00000  Uiso   1.00
O387   O     0.55946   0.57054   0.24519   0.00000  Uiso   1.00
O388   O     0.44054   0.42946   0.25482   0.00000  Uiso   1.00
O389   O     0.45181   0.50450   0.31998   0.00000  Uiso   1.00
O390   O     0.54819   0.49550   0.18003   0.00000  Uiso   1.00
O391   O     0.54819   0.49552   0.31218   0.00000  Uiso   1.00
O392   O     0.45181   0.50448   0.18783   0.00000  Uiso   1.00
Zn393  Zn    0.43565   0.50600   0.25521   0.00000  Uiso   1.00
Zn394  Zn    0.56435   0.49400   0.24479   0.00000  Uiso   1.00
O395   O     0.43132   0.43176   0.11984   0.00000  Uiso   1.00
C396   C     0.46334   0.38821   0.12164   0.00000  Uiso   1.00
H397   H     0.50179   0.39656   0.14019   0.00000  Uiso   1.00
H398   H     0.47575   0.37255   0.08739   0.00000  Uiso   1.00
H399   H     0.43649   0.35857   0.14001   0.00000  Uiso   1.00
O400   O     0.56602   0.57187   0.37848   0.00000  Uiso   1.00
C401   C     0.53216   0.61380   0.37384   0.00000  Uiso   1.00
H402   H     0.49422   0.60285   0.35539   0.00000  Uiso   1.00
H403   H     0.55806   0.64293   0.35412   0.00000  Uiso   1.00
H404   H     0.51861   0.63139   0.40708   0.00000  Uiso   1.00
O405   O     0.56411   0.57499   0.11537   0.00000  Uiso   1.00
C406   C     0.52715   0.61519   0.12557   0.00000  Uiso   1.00
H407   H     0.50005   0.62247   0.09797   0.00000  Uiso   1.00
H408   H     0.55330   0.65058   0.13097   0.00000  Uiso   1.00
H409   H     0.49915   0.60735   0.15646   0.00000  Uiso   1.00
O410   O     0.42972   0.43085   0.38677   0.00000  Uiso   1.00
C411   C     0.45850   0.38501   0.38641   0.00000  Uiso   1.00
H412   H     0.42843   0.35290   0.37849   0.00000  Uiso   1.00
H413   H     0.47364   0.37696   0.41957   0.00000  Uiso   1.00
H414   H     0.49494   0.38581   0.36027   0.00000  Uiso   1.00
O415   O     0.61405   0.60187   0.04094   0.00000  Uiso   1.00
C416   C     0.60109   0.65323   0.03550   0.00000  Uiso   1.00
H417   H     0.55491   0.65886   0.03272   0.00000  Uiso   1.00
H418   H     0.62641   0.33567   0.00579   0.00000  Uiso   1.00
H419   H     0.61326   0.34252   0.06534   0.00000  Uiso   1.00
O420   O     0.36938   0.41790   0.46157   0.00000  Uiso   1.00
C421   C     0.65929   0.45112   0.45450   0.00000  Uiso   1.00
H422   H     0.34072   0.47915   0.42858   0.00000  Uiso   1.00
H423   H     0.64348   0.47135   0.48604   0.00000  Uiso   1.00
H424   H     0.62270   0.42831   0.44207   0.00000  Uiso   1.00
N425   N     0.62689   0.59202   0.44948   0.00000  Uiso   1.00
H426   H     0.61413   0.62322   0.43287   0.00000  Uiso   1.00
H427   H     0.64745   0.56622   0.42710   0.00000  Uiso   1.00
N428   N     0.37358   0.41145   0.05258   0.00000  Uiso   1.00
H429   H     0.37671   0.37398   0.04010   0.00000  Uiso   1.00
H430   H     0.66632   0.42385   0.04834   0.00000  Uiso   1.00
O431   O     0.56348   0.33936   0.21066   0.00000  Uiso   1.00
C432   C     0.61694   0.65076   0.21081   0.00000  Uiso   1.00
H433   H     0.61880   0.61611   0.18859   0.00000  Uiso   1.00
H434   H     0.62728   0.64258   0.24520   0.00000  Uiso   1.00
H435   H     0.65066   0.34425   0.19668   0.00000  Uiso   1.00
O436   O     0.43818   0.66117   0.29242   0.00000  Uiso   1.00
C437   C     0.38473   0.34993   0.29271   0.00000  Uiso   1.00
H438   H     0.37328   0.35665   0.25836   0.00000  Uiso   1.00
H439   H     0.38382   0.38559   0.31362   0.00000  Uiso   1.00
H440   H     0.35124   0.65732   0.30842   0.00000  Uiso   1.00
O441   O     0.34540   0.45180   0.21126   0.00000  Uiso   1.00
C442   C     0.64869   0.44206   0.17330   0.00000  Uiso   1.00
H443   H     0.64810   0.47699   0.15345   0.00000  Uiso   1.00
H444   H     0.60573   0.42507   0.18222   0.00000  Uiso   1.00
H445   H     0.33693   0.41288   0.15158   0.00000  Uiso   1.00
O446   O     0.65458   0.54823   0.28864   0.00000  Uiso   1.00
C447   C     0.35097   0.55759   0.32677   0.00000  Uiso   1.00
H448   H     0.39390   0.57482   0.31811   0.00000  Uiso   1.00
H449   H     0.35163   0.52241   0.34629   0.00000  Uiso   1.00
H450   H     0.66232   0.58635   0.34861   0.00000  Uiso   1.00
C451   C     0.84835   0.59808   0.24843   0.00000  Uiso   1.00
C452   C     0.81845   0.40198   0.25253   0.00000  Uiso   1.00
C453   C     0.91183   0.56679   0.47319   0.00000  Uiso   1.00
C454   C     0.74863   0.44288   0.02738   0.00000  Uiso   1.00
C455   C     0.85530   0.65230   0.24233   0.00000  Uiso   1.00
C456   C     0.81222   0.34789   0.25997   0.00000  Uiso   1.00
C457   C     0.83332   0.49902   0.33628   0.00000  Uiso   1.00
C458   C     0.83324   0.50069   0.16367   0.00000  Uiso   1.00
C459   C     0.79666   0.46750   0.09460   0.00000  Uiso   1.00
C460   C     0.86815   0.53650   0.40467   0.00000  Uiso   1.00
C461   C     0.83304   0.50167   0.11583   0.00000  Uiso   1.00
C462   C     0.83306   0.50031   0.38411   0.00000  Uiso   1.00
C463   C     0.86804   0.53753   0.09210   0.00000  Uiso   1.00
C464   C     0.79463   0.46805   0.40878   0.00000  Uiso   1.00
C465   C     0.86972   0.53732   0.04521   0.00000  Uiso   1.00
C466   C     0.78945   0.47313   0.45550   0.00000  Uiso   1.00
C467   C     0.83038   0.50460   0.02352   0.00000  Uiso   1.00
C468   C     0.82988   0.50510   0.47682   0.00000  Uiso   1.00
C469   C     0.79152   0.47128   0.04863   0.00000  Uiso   1.00
C470   C     0.87055   0.53649   0.45130   0.00000  Uiso   1.00
C471   C     0.90879   0.56975   0.01993   0.00000  Uiso   1.00
C472   C     0.74609   0.44552   0.48123   0.00000  Uiso   1.00
N473   N     0.98344   0.48598   0.23783   0.00000  Uiso   1.00
N474   N     0.68322   0.51402   0.26217   0.00000  Uiso   1.00
O475   O     0.79642   0.57952   0.25299   0.00000  Uiso   1.00
O476   O     0.87025   0.42048   0.24702   0.00000  Uiso   1.00
O477   O     0.89280   0.57054   0.24519   0.00000  Uiso   1.00
O478   O     0.77387   0.42946   0.25482   0.00000  Uiso   1.00
O479   O     0.78514   0.50450   0.31998   0.00000  Uiso   1.00
O480   O     0.88153   0.49550   0.18003   0.00000  Uiso   1.00
O481   O     0.88152   0.49552   0.31218   0.00000  Uiso   1.00
O482   O     0.78515   0.50448   0.18783   0.00000  Uiso   1.00
Zn483  Zn    0.76898   0.50600   0.25521   0.00000  Uiso   1.00
Zn484  Zn    0.89769   0.49400   0.24479   0.00000  Uiso   1.00
O485   O     0.76466   0.43176   0.11984   0.00000  Uiso   1.00
C486   C     0.79667   0.38821   0.12164   0.00000  Uiso   1.00
H487   H     0.83512   0.39656   0.14019   0.00000  Uiso   1.00
H488   H     0.80908   0.37255   0.08739   0.00000  Uiso   1.00
H489   H     0.76983   0.35857   0.14001   0.00000  Uiso   1.00
O490   O     0.89935   0.57187   0.37848   0.00000  Uiso   1.00
C491   C     0.86549   0.61380   0.37384   0.00000  Uiso   1.00
H492   H     0.82755   0.60285   0.35539   0.00000  Uiso   1.00
H493   H     0.89140   0.64293   0.35412   0.00000  Uiso   1.00
H494   H     0.85194   0.63139   0.40708   0.00000  Uiso   1.00
O495   O     0.89745   0.57499   0.11537   0.00000  Uiso   1.00
C496   C     0.86048   0.61519   0.12557   0.00000  Uiso   1.00
H497   H     0.83339   0.62247   0.09797   0.00000  Uiso   1.00
H498   H     0.88664   0.65058   0.13097   0.00000  Uiso   1.00
H499   H     0.83248   0.60735   0.15646   0.00000  Uiso   1.00
O500   O     0.76305   0.43085   0.38677   0.00000  Uiso   1.00
C501   C     0.79183   0.38501   0.38641   0.00000  Uiso   1.00
H502   H     0.76177   0.35290   0.37849   0.00000  Uiso   1.00
H503   H     0.80697   0.37696   0.41957   0.00000  Uiso   1.00
H504   H     0.82828   0.38581   0.36027   0.00000  Uiso   1.00
O505   O     0.94738   0.60187   0.04094   0.00000  Uiso   1.00
C506   C     0.93443   0.65323   0.03550   0.00000  Uiso   1.00
H507   H     0.88825   0.65886   0.03272   0.00000  Uiso   1.00
H508   H     0.95974   0.33567   0.00579   0.00000  Uiso   1.00
H509   H     0.94659   0.34252   0.06534   0.00000  Uiso   1.00
O510   O     0.70271   0.41790   0.46157   0.00000  Uiso   1.00
C511   C     0.99262   0.45112   0.45450   0.00000  Uiso   1.00
H512   H     0.67406   0.47915   0.42858   0.00000  Uiso   1.00
H513   H     0.97682   0.47135   0.48604   0.00000  Uiso   1.00
H514   H     0.95603   0.42831   0.44207   0.00000  Uiso   1.00
N515   N     0.96022   0.59202   0.44948   0.00000  Uiso   1.00
H516   H     0.94746   0.62322   0.43287   0.00000  Uiso   1.00
H517   H     0.98078   0.56622   0.42710   0.00000  Uiso   1.00
N518   N     0.70691   0.41145   0.05258   0.00000  Uiso   1.00
H519   H     0.71005   0.37398   0.04010   0.00000  Uiso   1.00
H520   H     0.99966   0.42385   0.04834   0.00000  Uiso   1.00
O521   O     0.89681   0.33936   0.21066   0.00000  Uiso   1.00
C522   C     0.95027   0.65076   0.21081   0.00000  Uiso   1.00
H523   H     0.95213   0.61611   0.18859   0.00000  Uiso   1.00
H524   H     0.96061   0.64258   0.24520   0.00000  Uiso   1.00
H525   H     0.98399   0.34425   0.19668   0.00000  Uiso   1.00
O526   O     0.77152   0.66117   0.29242   0.00000  Uiso   1.00
C527   C     0.71807   0.34993   0.29271   0.00000  Uiso   1.00
H528   H     0.70662   0.35665   0.25836   0.00000  Uiso   1.00
H529   H     0.71716   0.38559   0.31362   0.00000  Uiso   1.00
H530   H     0.68457   0.65732   0.30842   0.00000  Uiso   1.00
O531   O     0.67874   0.45180   0.21126   0.00000  Uiso   1.00
C532   C     0.98202   0.44206   0.17330   0.00000  Uiso   1.00
H533   H     0.98143   0.47699   0.15345   0.00000  Uiso   1.00
H534   H     0.93906   0.42507   0.18222   0.00000  Uiso   1.00
H535   H     0.67026   0.41288   0.15158   0.00000  Uiso   1.00
O536   O     0.98792   0.54823   0.28864   0.00000  Uiso   1.00
C537   C     0.68430   0.55759   0.32677   0.00000  Uiso   1.00
H538   H     0.72723   0.57482   0.31811   0.00000  Uiso   1.00
H539   H     0.68497   0.52241   0.34629   0.00000  Uiso   1.00
H540   H     0.99565   0.58635   0.34861   0.00000  Uiso   1.00
C541   C     0.18169   0.93142   0.24843   0.00000  Uiso   1.00
C542   C     0.15179   0.73531   0.25253   0.00000  Uiso   1.00
C543   C     0.24516   0.90013   0.47319   0.00000  Uiso   1.00
C544   C     0.08197   0.77622   0.02738   0.00000  Uiso   1.00
C545   C     0.18863   0.98564   0.24233   0.00000  Uiso   1.00
C546   C     0.14555   0.68122   0.25997   0.00000  Uiso   1.00
C547   C     0.16666   0.83235   0.33628   0.00000  Uiso   1.00
C548   C     0.16657   0.83402   0.16367   0.00000  Uiso   1.00
C549   C     0.12999   0.80083   0.09460   0.00000  Uiso   1.00
C550   C     0.20148   0.86984   0.40467   0.00000  Uiso   1.00
C551   C     0.16637   0.83501   0.11583   0.00000  Uiso   1.00
C552   C     0.16639   0.83365   0.38411   0.00000  Uiso   1.00
C553   C     0.20137   0.87086   0.09210   0.00000  Uiso   1.00
C554   C     0.12797   0.80139   0.40878   0.00000  Uiso   1.00
C555   C     0.20305   0.87065   0.04521   0.00000  Uiso   1.00
C556   C     0.12278   0.80647   0.45550   0.00000  Uiso   1.00
C557   C     0.16372   0.83794   0.02352   0.00000  Uiso   1.00
C558   C     0.16321   0.83843   0.47682   0.00000  Uiso   1.00
C559   C     0.12486   0.80461   0.04863   0.00000  Uiso   1.00
C560   C     0.20388   0.86983   0.45130   0.00000  Uiso   1.00
C561   C     0.24212   0.90308   0.01993   0.00000  Uiso   1.00
C562   C     0.07942   0.77885   0.48123   0.00000  Uiso   1.00
N563   N     0.31678   0.81932   0.23783   0.00000  Uiso   1.00
N564   N     0.01656   0.84735   0.26217   0.00000  Uiso   1.00
O565   O     0.12975   0.91286   0.25299   0.00000  Uiso   1.00
O566   O     0.20358   0.75381   0.24702   0.00000  Uiso   1.00
O567   O     0.22613   0.90387   0.24519   0.00000  Uiso   1.00
O568   O     0.10720   0.76279   0.25482   0.00000  Uiso   1.00
O569   O     0.11847   0.83784   0.31998   0.00000  Uiso   1.00
O570   O     0.21486   0.82883   0.18003   0.00000  Uiso   1.00
O571   O     0.21485   0.82885   0.31218   0.00000  Uiso   1.00
O572   O     0.11848   0.83781   0.18783   0.00000  Uiso   1.00
Zn573  Zn    0.10231   0.83933   0.25521   0.00000  Uiso   1.00
Zn574  Zn    0.23102   0.82734   0.24479   0.00000  Uiso   1.00
O575   O     0.09799   0.76509   0.11984   0.00000  Uiso   1.00
C576   C     0.13001   0.72154   0.12164   0.00000  Uiso   1.00
H577   H     0.16846   0.72990   0.14019   0.00000  Uiso   1.00
H578   H     0.14241   0.70588   0.08739   0.00000  Uiso   1.00
H579   H     0.10316   0.69190   0.14001   0.00000  Uiso   1.00
O580   O     0.23268   0.90520   0.37848   0.00000  Uiso   1.00
C581   C     0.19882   0.94713   0.37384   0.00000  Uiso   1.00
H582   H     0.16089   0.93618   0.35539   0.00000  Uiso   1.00
H583   H     0.22473   0.97626   0.35412   0.00000  Uiso   1.00
H584   H     0.18527   0.96473   0.40708   0.00000  Uiso   1.00
O585   O     0.23078   0.90832   0.11537   0.00000  Uiso   1.00
C586   C     0.19382   0.94852   0.12557   0.00000  Uiso   1.00
H587   H     0.16672   0.95580   0.09797   0.00000  Uiso   1.00
H588   H     0.21997   0.98391   0.13097   0.00000  Uiso   1.00
H589   H     0.16582   0.94068   0.15646   0.00000  Uiso   1.00
O590   O     0.09639   0.76418   0.38677   0.00000  Uiso   1.00
C591   C     0.12516   0.71834   0.38641   0.00000  Uiso   1.00
H592   H     0.09510   0.68623   0.37849   0.00000  Uiso   1.00
H593   H     0.14031   0.71030   0.41957   0.00000  Uiso   1.00
H594   H     0.16161   0.71914   0.36027   0.00000  Uiso   1.00
O595   O     0.28071   0.93520   0.04094   0.00000  Uiso   1.00
C596   C     0.26776   0.98657   0.03550   0.00000  Uiso   1.00
H597   H     0.22158   0.99219   0.03272   0.00000  Uiso   1.00
H598   H     0.29308   0.66901   0.00579   0.00000  Uiso   1.00
H599   H     0.27993   0.67585   0.06534   0.00000  Uiso   1.00
O600   O     0.03604   0.75123   0.46157   0.00000  Uiso   1.00
C601   C     0.32596   0.78446   0.45450   0.00000  Uiso   1.00
H602   H     0.00739   0.81248   0.42858   0.00000  Uiso   1.00
H603   H     0.31015   0.80468   0.48604   0.00000  Uiso   1.00
H604   H     0.28936   0.76164   0.44207   0.00000  Uiso   1.00
N605   N     0.29355   0.92535   0.44948   0.00000  Uiso   1.00
H606   H     0.28079   0.95655   0.43287   0.00000  Uiso   1.00
H607   H     0.31412   0.89956   0.42710   0.00000  Uiso   1.00
N608   N     0.04024   0.74478   0.05258   0.00000  Uiso   1.00
H609   H     0.04338   0.70732   0.04010   0.00000  Uiso   1.00
H610   H     0.33299   0.75719   0.04834   0.00000  Uiso   1.00
O611   O     0.23014   0.67269   0.21066   0.00000  Uiso   1.00
C612   C     0.28361   0.98410   0.21081   0.00000  Uiso   1.00
H613   H     0.28547   0.94944   0.18859   0.00000  Uiso   1.00
H614   H     0.29395   0.97592   0.24520   0.00000  Uiso   1.00
H615   H     0.31732   0.67758   0.19668   0.00000  Uiso   1.00
O616   O     0.10485   0.99450   0.29242   0.00000  Uiso   1.00
C617   C     0.05140   0.68326   0.29271   0.00000  Uiso   1.00
H618   H     0.03995   0.68998   0.25836   0.00000  Uiso   1.00
H619   H     0.05049   0.71892   0.31362   0.00000  Uiso   1.00
H620   H     0.01790   0.99066   0.30842   0.00000  Uiso   1.00
O621   O     0.01207   0.78513   0.21126   0.00000  Uiso   1.00
C622   C     0.31536   0.77539   0.17330   0.00000  Uiso   1.00
H623   H     0.31476   0.81032   0.15345   0.00000  Uiso   1.00
H624   H     0.27239   0.75840   0.18222   0.00000  Uiso   1.00
H625   H     0.00359   0.74621   0.15158   0.00000  Uiso   1.00
O626   O     0.32125   0.88157   0.28864   0.00000  Uiso   1.00
C627   C     0.01764   0.89092   0.32677   0.00000  Uiso   1.00
H628   H     0.06057   0.90815   0.31811   0.00000  Uiso   1.00
H629   H     0.01830   0.85574   0.34629   0.00000  Uiso   1.00
H630   H     0.32898   0.91968   0.34861   0.00000  Uiso   1.00
C631   C     0.51502   0.93142   0.24843   0.00000  Uiso   1.00
C632   C     0.48512   0.73531   0.25253   0.00000  Uiso   1.00
C633   C     0.57849   0.90013   0.47319   0.00000  Uiso   1.00
C634   C     0.41530   0.77622   0.02738   0.00000  Uiso   1.00
C635   C     0.52197   0.98564   0.24233   0.00000  Uiso   1.00
C636   C     0.47888   0.68122   0.25997   0.00000  Uiso   1.00
C637   C     0.49999   0.83235   0.33628   0.00000  Uiso   1.00
C638   C     0.49991   0.83402   0.16367   0.00000  Uiso   1.00
C639   C     0.46332   0.80083   0.09460   0.00000  Uiso   1.00
C640   C     0.53481   0.86984   0.40467   0.00000  Uiso   1.00
C641   C     0.49970   0.83501   0.11583   0.00000  Uiso   1.00
C642   C     0.49973   0.83365   0.38411   0.00000  Uiso   1.00
C643   C     0.53471   0.87086   0.09210   0.00000  Uiso   1.00
C644   C     0.46130   0.80139   0.40878   0.00000  Uiso   1.00
C645   C     0.53639   0.87065   0.04521   0.00000  Uiso   1.00
C646   C     0.45611   0.80647   0.45550   0.00000  Uiso   1.00
C647   C     0.49705   0.83794   0.02352   0.00000  Uiso   1.00
C648   C     0.49655   0.83843   0.47682   0.00000  Uiso   1.00
C649   C     0.45819   0.80461   0.04863   0.00000  Uiso   1.00
C650   C     0.53721   0.86983   0.45130   0.00000  Uiso   1.00
C651   C     0.57546   0.90308   0.01993   0.00000  Uiso   1.00
C652   C     0.41276   0.77885   0.48123   0.00000  Uiso   1.00
N653   N     0.65011   0.81932   0.23783   0.00000  Uiso   1.00
N654   N     0.34989   0.84735   0.26217   0.00000  Uiso   1.00
O655   O     0.46308   0.91286   0.25299   0.00000  Uiso   1.00
O656   O     0.53692   0.75381   0.24702   0.00000  Uiso   1.00
O657   O     0.55946   0.90387   0.24519   0.00000  Uiso   1.00
O658   O     0.44054   0.76279   0.25482   0.00000  Uiso   1.00
O659   O     0.45181   0.83784   0.31998   0.00000  Uiso   1.00
O660   O     0.54819   0.82883   0.18003   0.00000  Uiso   1.00
O661   O     0.54819   0.82885   0.31218   0.00000  Uiso   1.00
O662   O     0.45181   0.83781   0.18783   0.00000  Uiso   1.00
Zn663  Zn    0.43565   0.83933   0.25521   0.00000  Uiso   1.00
Zn664  Zn    0.56435   0.82734   0.24479   0.00000  Uiso   1.00
O665   O     0.43132   0.76509   0.11984   0.00000  Uiso   1.00
C666   C     0.46334   0.72154   0.12164   0.00000  Uiso   1.00
H667   H     0.50179   0.72990   0.14019   0.00000  Uiso   1.00
H668   H     0.47575   0.70588   0.08739   0.00000  Uiso   1.00
H669   H     0.43649   0.69190   0.14001   0.00000  Uiso   1.00
O670   O     0.56602   0.90520   0.37848   0.00000  Uiso   1.00
C671   C     0.53216   0.94713   0.37384   0.00000  Uiso   1.00
H672   H     0.49422   0.93618   0.35539   0.00000  Uiso   1.00
H673   H     0.55806   0.97626   0.35412   0.00000  Uiso   1.00
H674   H     0.51861   0.96473   0.40708   0.00000  Uiso   1.00
O675   O     0.56411   0.90832   0.11537   0.00000  Uiso   1.00
C676   C     0.52715   0.94852   0.12557   0.00000  Uiso   1.00
H677   H     0.50005   0.95580   0.09797   0.00000  Uiso   1.00
H678   H     0.55330   0.98391   0.13097   0.00000  Uiso   1.00
H679   H     0.49915   0.94068   0.15646   0.00000  Uiso   1.00
O680   O     0.42972   0.76418   0.38677   0.00000  Uiso   1.00
C681   C     0.45850   0.71834   0.38641   0.00000  Uiso   1.00
H682   H     0.42843   0.68623   0.37849   0.00000  Uiso   1.00
H683   H     0.47364   0.71030   0.41957   0.00000  Uiso   1.00
H684   H     0.49494   0.71914   0.36027   0.00000  Uiso   1.00
O685   O     0.61405   0.93520   0.04094   0.00000  Uiso   1.00
C686   C     0.60109   0.98657   0.03550   0.00000  Uiso   1.00
H687   H     0.55491   0.99219   0.03272   0.00000  Uiso   1.00
H688   H     0.62641   0.66901   0.00579   0.00000  Uiso   1.00
H689   H     0.61326   0.67585   0.06534   0.00000  Uiso   1.00
O690   O     0.36938   0.75123   0.46157   0.00000  Uiso   1.00
C691   C     0.65929   0.78446   0.45450   0.00000  Uiso   1.00
H692   H     0.34072   0.81248   0.42858   0.00000  Uiso   1.00
H693   H     0.64348   0.80468   0.48604   0.00000  Uiso   1.00
H694   H     0.62270   0.76164   0.44207   0.00000  Uiso   1.00
N695   N     0.62689   0.92535   0.44948   0.00000  Uiso   1.00
H696   H     0.61413   0.95655   0.43287   0.00000  Uiso   1.00
H697   H     0.64745   0.89956   0.42710   0.00000  Uiso   1.00
N698   N     0.37358   0.74478   0.05258   0.00000  Uiso   1.00
H699   H     0.37671   0.70732   0.04010   0.00000  Uiso   1.00
H700   H     0.66632   0.75719   0.04834   0.00000  Uiso   1.00
O701   O     0.56348   0.67269   0.21066   0.00000  Uiso   1.00
C702   C     0.61694   0.98410   0.21081   0.00000  Uiso   1.00
H703   H     0.61880   0.94944   0.18859   0.00000  Uiso   1.00
H704   H     0.62728   0.97592   0.24520   0.00000  Uiso   1.00
H705   H     0.65066   0.67758   0.19668   0.00000  Uiso   1.00
O706   O     0.43818   0.99450   0.29242   0.00000  Uiso   1.00
C707   C     0.38473   0.68326   0.29271   0.00000  Uiso   1.00
H708   H     0.37328   0.68998   0.25836   0.00000  Uiso   1.00
H709   H     0.38382   0.71892   0.31362   0.00000  Uiso   1.00
H710   H     0.35124   0.99066   0.30842   0.00000  Uiso   1.00
O711   O     0.34540   0.78513   0.21126   0.00000  Uiso   1.00
C712   C     0.64869   0.77539   0.17330   0.00000  Uiso   1.00
H713   H     0.64810   0.81032   0.15345   0.00000  Uiso   1.00
H714   H     0.60573   0.75840   0.18222   0.00000  Uiso   1.00
H715   H     0.33693   0.74621   0.15158   0.00000  Uiso   1.00
O716   O     0.65458   0.88157   0.28864   0.00000  Uiso   1.00
C717   C     0.35097   0.89092   0.32677   0.00000  Uiso   1.00
H718   H     0.39390   0.90815   0.31811   0.00000  Uiso   1.00
H719   H     0.35163   0.85574   0.34629   0.00000  Uiso   1.00
H720   H     0.66232   0.91968   0.34861   0.00000  Uiso   1.00
C721   C     0.84835   0.93142   0.24843   0.00000  Uiso   1.00
C722   C     0.81845   0.73531   0.25253   0.00000  Uiso   1.00
C723   C     0.91183   0.90013   0.47319   0.00000  Uiso   1.00
C724   C     0.74863   0.77622   0.02738   0.00000  Uiso   1.00
C725   C     0.85530   0.98564   0.24233   0.00000  Uiso   1.00
C726   C     0.81222   0.68122   0.25997   0.00000  Uiso   1.00
C727   C     0.83332   0.83235   0.33628   0.00000  Uiso   1.00
C728   C     0.83324   0.83402   0.16367   0.00000  Uiso   1.00
C729   C     0.79666   0.80083   0.09460   0.00000  Uiso   1.00
C730   C     0.86815   0.86984   0.40467   0.00000  Uiso   1.00
C731   C     0.83304   0.83501   0.11583   0.00000  Uiso   1.00
C732   C     0.83306   0.83365   0.38411   0.00000  Uiso   1.00
C733   C     0.86804   0.87086   0.09210   0.00000  Uiso   1.00
C734   C     0.79463   0.80139   0.40878   0.00000  Uiso   1.00
C735   C     0.86972   0.87065   0.04521   0.00000  Uiso   1.00
C736   C     0.78945   0.80647   0.45550   0.00000  Uiso   1.00
C737   C     0.83038   0.83794   0.02352   0.00000  Uiso   1.00
C738   C     0.82988   0.83843   0.47682   0.00000  Uiso   1.00
C739   C     0.79152   0.80461   0.04863   0.00000  Uiso   1.00
C740   C     0.87055   0.86983   0.45130   0.00000  Uiso   1.00
C741   C     0.90879   0.90308   0.01993   0.00000  Uiso   1.00
C742   C     0.74609   0.77885   0.48123   0.00000  Uiso   1.00
N743   N     0.98344   0.81932   0.23783   0.00000  Uiso   1.00
N744   N     0.68322   0.84735   0.26217   0.00000  Uiso   1.00
O745   O     0.79642   0.91286   0.25299   0.00000  Uiso   1.00
O746   O     0.87025   0.75381   0.24702   0.00000  Uiso   1.00
O747   O     0.89280   0.90387   0.24519   0.00000  Uiso   1.00
O748   O     0.77387   0.76279   0.25482   0.00000  Uiso   1.00
O749   O     0.78514   0.83784   0.31998   0.00000  Uiso   1.00
O750   O     0.88153   0.82883   0.18003   0.00000  Uiso   1.00
O751   O     0.88152   0.82885   0.31218   0.00000  Uiso   1.00
O752   O     0.78515   0.83781   0.18783   0.00000  Uiso   1.00
Zn753  Zn    0.76898   0.83933   0.25521   0.00000  Uiso   1.00
Zn754  Zn    0.89769   0.82734   0.24479   0.00000  Uiso   1.00
O755   O     0.76466   0.76509   0.11984   0.00000  Uiso   1.00
C756   C     0.79667   0.72154   0.12164   0.00000  Uiso   1.00
H757   H     0.83512   0.72990   0.14019   0.00000  Uiso   1.00
H758   H     0.80908   0.70588   0.08739   0.00000  Uiso   1.00
H759   H     0.76983   0.69190   0.14001   0.00000  Uiso   1.00
O760   O     0.89935   0.90520   0.37848   0.00000  Uiso   1.00
C761   C     0.86549   0.94713   0.37384   0.00000  Uiso   1.00
H762   H     0.82755   0.93618   0.35539   0.00000  Uiso   1.00
H763   H     0.89140   0.97626   0.35412   0.00000  Uiso   1.00
H764   H     0.85194   0.96473   0.40708   0.00000  Uiso   1.00
O765   O     0.89745   0.90832   0.11537   0.00000  Uiso   1.00
C766   C     0.86048   0.94852   0.12557   0.00000  Uiso   1.00
H767   H     0.83339   0.95580   0.09797   0.00000  Uiso   1.00
H768   H     0.88664   0.98391   0.13097   0.00000  Uiso   1.00
H769   H     0.83248   0.94068   0.15646   0.00000  Uiso   1.00
O770   O     0.76305   0.76418   0.38677   0.00000  Uiso   1.00
C771   C     0.79183   0.71834   0.38641   0.00000  Uiso   1.00
H772   H     0.76177   0.68623   0.37849   0.00000  Uiso   1.00
H773   H     0.80697   0.71030   0.41957   0.00000  Uiso   1.00
H774   H     0.82828   0.71914   0.36027   0.00000  Uiso   1.00
O775   O     0.94738   0.93520   0.04094   0.00000  Uiso   1.00
C776   C     0.93443   0.98657   0.03550   0.00000  Uiso   1.00
H777   H     0.88825   0.99219   0.03272   0.00000  Uiso   1.00
H778   H     0.95974   0.66901   0.00579   0.00000  Uiso   1.00
H779   H     0.94659   0.67585   0.06534   0.00000  Uiso   1.00
O780   O     0.70271   0.75123   0.46157   0.00000  Uiso   1.00
C781   C     0.99262   0.78446   0.45450   0.00000  Uiso   1.00
H782   H     0.67406   0.81248   0.42858   0.00000  Uiso   1.00
H783   H     0.97682   0.80468   0.48604   0.00000  Uiso   1.00
H784   H     0.95603   0.76164   0.44207   0.00000  Uiso   1.00
N785   N     0.96022   0.92535   0.44948   0.00000  Uiso   1.00
H786   H     0.94746   0.95655   0.43287   0.00000  Uiso   1.00
H787   H     0.98078   0.89956   0.42710   0.00000  Uiso   1.00
N788   N     0.70691   0.74478   0.05258   0.00000  Uiso   1.00
H789   H     0.71005   0.70732   0.04010   0.00000  Uiso   1.00
H790   H     0.99966   0.75719   0.04834   0.00000  Uiso   1.00
O791   O     0.89681   0.67269   0.21066   0.00000  Uiso   1.00
C792   C     0.95027   0.98410   0.21081   0.00000  Uiso   1.00
H793   H     0.95213   0.94944   0.18859   0.00000  Uiso   1.00
H794   H     0.96061   0.97592   0.24520   0.00000  Uiso   1.00
H795   H     0.98399   0.67758   0.19668   0.00000  Uiso   1.00
O796   O     0.77152   0.99450   0.29242   0.00000  Uiso   1.00
C797   C     0.71807   0.68326   0.29271   0.00000  Uiso   1.00
H798   H     0.70662   0.68998   0.25836   0.00000  Uiso   1.00
H799   H     0.71716   0.71892   0.31362   0.00000  Uiso   1.00
H800   H     0.68457   0.99066   0.30842   0.00000  Uiso   1.00
O801   O     0.67874   0.78513   0.21126   0.00000  Uiso   1.00
C802   C     0.98202   0.77539   0.17330   0.00000  Uiso   1.00
H803   H     0.98143   0.81032   0.15345   0.00000  Uiso   1.00
H804   H     0.93906   0.75840   0.18222   0.00000  Uiso   1.00
H805   H     0.67026   0.74621   0.15158   0.00000  Uiso   1.00
O806   O     0.98792   0.88157   0.28864   0.00000  Uiso   1.00
C807   C     0.68430   0.89092   0.32677   0.00000  Uiso   1.00
H808   H     0.72723   0.90815   0.31811   0.00000  Uiso   1.00
H809   H     0.68497   0.85574   0.34629   0.00000  Uiso   1.00
H810   H     0.99565   0.91968   0.34861   0.00000  Uiso   1.00
C811   C     0.18169   0.26475   0.74843   0.00000  Uiso   1.00
C812   C     0.15179   0.06864   0.75253   0.00000  Uiso   1.00
C813   C     0.24516   0.23346   0.97319   0.00000  Uiso   1.00
C814   C     0.08197   0.10955   0.52738   0.00000  Uiso   1.00
C815   C     0.18863   0.31897   0.74233   0.00000  Uiso   1.00
C816   C     0.14555   0.01455   0.75997   0.00000  Uiso   1.00
C817   C     0.16666   0.16568   0.83628   0.00000  Uiso   1.00
C818   C     0.16657   0.16736   0.66367   0.00000  Uiso   1.00
C819   C     0.12999   0.13416   0.59460   0.00000  Uiso   1.00
C820   C     0.20148   0.20317   0.90467   0.00000  Uiso   1.00
C821   C     0.16637   0.16834   0.61583   0.00000  Uiso   1.00
C822   C     0.16639   0.16698   0.88411   0.00000  Uiso   1.00
C823   C     0.20137   0.20419   0.59210   0.00000  Uiso   1.00
C824   C     0.12797   0.13472   0.90878   0.00000  Uiso   1.00
C825   C     0.20305   0.20399   0.54521   0.00000  Uiso   1.00
C826   C     0.12278   0.13980   0.95550   0.00000  Uiso   1.00
C827   C     0.16372   0.17127   0.52352   0.00000  Uiso   1.00
C828   C     0.16321   0.17177   0.97682   0.00000  Uiso   1.00
C829   C     0.12486   0.13794   0.54863   0.00000  Uiso   1.00
C830   C     0.20388   0.20316   0.95130   0.00000  Uiso   1.00
C831   C     0.24212   0.23642   0.51993   0.00000  Uiso   1.00
C832   C     0.07942   0.11219   0.98123   0.00000  Uiso   1.00
N833   N     0.31678   0.15265   0.73783   0.00000  Uiso   1.00
N834   N     0.01656   0.18068   0.76217   0.00000  Uiso   1.00
O835   O     0.12975   0.24619   0.75299   0.00000  Uiso   1.00
O836   O     0.20358   0.08714   0.74702   0.00000  Uiso   1.00
O837   O     0.22613   0.23721   0.74519   0.00000  Uiso   1.00
O838   O     0.10720   0.09613   0.75482   0.00000  Uiso   1.00
O839   O     0.11847   0.17117   0.81998   0.00000  Uiso   1.00
O840   O     0.21486   0.16216   0.68003   0.00000  Uiso   1.00
O841   O     0.21485   0.16219   0.81218   0.00000  Uiso   1.00
O842   O     0.11848   0.17115   0.68783   0.00000  Uiso   1.00
Zn843  Zn    0.10231   0.17266   0.75521   0.00000  Uiso   1.00
Zn844  Zn    0.23102   0.16067   0.74479   0.00000  Uiso   1.00
O845   O     0.09799   0.09843   0.61984   0.00000  Uiso   1.00
C846   C     0.13001   0.05488   0.62164   0.00000  Uiso   1.00
H847   H     0.16846   0.06323   0.64019   0.00000  Uiso   1.00
H848   H     0.14241   0.03922   0.58739   0.00000  Uiso   1.00
H849   H     0.10316   0.02524   0.64001   0.00000  Uiso   1.00
O850   O     0.23268   0.23854   0.87848   0.00000  Uiso   1.00
C851   C     0.19882   0.28046   0.87384   0.00000  Uiso   1.00
H852   H     0.16089   0.26952   0.85539   0.00000  Uiso   1.00
H853   H     0.22473   0.30960   0.85412   0.00000  Uiso   1.00
H854   H     0.18527   0.29806   0.90708   0.00000  Uiso   1.00
O855   O     0.23078   0.24165   0.61537   0.00000  Uiso   1.00
C856   C     0.19382   0.28186   0.62557   0.00000  Uiso   1.00
H857   H     0.16672   0.28914   0.59797   0.00000  Uiso   1.00
H858   H     0.21997   0.31725   0.63097   0.00000  Uiso   1.00
H859   H     0.16582   0.27402   0.65646   0.00000  Uiso   1.00
O860   O     0.09639   0.09752   0.88677   0.00000  Uiso   1.00
C861   C     0.12516   0.05168   0.88641   0.00000  Uiso   1.00
H862   H     0.09510   0.01956   0.87849   0.00000  Uiso   1.00
H863   H     0.14031   0.04363   0.91957   0.00000  Uiso   1.00
H864   H     0.16161   0.05247   0.86027   0.00000  Uiso   1.00
O865   O     0.28071   0.26854   0.54094   0.00000  Uiso   1.00
C866   C     0.26776   0.31990   0.53550   0.00000  Uiso   1.00
H867   H     0.22158   0.32552   0.53272   0.00000  Uiso   1.00
H868   H     0.29308   0.00234   0.50579   0.00000  Uiso   1.00
H869   H     0.27993   0.00919   0.56534   0.00000  Uiso   1.00
O870   O     0.03604   0.08456   0.96157   0.00000  Uiso   1.00
C871   C     0.32596   0.11779   0.95450   0.00000  Uiso   1.00
H872   H     0.00739   0.14581   0.92858   0.00000  Uiso   1.00
H873   H     0.31015   0.13802   0.98604   0.00000  Uiso   1.00
H874   H     0.28936   0.09497   0.94207   0.00000  Uiso   1.00
N875   N     0.29355   0.25868   0.94948   0.00000  Uiso   1.00
H876   H     0.28079   0.28988   0.93287   0.00000  Uiso   1.00
H877   H     0.31412   0.23289   0.92710   0.00000  Uiso   1.00
N878   N     0.04024   0.07811   0.55258   0.00000  Uiso   1.00
H879   H     0.04338   0.04065   0.54010   0.00000  Uiso   1.00
H880   H     0.33299   0.09052   0.54834   0.00000  Uiso   1.00
O881   O     0.23014   0.00603   0.71066   0.00000  Uiso   1.00
C882   C     0.28361   0.31743   0.71081   0.00000  Uiso   1.00
H883   H     0.28547   0.28278   0.68859   0.00000  Uiso   1.00
H884   H     0.29395   0.30925   0.74520   0.00000  Uiso   1.00
H885   H     0.31732   0.01092   0.69668   0.00000  Uiso   1.00
O886   O     0.10485   0.32783   0.79242   0.00000  Uiso   1.00
C887   C     0.05140   0.01659   0.79271   0.00000  Uiso   1.00
H888   H     0.03995   0.02331   0.75836   0.00000  Uiso   1.00
H889   H     0.05049   0.05225   0.81362   0.00000  Uiso   1.00
H890   H     0.01790   0.32399   0.80842   0.00000  Uiso   1.00
O891   O     0.01207   0.11847   0.71126   0.00000  Uiso   1.00
C892   C     0.31536   0.10872   0.67330   0.00000  Uiso   1.00
H893   H     0.31476   0.14365   0.65345   0.00000  Uiso   1.00
H894   H     0.27239   0.09173   0.68222   0.00000  Uiso   1.00
H895   H     0.00359   0.07954   0.65158   0.00000  Uiso   1.00
O896   O     0.32125   0.21490   0.78864   0.00000  Uiso   1.00
C897   C     0.01764   0.22425   0.82677   0.00000  Uiso   1.00
H898   H     0.06057   0.24149   0.81811   0.00000  Uiso   1.00
H899   H     0.01830   0.18908   0.84629   0.00000  Uiso   1.00
H900   H     0.32898   0.25302   0.84861   0.00000  Uiso   1.00
C901   C     0.51502   0.26475   0.74843   0.00000  Uiso   1.00
C902   C     0.48512   0.06864   0.75253   0.00000  Uiso   1.00
C903   C     0.57849   0.23346   0.97319   0.00000  Uiso   1.00
C904   C     0.41530   0.10955   0.52738   0.00000  Uiso   1.00
C905   C     0.52197   0.31897   0.74233   0.00000  Uiso   1.00
C906   C     0.47888   0.01455   0.75997   0.00000  Uiso   1.00
C907   C     0.49999   0.16568   0.83628   0.00000  Uiso   1.00
C908   C     0.49991   0.16736   0.66367   0.00000  Uiso   1.00
C909   C     0.46332   0.13416   0.59460   0.00000  Uiso   1.00
C910   C     0.53481   0.20317   0.90467   0.00000  Uiso   1.00
C911   C     0.49970   0.16834   0.61583   0.00000  Uiso   1.00
C912   C     0.49973   0.16698   0.88411   0.00000  Uiso   1.00
C913   C     0.53471   0.20419   0.59210   0.00000  Uiso   1.00
C914   C     0.46130   0.13472   0.90878   0.00000  Uiso   1.00
C915   C     0.53639   0.20399   0.54521   0.00000  Uiso   1.00
C916   C     0.45611   0.13980   0.95550   0.00000  Uiso   1.00
C917   C     0.49705   0.17127   0.52352   0.00000  Uiso   1.00
C918   C     0.49655   0.17177   0.97682   0.00000  Uiso   1.00
C919   C     0.45819   0.13794   0.54863   0.00000  Uiso   1.00
C920   C     0.53721   0.20316   0.95130   0.00000  Uiso   1.00
C921   C     0.57546   0.23642   0.51993   0.00000  Uiso   1.00
C922   C     0.41276   0.11219   0.98123   0.00000  Uiso   1.00
N923   N     0.65011   0.15265   0.73783   0.00000  Uiso   1.00
N924   N     0.34989   0.18068   0.76217   0.00000  Uiso   1.00
O925   O     0.46308   0.24619   0.75299   0.00000  Uiso   1.00
O926   O     0.53692   0.08714   0.74702   0.00000  Uiso   1.00
O927   O     0.55946   0.23721   0.74519   0.00000  Uiso   1.00
O928   O     0.44054   0.09613   0.75482   0.00000  Uiso   1.00
O929   O     0.45181   0.17117   0.81998   0.00000  Uiso   1.00
O930   O     0.54819   0.16216   0.68003   0.00000  Uiso   1.00
O931   O     0.54819   0.16219   0.81218   0.00000  Uiso   1.00
O932   O     0.45181   0.17115   0.68783   0.00000  Uiso   1.00
Zn933  Zn    0.43565   0.17266   0.75521   0.00000  Uiso   1.00
Zn934  Zn    0.56435   0.16067   0.74479   0.00000  Uiso   1.00
O935   O     0.43132   0.09843   0.61984   0.00000  Uiso   1.00
C936   C     0.46334   0.05488   0.62164   0.00000  Uiso   1.00
H937   H     0.50179   0.06323   0.64019   0.00000  Uiso   1.00
H938   H     0.47575   0.03922   0.58739   0.00000  Uiso   1.00
H939   H     0.43649   0.02524   0.64001   0.00000  Uiso   1.00
O940   O     0.56602   0.23854   0.87848   0.00000  Uiso   1.00
C941   C     0.53216   0.28046   0.87384   0.00000  Uiso   1.00
H942   H     0.49422   0.26952   0.85539   0.00000  Uiso   1.00
H943   H     0.55806   0.30960   0.85412   0.00000  Uiso   1.00
H944   H     0.51861   0.29806   0.90708   0.00000  Uiso   1.00
O945   O     0.56411   0.24165   0.61537   0.00000  Uiso   1.00
C946   C     0.52715   0.28186   0.62557   0.00000  Uiso   1.00
H947   H     0.50005   0.28914   0.59797   0.00000  Uiso   1.00
H948   H     0.55330   0.31725   0.63097   0.00000  Uiso   1.00
H949   H     0.49915   0.27402   0.65646   0.00000  Uiso   1.00
O950   O     0.42972   0.09752   0.88677   0.00000  Uiso   1.00
C951   C     0.45850   0.05168   0.88641   0.00000  Uiso   1.00
H952   H     0.42843   0.01956   0.87849   0.00000  Uiso   1.00
H953   H     0.47364   0.04363   0.91957   0.00000  Uiso   1.00
H954   H     0.49494   0.05247   0.86027   0.00000  Uiso   1.00
O955   O     0.61405   0.26854   0.54094   0.00000  Uiso   1.00
C956   C     0.60109   0.31990   0.53550   0.00000  Uiso   1.00
H957   H     0.55491   0.32552   0.53272   0.00000  Uiso   1.00
H958   H     0.62641   0.00234   0.50579   0.00000  Uiso   1.00
H959   H     0.61326   0.00919   0.56534   0.00000  Uiso   1.00
O960   O     0.36938   0.08456   0.96157   0.00000  Uiso   1.00
C961   C     0.65929   0.11779   0.95450   0.00000  Uiso   1.00
H962   H     0.34072   0.14581   0.92858   0.00000  Uiso   1.00
H963   H     0.64348   0.13802   0.98604   0.00000  Uiso   1.00
H964   H     0.62270   0.09497   0.94207   0.00000  Uiso   1.00
N965   N     0.62689   0.25868   0.94948   0.00000  Uiso   1.00
H966   H     0.61413   0.28988   0.93287   0.00000  Uiso   1.00
H967   H     0.64745   0.23289   0.92710   0.00000  Uiso   1.00
N968   N     0.37358   0.07811   0.55258   0.00000  Uiso   1.00
H969   H     0.37671   0.04065   0.54010   0.00000  Uiso   1.00
H970   H     0.66632   0.09052   0.54834   0.00000  Uiso   1.00
O971   O     0.56348   0.00603   0.71066   0.00000  Uiso   1.00
C972   C     0.61694   0.31743   0.71081   0.00000  Uiso   1.00
H973   H     0.61880   0.28278   0.68859   0.00000  Uiso   1.00
H974   H     0.62728   0.30925   0.74520   0.00000  Uiso   1.00
H975   H     0.65066   0.01092   0.69668   0.00000  Uiso   1.00
O976   O     0.43818   0.32783   0.79242   0.00000  Uiso   1.00
C977   C     0.38473   0.01659   0.79271   0.00000  Uiso   1.00
H978   H     0.37328   0.02331   0.75836   0.00000  Uiso   1.00
H979   H     0.38382   0.05225   0.81362   0.00000  Uiso   1.00
H980   H     0.35124   0.32399   0.80842   0.00000  Uiso   1.00
O981   O     0.34540   0.11847   0.71126   0.00000  Uiso   1.00
C982   C     0.64869   0.10872   0.67330   0.00000  Uiso   1.00
H983   H     0.64810   0.14365   0.65345   0.00000  Uiso   1.00
H984   H     0.60573   0.09173   0.68222   0.00000  Uiso   1.00
H985   H     0.33693   0.07954   0.65158   0.00000  Uiso   1.00
O986   O     0.65458   0.21490   0.78864   0.00000  Uiso   1.00
C987   C     0.35097   0.22425   0.82677   0.00000  Uiso   1.00
H988   H     0.39390   0.24149   0.81811   0.00000  Uiso   1.00
H989   H     0.35163   0.18908   0.84629   0.00000  Uiso   1.00
H990   H     0.66232   0.25302   0.84861   0.00000  Uiso   1.00
C991   C     0.84835   0.26475   0.74843   0.00000  Uiso   1.00
C992   C     0.81845   0.06864   0.75253   0.00000  Uiso   1.00
C993   C     0.91183   0.23346   0.97319   0.00000  Uiso   1.00
C994   C     0.74863   0.10955   0.52738   0.00000  Uiso   1.00
C995   C     0.85530   0.31897   0.74233   0.00000  Uiso   1.00
C996   C     0.81222   0.01455   0.75997   0.00000  Uiso   1.00
C997   C     0.83332   0.16568   0.83628   0.00000  Uiso   1.00
C998   C     0.83324   0.16736   0.66367   0.00000  Uiso   1.00
C999   C     0.79666   0.13416   0.59460   0.00000  Uiso   1.00
C1000  C     0.86815   0.20317   0.90467   0.00000  Uiso   1.00
C1001  C     0.83304   0.16834   0.61583   0.00000  Uiso   1.00
C1002  C     0.83306   0.16698   0.88411   0.00000  Uiso   1.00
C1003  C     0.86804   0.20419   0.59210   0.00000  Uiso   1.00
C1004  C     0.79463   0.13472   0.90878   0.00000  Uiso   1.00
C1005  C     0.86972   0.20399   0.54521   0.00000  Uiso   1.00
C1006  C     0.78945   0.13980   0.95550   0.00000  Uiso   1.00
C1007  C     0.83038   0.17127   0.52352   0.00000  Uiso   1.00
C1008  C     0.82988   0.17177   0.97682   0.00000  Uiso   1.00
C1009  C     0.79152   0.13794   0.54863   0.00000  Uiso   1.00
C1010  C     0.87055   0.20316   0.95130   0.00000  Uiso   1.00
C1011  C     0.90879   0.23642   0.51993   0.00000  Uiso   1.00
C1012  C     0.74609   0.11219   0.98123   0.00000  Uiso   1.00
N1013  N     0.98344   0.15265   0.73783   0.00000  Uiso   1.00
N1014  N     0.68322   0.18068   0.76217   0.00000  Uiso   1.00
O1015  O     0.79642   0.24619   0.75299   0.00000  Uiso   1.00
O1016  O     0.87025   0.08714   0.74702   0.00000  Uiso   1.00
O1017  O     0.89280   0.23721   0.74519   0.00000  Uiso   1.00
O1018  O     0.77387   0.09613   0.75482   0.00000  Uiso   1.00
O1019  O     0.78514   0.17117   0.81998   0.00000  Uiso   1.00
O1020  O     0.88153   0.16216   0.68003   0.00000  Uiso   1.00
O1021  O     0.88152   0.16219   0.81218   0.00000  Uiso   1.00
O1022  O     0.78515   0.17115   0.68783   0.00000  Uiso   1.00
Zn1023 Zn    0.76898   0.17266   0.75521   0.00000  Uiso   1.00
Zn1024 Zn    0.89769   0.16067   0.74479   0.00000  Uiso   1.00
O1025  O     0.76466   0.09843   0.61984   0.00000  Uiso   1.00
C1026  C     0.79667   0.05488   0.62164   0.00000  Uiso   1.00
H1027  H     0.83512   0.06323   0.64019   0.00000  Uiso   1.00
H1028  H     0.80908   0.03922   0.58739   0.00000  Uiso   1.00
H1029  H     0.76983   0.02524   0.64001   0.00000  Uiso   1.00
O1030  O     0.89935   0.23854   0.87848   0.00000  Uiso   1.00
C1031  C     0.86549   0.28046   0.87384   0.00000  Uiso   1.00
H1032  H     0.82755   0.26952   0.85539   0.00000  Uiso   1.00
H1033  H     0.89140   0.30960   0.85412   0.00000  Uiso   1.00
H1034  H     0.85194   0.29806   0.90708   0.00000  Uiso   1.00
O1035  O     0.89745   0.24165   0.61537   0.00000  Uiso   1.00
C1036  C     0.86048   0.28186   0.62557   0.00000  Uiso   1.00
H1037  H     0.83339   0.28914   0.59797   0.00000  Uiso   1.00
H1038  H     0.88664   0.31725   0.63097   0.00000  Uiso   1.00
H1039  H     0.83248   0.27402   0.65646   0.00000  Uiso   1.00
O1040  O     0.76305   0.09752   0.88677   0.00000  Uiso   1.00
C1041  C     0.79183   0.05168   0.88641   0.00000  Uiso   1.00
H1042  H     0.76177   0.01956   0.87849   0.00000  Uiso   1.00
H1043  H     0.80697   0.04363   0.91957   0.00000  Uiso   1.00
H1044  H     0.82828   0.05247   0.86027   0.00000  Uiso   1.00
O1045  O     0.94738   0.26854   0.54094   0.00000  Uiso   1.00
C1046  C     0.93443   0.31990   0.53550   0.00000  Uiso   1.00
H1047  H     0.88825   0.32552   0.53272   0.00000  Uiso   1.00
H1048  H     0.95974   0.00234   0.50579   0.00000  Uiso   1.00
H1049  H     0.94659   0.00919   0.56534   0.00000  Uiso   1.00
O1050  O     0.70271   0.08456   0.96157   0.00000  Uiso   1.00
C1051  C     0.99262   0.11779   0.95450   0.00000  Uiso   1.00
H1052  H     0.67406   0.14581   0.92858   0.00000  Uiso   1.00
H1053  H     0.97682   0.13802   0.98604   0.00000  Uiso   1.00
H1054  H     0.95603   0.09497   0.94207   0.00000  Uiso   1.00
N1055  N     0.96022   0.25868   0.94948   0.00000  Uiso   1.00
H1056  H     0.94746   0.28988   0.93287   0.00000  Uiso   1.00
H1057  H     0.98078   0.23289   0.92710   0.00000  Uiso   1.00
N1058  N     0.70691   0.07811   0.55258   0.00000  Uiso   1.00
H1059  H     0.71005   0.04065   0.54010   0.00000  Uiso   1.00
H1060  H     0.99966   0.09052   0.54834   0.00000  Uiso   1.00
O1061  O     0.89681   0.00603   0.71066   0.00000  Uiso   1.00
C1062  C     0.95027   0.31743   0.71081   0.00000  Uiso   1.00
H1063  H     0.95213   0.28278   0.68859   0.00000  Uiso   1.00
H1064  H     0.96061   0.30925   0.74520   0.00000  Uiso   1.00
H1065  H     0.98399   0.01092   0.69668   0.00000  Uiso   1.00
O1066  O     0.77152   0.32783   0.79242   0.00000  Uiso   1.00
C1067  C     0.71807   0.01659   0.79271   0.00000  Uiso   1.00
H1068  H     0.70662   0.02331   0.75836   0.00000  Uiso   1.00
H1069  H     0.71716   0.05225   0.81362   0.00000  Uiso   1.00
H1070  H     0.68457   0.32399   0.80842   0.00000  Uiso   1.00
O1071  O     0.67874   0.11847   0.71126   0.00000  Uiso   1.00
C1072  C     0.98202   0.10872   0.67330   0.00000  Uiso   1.00
H1073  H     0.98143   0.14365   0.65345   0.00000  Uiso   1.00
H1074  H     0.93906   0.09173   0.68222   0.00000  Uiso   1.00
H1075  H     0.67026   0.07954   0.65158   0.00000  Uiso   1.00
O1076  O     0.98792   0.21490   0.78864   0.00000  Uiso   1.00
C1077  C     0.68430   0.22425   0.82677   0.00000  Uiso   1.00
H1078  H     0.72723   0.24149   0.81811   0.00000  Uiso   1.00
H1079  H     0.68497   0.18908   0.84629   0.00000  Uiso   1.00
H1080  H     0.99565   0.25302   0.84861   0.00000  Uiso   1.00
C1081  C     0.18169   0.59808   0.74843   0.00000  Uiso   1.00
C1082  C     0.15179   0.40198   0.75253   0.00000  Uiso   1.00
C1083  C     0.24516   0.56679   0.97319   0.00000  Uiso   1.00
C1084  C     0.08197   0.44288   0.52738   0.00000  Uiso   1.00
C1085  C     0.18863   0.65230   0.74233   0.00000  Uiso   1.00
C1086  C     0.14555   0.34789   0.75997   0.00000  Uiso   1.00
C1087  C     0.16666   0.49902   0.83628   0.00000  Uiso   1.00
C1088  C     0.16657   0.50069   0.66367   0.00000  Uiso   1.00
C1089  C     0.12999   0.46750   0.59460   0.00000  Uiso   1.00
C1090  C     0.20148   0.53650   0.90467   0.00000  Uiso   1.00
C1091  C     0.16637   0.50167   0.61583   0.00000  Uiso   1.00
C1092  C     0.16639   0.50031   0.88411   0.00000  Uiso   1.00
C1093  C     0.20137   0.53753   0.59210   0.00000  Uiso   1.00
C1094  C     0.12797   0.46805   0.90878   0.00000  Uiso   1.00
C1095  C     0.20305   0.53732   0.54521   0.00000  Uiso   1.00
C1096  C     0.12278   0.47313   0.95550   0.00000  Uiso   1.00
C1097  C     0.16372   0.50460   0.52352   0.00000  Uiso   1.00
C1098  C     0.16321   0.50510   0.97682   0.00000  Uiso   1.00
C1099  C     0.12486   0.47128   0.54863   0.00000  Uiso   1.00
C1100  C     0.20388   0.53649   0.95130   0.00000  Uiso   1.00
C1101  C     0.24212   0.56975   0.51993   0.00000  Uiso   1.00
C1102  C     0.07942   0.44552   0.98123   0.00000  Uiso   1.00
N1103  N     0.31678   0.48598   0.73783   0.00000  Uiso   1.00
N1104  N     0.01656   0.51402   0.76217   0.00000  Uiso   1.00
O1105  O     0.12975   0.57952   0.75299   0.00000  Uiso   1.00
O1106  O     0.20358   0.42048   0.74702   0.00000  Uiso   1.00
O1107  O     0.22613   0.57054   0.74519   0.00000  Uiso   1.00
O1108  O     0.10720   0.42946   0.75482   0.00000  Uiso   1.00
O1109  O     0.11847   0.50450   0.81998   0.00000  Uiso   1.00
O1110  O     0.21486   0.49550   0.68003   0.00000  Uiso   1.00
O1111  O     0.21485   0.49552   0.81218   0.00000  Uiso   1.00
O1112  O     0.11848   0.50448   0.68783   0.00000  Uiso   1.00
Zn1113 Zn    0.10231   0.50600   0.75521   0.00000  Uiso   1.00
Zn1114 Zn    0.23102   0.49400   0.74479   0.00000  Uiso   1.00
O1115  O     0.09799   0.43176   0.61984   0.00000  Uiso   1.00
C1116  C     0.13001   0.38821   0.62164   0.00000  Uiso   1.00
H1117  H     0.16846   0.39656   0.64019   0.00000  Uiso   1.00
H1118  H     0.14241   0.37255   0.58739   0.00000  Uiso   1.00
H1119  H     0.10316   0.35857   0.64001   0.00000  Uiso   1.00
O1120  O     0.23268   0.57187   0.87848   0.00000  Uiso   1.00
C1121  C     0.19882   0.61380   0.87384   0.00000  Uiso   1.00
H1122  H     0.16089   0.60285   0.85539   0.00000  Uiso   1.00
H1123  H     0.22473   0.64293   0.85412   0.00000  Uiso   1.00
H1124  H     0.18527   0.63139   0.90708   0.00000  Uiso   1.00
O1125  O     0.23078   0.57499   0.61537   0.00000  Uiso   1.00
C1126  C     0.19382   0.61519   0.62557   0.00000  Uiso   1.00
H1127  H     0.16672   0.62247   0.59797   0.00000  Uiso   1.00
H1128  H     0.21997   0.65058   0.63097   0.00000  Uiso   1.00
H1129  H     0.16582   0.60735   0.65646   0.00000  Uiso   1.00
O1130  O     0.09639   0.43085   0.88677   0.00000  Uiso   1.00
C1131  C     0.12516   0.38501   0.88641   0.00000  Uiso   1.00
H1132  H     0.09510   0.35290   0.87849   0.00000  Uiso   1.00
H1133  H     0.14031   0.37696   0.91957   0.00000  Uiso   1.00
H1134  H     0.16161   0.38581   0.86027   0.00000  Uiso   1.00
O1135  O     0.28071   0.60187   0.54094   0.00000  Uiso   1.00
C1136  C     0.26776   0.65323   0.53550   0.00000  Uiso   1.00
H1137  H     0.22158   0.65886   0.53272   0.00000  Uiso   1.00
H1138  H     0.29308   0.33567   0.50579   0.00000  Uiso   1.00
H1139  H     0.27993   0.34252   0.56534   0.00000  Uiso   1.00
O1140  O     0.03604   0.41790   0.96157   0.00000  Uiso   1.00
C1141  C     0.32596   0.45112   0.95450   0.00000  Uiso   1.00
H1142  H     0.00739   0.47915   0.92858   0.00000  Uiso   1.00
H1143  H     0.31015   0.47135   0.98604   0.00000  Uiso   1.00
H1144  H     0.28936   0.42831   0.94207   0.00000  Uiso   1.00
N1145  N     0.29355   0.59202   0.94948   0.00000  Uiso   1.00
H1146  H     0.28079   0.62322   0.93287   0.00000  Uiso   1.00
H1147  H     0.31412   0.56622   0.92710   0.00000  Uiso   1.00
N1148  N     0.04024   0.41145   0.55258   0.00000  Uiso   1.00
H1149  H     0.04338   0.37398   0.54010   0.00000  Uiso   1.00
H1150  H     0.33299   0.42385   0.54834   0.00000  Uiso   1.00
O1151  O     0.23014   0.33936   0.71066   0.00000  Uiso   1.00
C1152  C     0.28361   0.65076   0.71081   0.00000  Uiso   1.00
H1153  H     0.28547   0.61611   0.68859   0.00000  Uiso   1.00
H1154  H     0.29395   0.64258   0.74520   0.00000  Uiso   1.00
H1155  H     0.31732   0.34425   0.69668   0.00000  Uiso   1.00
O1156  O     0.10485   0.66117   0.79242   0.00000  Uiso   1.00
C1157  C     0.05140   0.34993   0.79271   0.00000  Uiso   1.00
H1158  H     0.03995   0.35665   0.75836   0.00000  Uiso   1.00
H1159  H     0.05049   0.38559   0.81362   0.00000  Uiso   1.00
H1160  H     0.01790   0.65732   0.80842   0.00000  Uiso   1.00
O1161  O     0.01207   0.45180   0.71126   0.00000  Uiso   1.00
C1162  C     0.31536   0.44206   0.67330   0.00000  Uiso   1.00
H1163  H     0.31476   0.47699   0.65345   0.00000  Uiso   1.00
H1164  H     0.27239   0.42507   0.68222   0.00000  Uiso   1.00
H1165  H     0.00359   0.41288   0.65158   0.00000  Uiso   1.00
O1166  O     0.32125   0.54823   0.78864   0.00000  Uiso   1.00
C1167  C     0.01764   0.55759   0.82677   0.00000  Uiso   1.00
H1168  H     0.06057   0.57482   0.81811   0.00000  Uiso   1.00
H1169  H     0.01830   0.52241   0.84629   0.00000  Uiso   1.00
H1170  H     0.32898   0.58635   0.84861   0.00000  Uiso   1.00
C1171  C     0.51502   0.59808   0.74843   0.00000  Uiso   1.00
C1172  C     0.48512   0.40198   0.75253   0.00000  Uiso   1.00
C1173  C     0.57849   0.56679   0.97319   0.00000  Uiso   1.00
C1174  C     0.41530   0.44288   0.52738   0.00000  Uiso   1.00
C1175  C     0.52197   0.65230   0.74233   0.00000  Uiso   1.00
C1176  C     0.47888   0.34789   0.75997   0.00000  Uiso   1.00
C1177  C     0.49999   0.49902   0.83628   0.00000  Uiso   1.00
C1178  C     0.49991   0.50069   0.66367   0.00000  Uiso   1.00
C1179  C     0.46332   0.46750   0.59460   0.00000  Uiso   1.00
C1180  C     0.53481   0.53650   0.90467   0.00000  Uiso   1.00
C1181  C     0.49970   0.50167   0.61583   0.00000  Uiso   1.00
C1182  C     0.49973   0.50031   0.88411   0.00000  Uiso   1.00
C1183  C     0.53471   0.53753   0.59210   0.00000  Uiso   1.00
C1184  C     0.46130   0.46805   0.90878   0.00000  Uiso   1.00
C1185  C     0.53639   0.53732   0.54521   0.00000  Uiso   1.00
C1186  C     0.45611   0.47313   0.95550   0.00000  Uiso   1.00
C1187  C     0.49705   0.50460   0.52352   0.00000  Uiso   1.00
C1188  C     0.49655   0.50510   0.97682   0.00000  Uiso   1.00
C1189  C     0.45819   0.47128   0.54863   0.00000  Uiso   1.00
C1190  C     0.53721   0.53649   0.95130   0.00000  Uiso   1.00
C1191  C     0.57546   0.56975   0.51993   0.00000  Uiso   1.00
C1192  C     0.41276   0.44552   0.98123   0.00000  Uiso   1.00
N1193  N     0.65011   0.48598   0.73783   0.00000  Uiso   1.00
N1194  N     0.34989   0.51402   0.76217   0.00000  Uiso   1.00
O1195  O     0.46308   0.57952   0.75299   0.00000  Uiso   1.00
O1196  O     0.53692   0.42048   0.74702   0.00000  Uiso   1.00
O1197  O     0.55946   0.57054   0.74519   0.00000  Uiso   1.00
O1198  O     0.44054   0.42946   0.75482   0.00000  Uiso   1.00
O1199  O     0.45181   0.50450   0.81998   0.00000  Uiso   1.00
O1200  O     0.54819   0.49550   0.68003   0.00000  Uiso   1.00
O1201  O     0.54819   0.49552   0.81218   0.00000  Uiso   1.00
O1202  O     0.45181   0.50448   0.68783   0.00000  Uiso   1.00
Zn1203 Zn    0.43565   0.50600   0.75521   0.00000  Uiso   1.00
Zn1204 Zn    0.56435   0.49400   0.74479   0.00000  Uiso   1.00
O1205  O     0.43132   0.43176   0.61984   0.00000  Uiso   1.00
C1206  C     0.46334   0.38821   0.62164   0.00000  Uiso   1.00
H1207  H     0.50179   0.39656   0.64019   0.00000  Uiso   1.00
H1208  H     0.47575   0.37255   0.58739   0.00000  Uiso   1.00
H1209  H     0.43649   0.35857   0.64001   0.00000  Uiso   1.00
O1210  O     0.56602   0.57187   0.87848   0.00000  Uiso   1.00
C1211  C     0.53216   0.61380   0.87384   0.00000  Uiso   1.00
H1212  H     0.49422   0.60285   0.85539   0.00000  Uiso   1.00
H1213  H     0.55806   0.64293   0.85412   0.00000  Uiso   1.00
H1214  H     0.51861   0.63139   0.90708   0.00000  Uiso   1.00
O1215  O     0.56411   0.57499   0.61537   0.00000  Uiso   1.00
C1216  C     0.52715   0.61519   0.62557   0.00000  Uiso   1.00
H1217  H     0.50005   0.62247   0.59797   0.00000  Uiso   1.00
H1218  H     0.55330   0.65058   0.63097   0.00000  Uiso   1.00
H1219  H     0.49915   0.60735   0.65646   0.00000  Uiso   1.00
O1220  O     0.42972   0.43085   0.88677   0.00000  Uiso   1.00
C1221  C     0.45850   0.38501   0.88641   0.00000  Uiso   1.00
H1222  H     0.42843   0.35290   0.87849   0.00000  Uiso   1.00
H1223  H     0.47364   0.37696   0.91957   0.00000  Uiso   1.00
H1224  H     0.49494   0.38581   0.86027   0.00000  Uiso   1.00
O1225  O     0.61405   0.60187   0.54094   0.00000  Uiso   1.00
C1226  C     0.60109   0.65323   0.53550   0.00000  Uiso   1.00
H1227  H     0.55491   0.65886   0.53272   0.00000  Uiso   1.00
H1228  H     0.62641   0.33567   0.50579   0.00000  Uiso   1.00
H1229  H     0.61326   0.34252   0.56534   0.00000  Uiso   1.00
O1230  O     0.36938   0.41790   0.96157   0.00000  Uiso   1.00
C1231  C     0.65929   0.45112   0.95450   0.00000  Uiso   1.00
H1232  H     0.34072   0.47915   0.92858   0.00000  Uiso   1.00
H1233  H     0.64348   0.47135   0.98604   0.00000  Uiso   1.00
H1234  H     0.62270   0.42831   0.94207   0.00000  Uiso   1.00
N1235  N     0.62689   0.59202   0.94948   0.00000  Uiso   1.00
H1236  H     0.61413   0.62322   0.93287   0.00000  Uiso   1.00
H1237  H     0.64745   0.56622   0.92710   0.00000  Uiso   1.00
N1238  N     0.37358   0.41145   0.55258   0.00000  Uiso   1.00
H1239  H     0.37671   0.37398   0.54010   0.00000  Uiso   1.00
H1240  H     0.66632   0.42385   0.54834   0.00000  Uiso   1.00
O1241  O     0.56348   0.33936   0.71066   0.00000  Uiso   1.00
C1242  C     0.61694   0.65076   0.71081   0.00000  Uiso   1.00
H1243  H     0.61880   0.61611   0.68859   0.00000  Uiso   1.00
H1244  H     0.62728   0.64258   0.74520   0.00000  Uiso   1.00
H1245  H     0.65066   0.34425   0.69668   0.00000  Uiso   1.00
O1246  O     0.43818   0.66117   0.79242   0.00000  Uiso   1.00
C1247  C     0.38473   0.34993   0.79271   0.00000  Uiso   1.00
H1248  H     0.37328   0.35665   0.75836   0.00000  Uiso   1.00
H1249  H     0.38382   0.38559   0.81362   0.00000  Uiso   1.00
H1250  H     0.35124   0.65732   0.80842   0.00000  Uiso   1.00
O1251  O     0.34540   0.45180   0.71126   0.00000  Uiso   1.00
C1252  C     0.64869   0.44206   0.67330   0.00000  Uiso   1.00
H1253  H     0.64810   0.47699   0.65345   0.00000  Uiso   1.00
H1254  H     0.60573   0.42507   0.68222   0.00000  Uiso   1.00
H1255  H     0.33693   0.41288   0.65158   0.00000  Uiso   1.00
O1256  O     0.65458   0.54823   0.78864   0.00000  Uiso   1.00
C1257  C     0.35097   0.55759   0.82677   0.00000  Uiso   1.00
H1258  H     0.39390   0.57482   0.81811   0.00000  Uiso   1.00
H1259  H     0.35163   0.52241   0.84629   0.00000  Uiso   1.00
H1260  H     0.66232   0.58635   0.84861   0.00000  Uiso   1.00
C1261  C     0.84835   0.59808   0.74843   0.00000  Uiso   1.00
C1262  C     0.81845   0.40198   0.75253   0.00000  Uiso   1.00
C1263  C     0.91183   0.56679   0.97319   0.00000  Uiso   1.00
C1264  C     0.74863   0.44288   0.52738   0.00000  Uiso   1.00
C1265  C     0.85530   0.65230   0.74233   0.00000  Uiso   1.00
C1266  C     0.81222   0.34789   0.75997   0.00000  Uiso   1.00
C1267  C     0.83332   0.49902   0.83628   0.00000  Uiso   1.00
C1268  C     0.83324   0.50069   0.66367   0.00000  Uiso   1.00
C1269  C     0.79666   0.46750   0.59460   0.00000  Uiso   1.00
C1270  C     0.86815   0.53650   0.90467   0.00000  Uiso   1.00
C1271  C     0.83304   0.50167   0.61583   0.00000  Uiso   1.00
C1272  C     0.83306   0.50031   0.88411   0.00000  Uiso   1.00
C1273  C     0.86804   0.53753   0.59210   0.00000  Uiso   1.00
C1274  C     0.79463   0.46805   0.90878   0.00000  Uiso   1.00
C1275  C     0.86972   0.53732   0.54521   0.00000  Uiso   1.00
C1276  C     0.78945   0.47313   0.95550   0.00000  Uiso   1.00
C1277  C     0.83038   0.50460   0.52352   0.00000  Uiso   1.00
C1278  C     0.82988   0.50510   0.97682   0.00000  Uiso   1.00
C1279  C     0.79152   0.47128   0.54863   0.00000  Uiso   1.00
C1280  C     0.87055   0.53649   0.95130   0.00000  Uiso   1.00
C1281  C     0.90879   0.56975   0.51993   0.00000  Uiso   1.00
C1282  C     0.74609   0.44552   0.98123   0.00000  Uiso   1.00
N1283  N     0.98344   0.48598   0.73783   0.00000  Uiso   1.00
N1284  N     0.68322   0.51402   0.76217   0.00000  Uiso   1.00
O1285  O     0.79642   0.57952   0.75299   0.00000  Uiso   1.00
O1286  O     0.87025   0.42048   0.74702   0.00000  Uiso   1.00
O1287  O     0.89280   0.57054   0.74519   0.00000  Uiso   1.00
O1288  O     0.77387   0.42946   0.75482   0.00000  Uiso   1.00
O1289  O     0.78514   0.50450   0.81998   0.00000  Uiso   1.00
O1290  O     0.88153   0.49550   0.68003   0.00000  Uiso   1.00
O1291  O     0.88152   0.49552   0.81218   0.00000  Uiso   1.00
O1292  O     0.78515   0.50448   0.68783   0.00000  Uiso   1.00
Zn1293 Zn    0.76898   0.50600   0.75521   0.00000  Uiso   1.00
Zn1294 Zn    0.89769   0.49400   0.74479   0.00000  Uiso   1.00
O1295  O     0.76466   0.43176   0.61984   0.00000  Uiso   1.00
C1296  C     0.79667   0.38821   0.62164   0.00000  Uiso   1.00
H1297  H     0.83512   0.39656   0.64019   0.00000  Uiso   1.00
H1298  H     0.80908   0.37255   0.58739   0.00000  Uiso   1.00
H1299  H     0.76983   0.35857   0.64001   0.00000  Uiso   1.00
O1300  O     0.89935   0.57187   0.87848   0.00000  Uiso   1.00
C1301  C     0.86549   0.61380   0.87384   0.00000  Uiso   1.00
H1302  H     0.82755   0.60285   0.85539   0.00000  Uiso   1.00
H1303  H     0.89140   0.64293   0.85412   0.00000  Uiso   1.00
H1304  H     0.85194   0.63139   0.90708   0.00000  Uiso   1.00
O1305  O     0.89745   0.57499   0.61537   0.00000  Uiso   1.00
C1306  C     0.86048   0.61519   0.62557   0.00000  Uiso   1.00
H1307  H     0.83339   0.62247   0.59797   0.00000  Uiso   1.00
H1308  H     0.88664   0.65058   0.63097   0.00000  Uiso   1.00
H1309  H     0.83248   0.60735   0.65646   0.00000  Uiso   1.00
O1310  O     0.76305   0.43085   0.88677   0.00000  Uiso   1.00
C1311  C     0.79183   0.38501   0.88641   0.00000  Uiso   1.00
H1312  H     0.76177   0.35290   0.87849   0.00000  Uiso   1.00
H1313  H     0.80697   0.37696   0.91957   0.00000  Uiso   1.00
H1314  H     0.82828   0.38581   0.86027   0.00000  Uiso   1.00
O1315  O     0.94738   0.60187   0.54094   0.00000  Uiso   1.00
C1316  C     0.93443   0.65323   0.53550   0.00000  Uiso   1.00
H1317  H     0.88825   0.65886   0.53272   0.00000  Uiso   1.00
H1318  H     0.95974   0.33567   0.50579   0.00000  Uiso   1.00
H1319  H     0.94659   0.34252   0.56534   0.00000  Uiso   1.00
O1320  O     0.70271   0.41790   0.96157   0.00000  Uiso   1.00
C1321  C     0.99262   0.45112   0.95450   0.00000  Uiso   1.00
H1322  H     0.67406   0.47915   0.92858   0.00000  Uiso   1.00
H1323  H     0.97682   0.47135   0.98604   0.00000  Uiso   1.00
H1324  H     0.95603   0.42831   0.94207   0.00000  Uiso   1.00
N1325  N     0.96022   0.59202   0.94948   0.00000  Uiso   1.00
H1326  H     0.94746   0.62322   0.93287   0.00000  Uiso   1.00
H1327  H     0.98078   0.56622   0.92710   0.00000  Uiso   1.00
N1328  N     0.70691   0.41145   0.55258   0.00000  Uiso   1.00
H1329  H     0.71005   0.37398   0.54010   0.00000  Uiso   1.00
H1330  H     0.99966   0.42385   0.54834   0.00000  Uiso   1.00
O1331  O     0.89681   0.33936   0.71066   0.00000  Uiso   1.00
C1332  C     0.95027   0.65076   0.71081   0.00000  Uiso   1.00
H1333  H     0.95213   0.61611   0.68859   0.00000  Uiso   1.00
H1334  H     0.96061   0.64258   0.74520   0.00000  Uiso   1.00
H1335  H     0.98399   0.34425   0.69668   0.00000  Uiso   1.00
O1336  O     0.77152   0.66117   0.79242   0.00000  Uiso   1.00
C1337  C     0.71807   0.34993   0.79271   0.00000  Uiso   1.00
H1338  H     0.70662   0.35665   0.75836   0.00000  Uiso   1.00
H1339  H     0.71716   0.38559   0.81362   0.00000  Uiso   1.00
H1340  H     0.68457   0.65732   0.80842   0.00000  Uiso   1.00
O1341  O     0.67874   0.45180   0.71126   0.00000  Uiso   1.00
C1342  C     0.98202   0.44206   0.67330   0.00000  Uiso   1.00
H1343  H     0.98143   0.47699   0.65345   0.00000  Uiso   1.00
H1344  H     0.93906   0.42507   0.68222   0.00000  Uiso   1.00
H1345  H     0.67026   0.41288   0.65158   0.00000  Uiso   1.00
O1346  O     0.98792   0.54823   0.78864   0.00000  Uiso   1.00
C1347  C     0.68430   0.55759   0.82677   0.00000  Uiso   1.00
H1348  H     0.72723   0.57482   0.81811   0.00000  Uiso   1.00
H1349  H     0.68497   0.52241   0.84629   0.00000  Uiso   1.00
H1350  H     0.99565   0.58635   0.84861   0.00000  Uiso   1.00
C1351  C     0.18169   0.93142   0.74843   0.00000  Uiso   1.00
C1352  C     0.15179   0.73531   0.75253   0.00000  Uiso   1.00
C1353  C     0.24516   0.90013   0.97319   0.00000  Uiso   1.00
C1354  C     0.08197   0.77622   0.52738   0.00000  Uiso   1.00
C1355  C     0.18863   0.98564   0.74233   0.00000  Uiso   1.00
C1356  C     0.14555   0.68122   0.75997   0.00000  Uiso   1.00
C1357  C     0.16666   0.83235   0.83628   0.00000  Uiso   1.00
C1358  C     0.16657   0.83402   0.66367   0.00000  Uiso   1.00
C1359  C     0.12999   0.80083   0.59460   0.00000  Uiso   1.00
C1360  C     0.20148   0.86984   0.90467   0.00000  Uiso   1.00
C1361  C     0.16637   0.83501   0.61583   0.00000  Uiso   1.00
C1362  C     0.16639   0.83365   0.88411   0.00000  Uiso   1.00
C1363  C     0.20137   0.87086   0.59210   0.00000  Uiso   1.00
C1364  C     0.12797   0.80139   0.90878   0.00000  Uiso   1.00
C1365  C     0.20305   0.87065   0.54521   0.00000  Uiso   1.00
C1366  C     0.12278   0.80647   0.95550   0.00000  Uiso   1.00
C1367  C     0.16372   0.83794   0.52352   0.00000  Uiso   1.00
C1368  C     0.16321   0.83843   0.97682   0.00000  Uiso   1.00
C1369  C     0.12486   0.80461   0.54863   0.00000  Uiso   1.00
C1370  C     0.20388   0.86983   0.95130   0.00000  Uiso   1.00
C1371  C     0.24212   0.90308   0.51993   0.00000  Uiso   1.00
C1372  C     0.07942   0.77885   0.98123   0.00000  Uiso   1.00
N1373  N     0.31678   0.81932   0.73783   0.00000  Uiso   1.00
N1374  N     0.01656   0.84735   0.76217   0.00000  Uiso   1.00
O1375  O     0.12975   0.91286   0.75299   0.00000  Uiso   1.00
O1376  O     0.20358   0.75381   0.74702   0.00000  Uiso   1.00
O1377  O     0.22613   0.90387   0.74519   0.00000  Uiso   1.00
O1378  O     0.10720   0.76279   0.75482   0.00000  Uiso   1.00
O1379  O     0.11847   0.83784   0.81998   0.00000  Uiso   1.00
O1380  O     0.21486   0.82883   0.68003   0.00000  Uiso   1.00
O1381  O     0.21485   0.82885   0.81218   0.00000  Uiso   1.00
O1382  O     0.11848   0.83781   0.68783   0.00000  Uiso   1.00
Zn1383 Zn    0.10231   0.83933   0.75521   0.00000  Uiso   1.00
Zn1384 Zn    0.23102   0.82734   0.74479   0.00000  Uiso   1.00
O1385  O     0.09799   0.76509   0.61984   0.00000  Uiso   1.00
C1386  C     0.13001   0.72154   0.62164   0.00000  Uiso   1.00
H1387  H     0.16846   0.72990   0.64019   0.00000  Uiso   1.00
H1388  H     0.14241   0.70588   0.58739   0.00000  Uiso   1.00
H1389  H     0.10316   0.69190   0.64001   0.00000  Uiso   1.00
O1390  O     0.23268   0.90520   0.87848   0.00000  Uiso   1.00
C1391  C     0.19882   0.94713   0.87384   0.00000  Uiso   1.00
H1392  H     0.16089   0.93618   0.85539   0.00000  Uiso   1.00
H1393  H     0.22473   0.97626   0.85412   0.00000  Uiso   1.00
H1394  H     0.18527   0.96473   0.90708   0.00000  Uiso   1.00
O1395  O     0.23078   0.90832   0.61537   0.00000  Uiso   1.00
C1396  C     0.19382   0.94852   0.62557   0.00000  Uiso   1.00
H1397  H     0.16672   0.95580   0.59797   0.00000  Uiso   1.00
H1398  H     0.21997   0.98391   0.63097   0.00000  Uiso   1.00
H1399  H     0.16582   0.94068   0.65646   0.00000  Uiso   1.00
O1400  O     0.09639   0.76418   0.88677   0.00000  Uiso   1.00
C1401  C     0.12516   0.71834   0.88641   0.00000  Uiso   1.00
H1402  H     0.09510   0.68623   0.87849   0.00000  Uiso   1.00
H1403  H     0.14031   0.71030   0.91957   0.00000  Uiso   1.00
H1404  H     0.16161   0.71914   0.86027   0.00000  Uiso   1.00
O1405  O     0.28071   0.93520   0.54094   0.00000  Uiso   1.00
C1406  C     0.26776   0.98657   0.53550   0.00000  Uiso   1.00
H1407  H     0.22158   0.99219   0.53272   0.00000  Uiso   1.00
H1408  H     0.29308   0.66901   0.50579   0.00000  Uiso   1.00
H1409  H     0.27993   0.67585   0.56534   0.00000  Uiso   1.00
O1410  O     0.03604   0.75123   0.96157   0.00000  Uiso   1.00
C1411  C     0.32596   0.78446   0.95450   0.00000  Uiso   1.00
H1412  H     0.00739   0.81248   0.92858   0.00000  Uiso   1.00
H1413  H     0.31015   0.80468   0.98604   0.00000  Uiso   1.00
H1414  H     0.28936   0.76164   0.94207   0.00000  Uiso   1.00
N1415  N     0.29355   0.92535   0.94948   0.00000  Uiso   1.00
H1416  H     0.28079   0.95655   0.93287   0.00000  Uiso   1.00
H1417  H     0.31412   0.89956   0.92710   0.00000  Uiso   1.00
N1418  N     0.04024   0.74478   0.55258   0.00000  Uiso   1.00
H1419  H     0.04338   0.70732   0.54010   0.00000  Uiso   1.00
H1420  H     0.33299   0.75719   0.54834   0.00000  Uiso   1.00
O1421  O     0.23014   0.67269   0.71066   0.00000  Uiso   1.00
C1422  C     0.28361   0.98410   0.71081   0.00000  Uiso   1.00
H1423  H     0.28547   0.94944   0.68859   0.00000  Uiso   1.00
H1424  H     0.29395   0.97592   0.74520   0.00000  Uiso   1.00
H1425  H     0.31732   0.67758   0.69668   0.00000  Uiso   1.00
O1426  O     0.10485   0.99450   0.79242   0.00000  Uiso   1.00
C1427  C     0.05140   0.68326   0.79271   0.00000  Uiso   1.00
H1428  H     0.03995   0.68998   0.75836   0.00000  Uiso   1.00
H1429  H     0.05049   0.71892   0.81362   0.00000  Uiso   1.00
H1430  H     0.01790   0.99066   0.80842   0.00000  Uiso   1.00
O1431  O     0.01207   0.78513   0.71126   0.00000  Uiso   1.00
C1432  C     0.31536   0.77539   0.67330   0.00000  Uiso   1.00
H1433  H     0.31476   0.81032   0.65345   0.00000  Uiso   1.00
H1434  H     0.27239   0.75840   0.68222   0.00000  Uiso   1.00
H1435  H     0.00359   0.74621   0.65158   0.00000  Uiso   1.00
O1436  O     0.32125   0.88157   0.78864   0.00000  Uiso   1.00
C1437  C     0.01764   0.89092   0.82677   0.00000  Uiso   1.00
H1438  H     0.06057   0.90815   0.81811   0.00000  Uiso   1.00
H1439  H     0.01830   0.85574   0.84629   0.00000  Uiso   1.00
H1440  H     0.32898   0.91968   0.84861   0.00000  Uiso   1.00
C1441  C     0.51502   0.93142   0.74843   0.00000  Uiso   1.00
C1442  C     0.48512   0.73531   0.75253   0.00000  Uiso   1.00
C1443  C     0.57849   0.90013   0.97319   0.00000  Uiso   1.00
C1444  C     0.41530   0.77622   0.52738   0.00000  Uiso   1.00
C1445  C     0.52197   0.98564   0.74233   0.00000  Uiso   1.00
C1446  C     0.47888   0.68122   0.75997   0.00000  Uiso   1.00
C1447  C     0.49999   0.83235   0.83628   0.00000  Uiso   1.00
C1448  C     0.49991   0.83402   0.66367   0.00000  Uiso   1.00
C1449  C     0.46332   0.80083   0.59460   0.00000  Uiso   1.00
C1450  C     0.53481   0.86984   0.90467   0.00000  Uiso   1.00
C1451  C     0.49970   0.83501   0.61583   0.00000  Uiso   1.00
C1452  C     0.49973   0.83365   0.88411   0.00000  Uiso   1.00
C1453  C     0.53471   0.87086   0.59210   0.00000  Uiso   1.00
C1454  C     0.46130   0.80139   0.90878   0.00000  Uiso   1.00
C1455  C     0.53639   0.87065   0.54521   0.00000  Uiso   1.00
C1456  C     0.45611   0.80647   0.95550   0.00000  Uiso   1.00
C1457  C     0.49705   0.83794   0.52352   0.00000  Uiso   1.00
C1458  C     0.49655   0.83843   0.97682   0.00000  Uiso   1.00
C1459  C     0.45819   0.80461   0.54863   0.00000  Uiso   1.00
C1460  C     0.53721   0.86983   0.95130   0.00000  Uiso   1.00
C1461  C     0.57546   0.90308   0.51993   0.00000  Uiso   1.00
C1462  C     0.41276   0.77885   0.98123   0.00000  Uiso   1.00
N1463  N     0.65011   0.81932   0.73783   0.00000  Uiso   1.00
N1464  N     0.34989   0.84735   0.76217   0.00000  Uiso   1.00
O1465  O     0.46308   0.91286   0.75299   0.00000  Uiso   1.00
O1466  O     0.53692   0.75381   0.74702   0.00000  Uiso   1.00
O1467  O     0.55946   0.90387   0.74519   0.00000  Uiso   1.00
O1468  O     0.44054   0.76279   0.75482   0.00000  Uiso   1.00
O1469  O     0.45181   0.83784   0.81998   0.00000  Uiso   1.00
O1470  O     0.54819   0.82883   0.68003   0.00000  Uiso   1.00
O1471  O     0.54819   0.82885   0.81218   0.00000  Uiso   1.00
O1472  O     0.45181   0.83781   0.68783   0.00000  Uiso   1.00
Zn1473 Zn    0.43565   0.83933   0.75521   0.00000  Uiso   1.00
Zn1474 Zn    0.56435   0.82734   0.74479   0.00000  Uiso   1.00
O1475  O     0.43132   0.76509   0.61984   0.00000  Uiso   1.00
C1476  C     0.46334   0.72154   0.62164   0.00000  Uiso   1.00
H1477  H     0.50179   0.72990   0.64019   0.00000  Uiso   1.00
H1478  H     0.47575   0.70588   0.58739   0.00000  Uiso   1.00
H1479  H     0.43649   0.69190   0.64001   0.00000  Uiso   1.00
O1480  O     0.56602   0.90520   0.87848   0.00000  Uiso   1.00
C1481  C     0.53216   0.94713   0.87384   0.00000  Uiso   1.00
H1482  H     0.49422   0.93618   0.85539   0.00000  Uiso   1.00
H1483  H     0.55806   0.97626   0.85412   0.00000  Uiso   1.00
H1484  H     0.51861   0.96473   0.90708   0.00000  Uiso   1.00
O1485  O     0.56411   0.90832   0.61537   0.00000  Uiso   1.00
C1486  C     0.52715   0.94852   0.62557   0.00000  Uiso   1.00
H1487  H     0.50005   0.95580   0.59797   0.00000  Uiso   1.00
H1488  H     0.55330   0.98391   0.63097   0.00000  Uiso   1.00
H1489  H     0.49915   0.94068   0.65646   0.00000  Uiso   1.00
O1490  O     0.42972   0.76418   0.88677   0.00000  Uiso   1.00
C1491  C     0.45850   0.71834   0.88641   0.00000  Uiso   1.00
H1492  H     0.42843   0.68623   0.87849   0.00000  Uiso   1.00
H1493  H     0.47364   0.71030   0.91957   0.00000  Uiso   1.00
H1494  H     0.49494   0.71914   0.86027   0.00000  Uiso   1.00
O1495  O     0.61405   0.93520   0.54094   0.00000  Uiso   1.00
C1496  C     0.60109   0.98657   0.53550   0.00000  Uiso   1.00
H1497  H     0.55491   0.99219   0.53272   0.00000  Uiso   1.00
H1498  H     0.62641   0.66901   0.50579   0.00000  Uiso   1.00
H1499  H     0.61326   0.67585   0.56534   0.00000  Uiso   1.00
O1500  O     0.36938   0.75123   0.96157   0.00000  Uiso   1.00
C1501  C     0.65929   0.78446   0.95450   0.00000  Uiso   1.00
H1502  H     0.34072   0.81248   0.92858   0.00000  Uiso   1.00
H1503  H     0.64348   0.80468   0.98604   0.00000  Uiso   1.00
H1504  H     0.62270   0.76164   0.94207   0.00000  Uiso   1.00
N1505  N     0.62689   0.92535   0.94948   0.00000  Uiso   1.00
H1506  H     0.61413   0.95655   0.93287   0.00000  Uiso   1.00
H1507  H     0.64745   0.89956   0.92710   0.00000  Uiso   1.00
N1508  N     0.37358   0.74478   0.55258   0.00000  Uiso   1.00
H1509  H     0.37671   0.70732   0.54010   0.00000  Uiso   1.00
H1510  H     0.66632   0.75719   0.54834   0.00000  Uiso   1.00
O1511  O     0.56348   0.67269   0.71066   0.00000  Uiso   1.00
C1512  C     0.61694   0.98410   0.71081   0.00000  Uiso   1.00
H1513  H     0.61880   0.94944   0.68859   0.00000  Uiso   1.00
H1514  H     0.62728   0.97592   0.74520   0.00000  Uiso   1.00
H1515  H     0.65066   0.67758   0.69668   0.00000  Uiso   1.00
O1516  O     0.43818   0.99450   0.79242   0.00000  Uiso   1.00
C1517  C     0.38473   0.68326   0.79271   0.00000  Uiso   1.00
H1518  H     0.37328   0.68998   0.75836   0.00000  Uiso   1.00
H1519  H     0.38382   0.71892   0.81362   0.00000  Uiso   1.00
H1520  H     0.35124   0.99066   0.80842   0.00000  Uiso   1.00
O1521  O     0.34540   0.78513   0.71126   0.00000  Uiso   1.00
C1522  C     0.64869   0.77539   0.67330   0.00000  Uiso   1.00
H1523  H     0.64810   0.81032   0.65345   0.00000  Uiso   1.00
H1524  H     0.60573   0.75840   0.68222   0.00000  Uiso   1.00
H1525  H     0.33693   0.74621   0.65158   0.00000  Uiso   1.00
O1526  O     0.65458   0.88157   0.78864   0.00000  Uiso   1.00
C1527  C     0.35097   0.89092   0.82677   0.00000  Uiso   1.00
H1528  H     0.39390   0.90815   0.81811   0.00000  Uiso   1.00
H1529  H     0.35163   0.85574   0.84629   0.00000  Uiso   1.00
H1530  H     0.66232   0.91968   0.84861   0.00000  Uiso   1.00
C1531  C     0.84835   0.93142   0.74843   0.00000  Uiso   1.00
C1532  C     0.81845   0.73531   0.75253   0.00000  Uiso   1.00
C1533  C     0.91183   0.90013   0.97319   0.00000  Uiso   1.00
C1534  C     0.74863   0.77622   0.52738   0.00000  Uiso   1.00
C1535  C     0.85530   0.98564   0.74233   0.00000  Uiso   1.00
C1536  C     0.81222   0.68122   0.75997   0.00000  Uiso   1.00
C1537  C     0.83332   0.83235   0.83628   0.00000  Uiso   1.00
C1538  C     0.83324   0.83402   0.66367   0.00000  Uiso   1.00
C1539  C     0.79666   0.80083   0.59460   0.00000  Uiso   1.00
C1540  C     0.86815   0.86984   0.90467   0.00000  Uiso   1.00
C1541  C     0.83304   0.83501   0.61583   0.00000  Uiso   1.00
C1542  C     0.83306   0.83365   0.88411   0.00000  Uiso   1.00
C1543  C     0.86804   0.87086   0.59210   0.00000  Uiso   1.00
C1544  C     0.79463   0.80139   0.90878   0.00000  Uiso   1.00
C1545  C     0.86972   0.87065   0.54521   0.00000  Uiso   1.00
C1546  C     0.78945   0.80647   0.95550   0.00000  Uiso   1.00
C1547  C     0.83038   0.83794   0.52352   0.00000  Uiso   1.00
C1548  C     0.82988   0.83843   0.97682   0.00000  Uiso   1.00
C1549  C     0.79152   0.80461   0.54863   0.00000  Uiso   1.00
C1550  C     0.87055   0.86983   0.95130   0.00000  Uiso   1.00
C1551  C     0.90879   0.90308   0.51993   0.00000  Uiso   1.00
C1552  C     0.74609   0.77885   0.98123   0.00000  Uiso   1.00
N1553  N     0.98344   0.81932   0.73783   0.00000  Uiso   1.00
N1554  N     0.68322   0.84735   0.76217   0.00000  Uiso   1.00
O1555  O     0.79642   0.91286   0.75299   0.00000  Uiso   1.00
O1556  O     0.87025   0.75381   0.74702   0.00000  Uiso   1.00
O1557  O     0.89280   0.90387   0.74519   0.00000  Uiso   1.00
O1558  O     0.77387   0.76279   0.75482   0.00000  Uiso   1.00
O1559  O     0.78514   0.83784   0.81998   0.00000  Uiso   1.00
O1560  O     0.88153   0.82883   0.68003   0.00000  Uiso   1.00
O1561  O     0.88152   0.82885   0.81218   0.00000  Uiso   1.00
O1562  O     0.78515   0.83781   0.68783   0.00000  Uiso   1.00
Zn1563 Zn    0.76898   0.83933   0.75521   0.00000  Uiso   1.00
Zn1564 Zn    0.89769   0.82734   0.74479   0.00000  Uiso   1.00
O1565  O     0.76466   0.76509   0.61984   0.00000  Uiso   1.00
C1566  C     0.79667   0.72154   0.62164   0.00000  Uiso   1.00
H1567  H     0.83512   0.72990   0.64019   0.00000  Uiso   1.00
H1568  H     0.80908   0.70588   0.58739   0.00000  Uiso   1.00
H1569  H     0.76983   0.69190   0.64001   0.00000  Uiso   1.00
O1570  O     0.89935   0.90520   0.87848   0.00000  Uiso   1.00
C1571  C     0.86549   0.94713   0.87384   0.00000  Uiso   1.00
H1572  H     0.82755   0.93618   0.85539   0.00000  Uiso   1.00
H1573  H     0.89140   0.97626   0.85412   0.00000  Uiso   1.00
H1574  H     0.85194   0.96473   0.90708   0.00000  Uiso   1.00
O1575  O     0.89745   0.90832   0.61537   0.00000  Uiso   1.00
C1576  C     0.86048   0.94852   0.62557   0.00000  Uiso   1.00
H1577  H     0.83339   0.95580   0.59797   0.00000  Uiso   1.00
H1578  H     0.88664   0.98391   0.63097   0.00000  Uiso   1.00
H1579  H     0.83248   0.94068   0.65646   0.00000  Uiso   1.00
O1580  O     0.76305   0.76418   0.88677   0.00000  Uiso   1.00
C1581  C     0.79183   0.71834   0.88641   0.00000  Uiso   1.00
H1582  H     0.76177   0.68623   0.87849   0.00000  Uiso   1.00
H1583  H     0.80697   0.71030   0.91957   0.00000  Uiso   1.00
H1584  H     0.82828   0.71914   0.86027   0.00000  Uiso   1.00
O1585  O     0.94738   0.93520   0.54094   0.00000  Uiso   1.00
C1586  C     0.93443   0.98657   0.53550   0.00000  Uiso   1.00
H1587  H     0.88825   0.99219   0.53272   0.00000  Uiso   1.00
H1588  H     0.95974   0.66901   0.50579   0.00000  Uiso   1.00
H1589  H     0.94659   0.67585   0.56534   0.00000  Uiso   1.00
O1590  O     0.70271   0.75123   0.96157   0.00000  Uiso   1.00
C1591  C     0.99262   0.78446   0.95450   0.00000  Uiso   1.00
H1592  H     0.67406   0.81248   0.92858   0.00000  Uiso   1.00
H1593  H     0.97682   0.80468   0.98604   0.00000  Uiso   1.00
H1594  H     0.95603   0.76164   0.94207   0.00000  Uiso   1.00
N1595  N     0.96022   0.92535   0.94948   0.00000  Uiso   1.00
H1596  H     0.94746   0.95655   0.93287   0.00000  Uiso   1.00
H1597  H     0.98078   0.89956   0.92710   0.00000  Uiso   1.00
N1598  N     0.70691   0.74478   0.55258   0.00000  Uiso   1.00
H1599  H     0.71005   0.70732   0.54010   0.00000  Uiso   1.00
H1600  H     0.99966   0.75719   0.54834   0.00000  Uiso   1.00
O1601  O     0.89681   0.67269   0.71066   0.00000  Uiso   1.00
C1602  C     0.95027   0.98410   0.71081   0.00000  Uiso   1.00
H1603  H     0.95213   0.94944   0.68859   0.00000  Uiso   1.00
H1604  H     0.96061   0.97592   0.74520   0.00000  Uiso   1.00
H1605  H     0.98399   0.67758   0.69668   0.00000  Uiso   1.00
O1606  O     0.77152   0.99450   0.79242   0.00000  Uiso   1.00
C1607  C     0.71807   0.68326   0.79271   0.00000  Uiso   1.00
H1608  H     0.70662   0.68998   0.75836   0.00000  Uiso   1.00
H1609  H     0.71716   0.71892   0.81362   0.00000  Uiso   1.00
H1610  H     0.68457   0.99066   0.80842   0.00000  Uiso   1.00
O1611  O     0.67874   0.78513   0.71126   0.00000  Uiso   1.00
C1612  C     0.98202   0.77539   0.67330   0.00000  Uiso   1.00
H1613  H     0.98143   0.81032   0.65345   0.00000  Uiso   1.00
H1614  H     0.93906   0.75840   0.68222   0.00000  Uiso   1.00
H1615  H     0.67026   0.74621   0.65158   0.00000  Uiso   1.00
O1616  O     0.98792   0.88157   0.78864   0.00000  Uiso   1.00
C1617  C     0.68430   0.89092   0.82677   0.00000  Uiso   1.00
H1618  H     0.72723   0.90815   0.81811   0.00000  Uiso   1.00
H1619  H     0.68497   0.85574   0.84629   0.00000  Uiso   1.00
H1620  H     0.99565   0.91968   0.84861   0.00000  Uiso   1.00
loop_
_geom_bond_atom_site_label_1
_geom_bond_atom_site_label_2
_geom_bond_distance
_geom_bond_site_symmetry_2
_ccdc_geom_bond_type
C1     C5      1.442   .     S
C1     O25     1.293   .     A
C1     O27     1.297   .     A
C2     C6      1.445   .     S
C2     O26     1.291   .     A
C2     O28     1.300   .     A
C3     N65     1.436   .     S
C3     C20     1.417   .     A
C3     C831    1.396   .     S
C4     C19     1.410   .     A
C4     N68     1.433   .     S
C4     C832    1.394   1_554 S
C5     C276    1.358   .     S
C5     O341    1.403   .     S
C6     C545    1.358   1_545 S
C6     O616    1.403   1_545 S
C7     O29     1.290   .     A
C7     C12     1.432   .     S
C7     O31     1.298   .     A
C8     O32     1.297   .     A
C8     O30     1.292   .     A
C8     C11     1.435   .     S
C9     O35     1.379   .     S
C9     C19     1.400   .     A
C9     C11     1.387   .     A
C10    O40     1.380   .     S
C10    C20     1.403   .     A
C10    C12     1.392   .     A
C11    C13     1.393   .     A
C12    C14     1.392   .     A
C13    C15     1.402   .     A
C13    O45     1.380   .     S
C14    C16     1.397   .     A
C14    O50     1.383   .     S
C15    C17     1.417   .     A
C15    C21     1.412   .     A
C16    C18     1.418   .     A
C16    C22     1.412   .     A
C17    C19     1.421   .     A
C17    C828    1.401   1_554 S
C18    C20     1.422   .     A
C18    C827    1.401   .     S
C21    O55     1.387   .     S
C21    C813    1.396   1_554 S
C22    O60     1.386   .     S
C22    C814    1.394   .     S
N23    Zn34    2.034   .     S
N23    N114    1.299   .     S
N23    O171    1.347   .     S
N24    Zn33    2.034   .     S
N24    N203    1.299   1_455 S
N24    O266    1.346   1_455 S
O25    Zn33    2.008   .     S
O26    Zn34    2.008   .     S
O27    Zn34    2.020   .     S
O28    Zn33    2.020   .     S
O29    Zn33    2.012   .     S
O30    Zn34    2.012   .     S
O31    Zn34    2.022   .     S
O32    Zn33    2.022   .     S
O35    C36     1.406   .     S
C36    H37     1.112   .     S
C36    H39     1.109   .     S
C36    H38     1.113   .     S
O40    C41     1.409   .     S
C41    H42     1.112   .     S
C41    H43     1.109   .     S
C41    H44     1.112   .     S
O45    C46     1.411   .     S
C46    H49     1.109   .     S
C46    H48     1.105   .     S
C46    H47     1.114   .     S
O50    C51     1.410   .     S
C51    H52     1.108   .     S
C51    H53     1.115   .     S
C51    H54     1.111   .     S
O55    C56     1.416   .     S
C56    H57     1.116   .     S
C56    H328    1.109   .     S
C56    H329    1.108   .     S
H58    C596    1.109   1_545 S
H59    C596    1.108   1_545 S
O60    C241    1.411   1_455 S
C61    H63     1.113   .     S
C61    H64     1.109   .     S
C61    O150    1.411   .     S
C61    H152    1.111   .     S
H62    C241    1.111   1_455 S
N65    H67     1.044   .     S
N65    H66     1.043   .     S
N68    H69     1.045   .     S
N68    H250    1.045   1_455 S
H70    N158    1.045   .     S
O71    C545    1.403   1_545 S
O71    C612    1.411   1_545 S
C72    H74     1.110   .     S
C72    H73     1.110   .     S
C72    O341    1.411   .     S
C72    H345    1.102   .     S
H75    C612    1.102   1_545 S
O76    C276    1.403   .     S
O76    C347    1.412   .     S
C77    H78     1.108   .     S
C77    H79     1.109   .     S
C77    O616    1.412   1_545 S
C77    H620    1.102   1_545 S
H80    C347    1.102   .     S
O81    N203    1.347   1_455 S
O81    C262    1.400   1_455 S
C82    H84     1.101   .     S
C82    H83     1.112   .     S
C82    O171    1.400   .     S
C82    H175    1.103   .     S
H85    C262    1.103   1_455 S
O86    N114    1.346   .     S
O86    C177    1.399   .     S
C87    H88     1.102   .     S
C87    H89     1.112   .     S
C87    O266    1.399   1_455 S
C87    H270    1.102   1_455 S
H90    C177    1.102   .     S
C91    C95     1.442   .     S
C91    O115    1.293   .     A
C91    O117    1.297   .     A
C92    C96     1.445   .     S
C92    O116    1.291   .     A
C92    O118    1.300   .     A
C93    N155    1.436   .     S
C93    C110    1.417   .     A
C93    C921    1.396   .     S
C94    C109    1.410   .     A
C94    N158    1.433   .     S
C94    C922    1.394   1_554 S
C95    C366    1.358   .     S
C95    O431    1.403   .     S
C96    C635    1.358   1_545 S
C96    O706    1.403   1_545 S
C97    O119    1.290   .     A
C97    C102    1.432   .     S
C97    O121    1.298   .     A
C98    O122    1.297   .     A
C98    O120    1.292   .     A
C98    C101    1.435   .     S
C99    O125    1.379   .     S
C99    C109    1.400   .     A
C99    C101    1.387   .     A
C100   O130    1.380   .     S
C100   C110    1.403   .     A
C100   C102    1.392   .     A
C101   C103    1.393   .     A
C102   C104    1.392   .     A
C103   C105    1.402   .     A
C103   O135    1.380   .     S
C104   C106    1.397   .     A
C104   O140    1.383   .     S
C105   C107    1.417   .     A
C105   C111    1.412   .     A
C106   C108    1.418   .     A
C106   C112    1.412   .     A
C107   C109    1.421   .     A
C107   C918    1.401   1_554 S
C108   C110    1.422   .     A
C108   C917    1.401   .     S
C111   O145    1.387   .     S
C111   C903    1.396   1_554 S
C112   O150    1.386   .     S
C112   C904    1.394   .     S
N113   Zn124   2.034   .     S
N113   N204    1.299   .     S
N113   O261    1.347   .     S
N114   Zn123   2.034   .     S
O115   Zn123   2.008   .     S
O116   Zn124   2.008   .     S
O117   Zn124   2.020   .     S
O118   Zn123   2.020   .     S
O119   Zn123   2.012   .     S
O120   Zn124   2.012   .     S
O121   Zn124   2.022   .     S
O122   Zn123   2.022   .     S
O125   C126    1.406   .     S
C126   H127    1.112   .     S
C126   H129    1.109   .     S
C126   H128    1.113   .     S
O130   C131    1.409   .     S
C131   H132    1.112   .     S
C131   H133    1.109   .     S
C131   H134    1.112   .     S
O135   C136    1.411   .     S
C136   H139    1.109   .     S
C136   H138    1.105   .     S
C136   H137    1.114   .     S
O140   C141    1.410   .     S
C141   H142    1.108   .     S
C141   H143    1.115   .     S
C141   H144    1.111   .     S
O145   C146    1.416   .     S
C146   H147    1.116   .     S
C146   H418    1.109   .     S
C146   H419    1.108   .     S
H148   C686    1.109   1_545 S
H149   C686    1.108   1_545 S
C151   H153    1.113   .     S
C151   H154    1.109   .     S
C151   O240    1.411   .     S
C151   H242    1.111   .     S
N155   H157    1.044   .     S
N155   H156    1.043   .     S
N158   H159    1.045   .     S
H160   N248    1.045   .     S
O161   C635    1.403   1_545 S
O161   C702    1.411   1_545 S
C162   H164    1.110   .     S
C162   H163    1.110   .     S
C162   O431    1.411   .     S
C162   H435    1.102   .     S
H165   C702    1.102   1_545 S
O166   C366    1.403   .     S
O166   C437    1.412   .     S
C167   H168    1.108   .     S
C167   H169    1.109   .     S
C167   O706    1.412   1_545 S
C167   H710    1.102   1_545 S
H170   C437    1.102   .     S
C172   H174    1.101   .     S
C172   H173    1.112   .     S
C172   O261    1.400   .     S
C172   H265    1.103   .     S
O176   N204    1.346   .     S
O176   C267    1.399   .     S
C177   H178    1.102   .     S
C177   H179    1.112   .     S
H180   C267    1.102   .     S
C181   C185    1.442   .     S
C181   O205    1.293   .     A
C181   O207    1.297   .     A
C182   C186    1.445   .     S
C182   O206    1.291   .     A
C182   O208    1.300   .     A
C183   N245    1.436   .     S
C183   C200    1.417   .     A
C183   C1011   1.396   .     S
C184   C199    1.410   .     A
C184   N248    1.433   .     S
C184   C1012   1.394   1_554 S
C185   C456    1.358   .     S
C185   O521    1.403   .     S
C186   C725    1.358   1_545 S
C186   O796    1.403   1_545 S
C187   O209    1.290   .     A
C187   C192    1.432   .     S
C187   O211    1.298   .     A
C188   O212    1.297   .     A
C188   O210    1.292   .     A
C188   C191    1.435   .     S
C189   O215    1.379   .     S
C189   C199    1.400   .     A
C189   C191    1.387   .     A
C190   O220    1.380   .     S
C190   C200    1.403   .     A
C190   C192    1.392   .     A
C191   C193    1.393   .     A
C192   C194    1.392   .     A
C193   C195    1.402   .     A
C193   O225    1.380   .     S
C194   C196    1.397   .     A
C194   O230    1.383   .     S
C195   C197    1.417   .     A
C195   C201    1.412   .     A
C196   C198    1.418   .     A
C196   C202    1.412   .     A
C197   C199    1.421   .     A
C197   C1008   1.401   1_554 S
C198   C200    1.422   .     A
C198   C1007   1.401   .     S
C201   O235    1.387   .     S
C201   C993    1.396   1_554 S
C202   O240    1.386   .     S
C202   C994    1.394   .     S
N203   Zn214   2.034   .     S
N203   N24     1.299   1_655 S
N203   O81     1.347   1_655 S
N204   Zn213   2.034   .     S
O205   Zn213   2.008   .     S
O206   Zn214   2.008   .     S
O207   Zn214   2.020   .     S
O208   Zn213   2.020   .     S
O209   Zn213   2.012   .     S
O210   Zn214   2.012   .     S
O211   Zn214   2.022   .     S
O212   Zn213   2.022   .     S
O215   C216    1.406   .     S
C216   H217    1.112   .     S
C216   H219    1.109   .     S
C216   H218    1.113   .     S
O220   C221    1.409   .     S
C221   H222    1.112   .     S
C221   H223    1.109   .     S
C221   H224    1.112   .     S
O225   C226    1.411   .     S
C226   H229    1.109   .     S
C226   H228    1.105   .     S
C226   H227    1.114   .     S
O230   C231    1.410   .     S
C231   H232    1.108   .     S
C231   H233    1.115   .     S
C231   H234    1.111   .     S
O235   C236    1.416   .     S
C236   H237    1.116   .     S
C236   H508    1.109   .     S
C236   H509    1.108   .     S
H238   C776    1.109   1_545 S
H239   C776    1.108   1_545 S
C241   H243    1.113   .     S
C241   H244    1.109   .     S
C241   O60     1.411   1_655 S
C241   H62     1.111   1_655 S
N245   H247    1.044   .     S
N245   H246    1.043   .     S
N248   H249    1.045   .     S
H250   N68     1.045   1_655 S
O251   C725    1.403   1_545 S
O251   C792    1.411   1_545 S
C252   H254    1.110   .     S
C252   H253    1.110   .     S
C252   O521    1.411   .     S
C252   H525    1.102   .     S
H255   C792    1.102   1_545 S
O256   C456    1.403   .     S
O256   C527    1.412   .     S
C257   H258    1.108   .     S
C257   H259    1.109   .     S
C257   O796    1.412   1_545 S
C257   H800    1.102   1_545 S
H260   C527    1.102   .     S
C262   H264    1.101   .     S
C262   H263    1.112   .     S
C262   O81     1.400   1_655 S
C262   H85     1.103   1_655 S
O266   N24     1.346   1_655 S
O266   C87     1.399   1_655 S
C267   H268    1.102   .     S
C267   H269    1.112   .     S
H270   C87     1.102   1_655 S
C271   C275    1.442   .     S
C271   O295    1.293   .     A
C271   O297    1.297   .     A
C272   C276    1.445   .     S
C272   O296    1.291   .     A
C272   O298    1.300   .     A
C273   N335    1.436   .     S
C273   C290    1.417   .     A
C273   C1101   1.396   .     S
C274   C289    1.410   .     A
C274   N338    1.433   .     S
C274   C1102   1.394   1_554 S
C275   C546    1.358   .     S
C275   O611    1.403   .     S
C277   O299    1.290   .     A
C277   C282    1.432   .     S
C277   O301    1.298   .     A
C278   O302    1.297   .     A
C278   O300    1.292   .     A
C278   C281    1.435   .     S
C279   O305    1.379   .     S
C279   C289    1.400   .     A
C279   C281    1.387   .     A
C280   O310    1.380   .     S
C280   C290    1.403   .     A
C280   C282    1.392   .     A
C281   C283    1.393   .     A
C282   C284    1.392   .     A
C283   C285    1.402   .     A
C283   O315    1.380   .     S
C284   C286    1.397   .     A
C284   O320    1.383   .     S
C285   C287    1.417   .     A
C285   C291    1.412   .     A
C286   C288    1.418   .     A
C286   C292    1.412   .     A
C287   C289    1.421   .     A
C287   C1098   1.401   1_554 S
C288   C290    1.422   .     A
C288   C1097   1.401   .     S
C291   O325    1.387   .     S
C291   C1083   1.396   1_554 S
C292   O330    1.386   .     S
C292   C1084   1.394   .     S
N293   Zn304   2.034   .     S
N293   N384    1.299   .     S
N293   O441    1.347   .     S
N294   Zn303   2.034   .     S
N294   N473    1.299   1_455 S
N294   O536    1.346   1_455 S
O295   Zn303   2.008   .     S
O296   Zn304   2.008   .     S
O297   Zn304   2.020   .     S
O298   Zn303   2.020   .     S
O299   Zn303   2.012   .     S
O300   Zn304   2.012   .     S
O301   Zn304   2.022   .     S
O302   Zn303   2.022   .     S
O305   C306    1.406   .     S
C306   H307    1.112   .     S
C306   H309    1.109   .     S
C306   H308    1.113   .     S
O310   C311    1.409   .     S
C311   H312    1.112   .     S
C311   H313    1.109   .     S
C311   H314    1.112   .     S
O315   C316    1.411   .     S
C316   H319    1.109   .     S
C316   H318    1.105   .     S
C316   H317    1.114   .     S
O320   C321    1.410   .     S
C321   H322    1.108   .     S
C321   H323    1.115   .     S
C321   H324    1.111   .     S
O325   C326    1.416   .     S
C326   H327    1.116   .     S
C326   H598    1.109   .     S
C326   H599    1.108   .     S
O330   C511    1.411   1_455 S
C331   H333    1.113   .     S
C331   H334    1.109   .     S
C331   O420    1.411   .     S
C331   H422    1.111   .     S
H332   C511    1.111   1_455 S
N335   H337    1.044   .     S
N335   H336    1.043   .     S
N338   H339    1.045   .     S
N338   H520    1.045   1_455 S
H340   N428    1.045   .     S
C342   H344    1.110   .     S
C342   H343    1.110   .     S
C342   O611    1.411   .     S
C342   H615    1.102   .     S
O346   C546    1.403   .     S
O346   C617    1.412   .     S
C347   H348    1.108   .     S
C347   H349    1.109   .     S
H350   C617    1.102   .     S
O351   N473    1.347   1_455 S
O351   C532    1.400   1_455 S
C352   H354    1.101   .     S
C352   H353    1.112   .     S
C352   O441    1.400   .     S
C352   H445    1.103   .     S
H355   C532    1.103   1_455 S
O356   N384    1.346   .     S
O356   C447    1.399   .     S
C357   H358    1.102   .     S
C357   H359    1.112   .     S
C357   O536    1.399   1_455 S
C357   H540    1.102   1_455 S
H360   C447    1.102   .     S
C361   C365    1.442   .     S
C361   O385    1.293   .     A
C361   O387    1.297   .     A
C362   C366    1.445   .     S
C362   O386    1.291   .     A
C362   O388    1.300   .     A
C363   N425    1.436   .     S
C363   C380    1.417   .     A
C363   C1191   1.396   .     S
C364   C379    1.410   .     A
C364   N428    1.433   .     S
C364   C1192   1.394   1_554 S
C365   C636    1.358   .     S
C365   O701    1.403   .     S
C367   O389    1.290   .     A
C367   C372    1.432   .     S
C367   O391    1.298   .     A
C368   O392    1.297   .     A
C368   O390    1.292   .     A
C368   C371    1.435   .     S
C369   O395    1.379   .     S
C369   C379    1.400   .     A
C369   C371    1.387   .     A
C370   O400    1.380   .     S
C370   C380    1.403   .     A
C370   C372    1.392   .     A
C371   C373    1.393   .     A
C372   C374    1.392   .     A
C373   C375    1.402   .     A
C373   O405    1.380   .     S
C374   C376    1.397   .     A
C374   O410    1.383   .     S
C375   C377    1.417   .     A
C375   C381    1.412   .     A
C376   C378    1.418   .     A
C376   C382    1.412   .     A
C377   C379    1.421   .     A
C377   C1188   1.401   1_554 S
C378   C380    1.422   .     A
C378   C1187   1.401   .     S
C381   O415    1.387   .     S
C381   C1173   1.396   1_554 S
C382   O420    1.386   .     S
C382   C1174   1.394   .     S
N383   Zn394   2.034   .     S
N383   N474    1.299   .     S
N383   O531    1.347   .     S
N384   Zn393   2.034   .     S
O385   Zn393   2.008   .     S
O386   Zn394   2.008   .     S
O387   Zn394   2.020   .     S
O388   Zn393   2.020   .     S
O389   Zn393   2.012   .     S
O390   Zn394   2.012   .     S
O391   Zn394   2.022   .     S
O392   Zn393   2.022   .     S
O395   C396    1.406   .     S
C396   H397    1.112   .     S
C396   H399    1.109   .     S
C396   H398    1.113   .     S
O400   C401    1.409   .     S
C401   H402    1.112   .     S
C401   H403    1.109   .     S
C401   H404    1.112   .     S
O405   C406    1.411   .     S
C406   H409    1.109   .     S
C406   H408    1.105   .     S
C406   H407    1.114   .     S
O410   C411    1.410   .     S
C411   H412    1.108   .     S
C411   H413    1.115   .     S
C411   H414    1.111   .     S
O415   C416    1.416   .     S
C416   H417    1.116   .     S
C416   H688    1.109   .     S
C416   H689    1.108   .     S
C421   H423    1.113   .     S
C421   H424    1.109   .     S
C421   O510    1.411   .     S
C421   H512    1.111   .     S
N425   H427    1.044   .     S
N425   H426    1.043   .     S
N428   H429    1.045   .     S
H430   N518    1.045   .     S
C432   H434    1.110   .     S
C432   H433    1.110   .     S
C432   O701    1.411   .     S
C432   H705    1.102   .     S
O436   C636    1.403   .     S
O436   C707    1.412   .     S
C437   H438    1.108   .     S
C437   H439    1.109   .     S
H440   C707    1.102   .     S
C442   H444    1.101   .     S
C442   H443    1.112   .     S
C442   O531    1.400   .     S
C442   H535    1.103   .     S
O446   N474    1.346   .     S
O446   C537    1.399   .     S
C447   H448    1.102   .     S
C447   H449    1.112   .     S
H450   C537    1.102   .     S
C451   C455    1.442   .     S
C451   O475    1.293   .     A
C451   O477    1.297   .     A
C452   C456    1.445   .     S
C452   O476    1.291   .     A
C452   O478    1.300   .     A
C453   N515    1.436   .     S
C453   C470    1.417   .     A
C453   C1281   1.396   .     S
C454   C469    1.410   .     A
C454   N518    1.433   .     S
C454   C1282   1.394   1_554 S
C455   C726    1.358   .     S
C455   O791    1.403   .     S
C457   O479    1.290   .     A
C457   C462    1.432   .     S
C457   O481    1.298   .     A
C458   O482    1.297   .     A
C458   O480    1.292   .     A
C458   C461    1.435   .     S
C459   O485    1.379   .     S
C459   C469    1.400   .     A
C459   C461    1.387   .     A
C460   O490    1.380   .     S
C460   C470    1.403   .     A
C460   C462    1.392   .     A
C461   C463    1.393   .     A
C462   C464    1.392   .     A
C463   C465    1.402   .     A
C463   O495    1.380   .     S
C464   C466    1.397   .     A
C464   O500    1.383   .     S
C465   C467    1.417   .     A
C465   C471    1.412   .     A
C466   C468    1.418   .     A
C466   C472    1.412   .     A
C467   C469    1.421   .     A
C467   C1278   1.401   1_554 S
C468   C470    1.422   .     A
C468   C1277   1.401   .     S
C471   O505    1.387   .     S
C471   C1263   1.396   1_554 S
C472   O510    1.386   .     S
C472   C1264   1.394   .     S
N473   Zn484   2.034   .     S
N473   N294    1.299   1_655 S
N473   O351    1.347   1_655 S
N474   Zn483   2.034   .     S
O475   Zn483   2.008   .     S
O476   Zn484   2.008   .     S
O477   Zn484   2.020   .     S
O478   Zn483   2.020   .     S
O479   Zn483   2.012   .     S
O480   Zn484   2.012   .     S
O481   Zn484   2.022   .     S
O482   Zn483   2.022   .     S
O485   C486    1.406   .     S
C486   H487    1.112   .     S
C486   H489    1.109   .     S
C486   H488    1.113   .     S
O490   C491    1.409   .     S
C491   H492    1.112   .     S
C491   H493    1.109   .     S
C491   H494    1.112   .     S
O495   C496    1.411   .     S
C496   H499    1.109   .     S
C496   H498    1.105   .     S
C496   H497    1.114   .     S
O500   C501    1.410   .     S
C501   H502    1.108   .     S
C501   H503    1.115   .     S
C501   H504    1.111   .     S
O505   C506    1.416   .     S
C506   H507    1.116   .     S
C506   H778    1.109   .     S
C506   H779    1.108   .     S
C511   H513    1.113   .     S
C511   H514    1.109   .     S
C511   O330    1.411   1_655 S
C511   H332    1.111   1_655 S
N515   H517    1.044   .     S
N515   H516    1.043   .     S
N518   H519    1.045   .     S
H520   N338    1.045   1_655 S
C522   H524    1.110   .     S
C522   H523    1.110   .     S
C522   O791    1.411   .     S
C522   H795    1.102   .     S
O526   C726    1.403   .     S
O526   C797    1.412   .     S
C527   H528    1.108   .     S
C527   H529    1.109   .     S
H530   C797    1.102   .     S
C532   H534    1.101   .     S
C532   H533    1.112   .     S
C532   O351    1.400   1_655 S
C532   H355    1.103   1_655 S
O536   N294    1.346   1_655 S
O536   C357    1.399   1_655 S
C537   H538    1.102   .     S
C537   H539    1.112   .     S
H540   C357    1.102   1_655 S
C541   C545    1.442   .     S
C541   O565    1.293   .     A
C541   O567    1.297   .     A
C542   C546    1.445   .     S
C542   O566    1.291   .     A
C542   O568    1.300   .     A
C543   N605    1.436   .     S
C543   C560    1.417   .     A
C543   C1371   1.396   .     S
C544   C559    1.410   .     A
C544   N608    1.433   .     S
C544   C1372   1.394   1_554 S
C545   C6      1.358   1_565 S
C545   O71     1.403   1_565 S
C547   O569    1.290   .     A
C547   C552    1.432   .     S
C547   O571    1.298   .     A
C548   O572    1.297   .     A
C548   O570    1.292   .     A
C548   C551    1.435   .     S
C549   O575    1.379   .     S
C549   C559    1.400   .     A
C549   C551    1.387   .     A
C550   O580    1.380   .     S
C550   C560    1.403   .     A
C550   C552    1.392   .     A
C551   C553    1.393   .     A
C552   C554    1.392   .     A
C553   C555    1.402   .     A
C553   O585    1.380   .     S
C554   C556    1.397   .     A
C554   O590    1.383   .     S
C555   C557    1.417   .     A
C555   C561    1.412   .     A
C556   C558    1.418   .     A
C556   C562    1.412   .     A
C557   C559    1.421   .     A
C557   C1368   1.401   1_554 S
C558   C560    1.422   .     A
C558   C1367   1.401   .     S
C561   O595    1.387   .     S
C561   C1353   1.396   1_554 S
C562   O600    1.386   .     S
C562   C1354   1.394   .     S
N563   Zn574   2.034   .     S
N563   N654    1.299   .     S
N563   O711    1.347   .     S
N564   Zn573   2.034   .     S
N564   N743    1.299   1_455 S
N564   O806    1.346   1_455 S
O565   Zn573   2.008   .     S
O566   Zn574   2.008   .     S
O567   Zn574   2.020   .     S
O568   Zn573   2.020   .     S
O569   Zn573   2.012   .     S
O570   Zn574   2.012   .     S
O571   Zn574   2.022   .     S
O572   Zn573   2.022   .     S
O575   C576    1.406   .     S
C576   H577    1.112   .     S
C576   H579    1.109   .     S
C576   H578    1.113   .     S
O580   C581    1.409   .     S
C581   H582    1.112   .     S
C581   H583    1.109   .     S
C581   H584    1.112   .     S
O585   C586    1.411   .     S
C586   H589    1.109   .     S
C586   H588    1.105   .     S
C586   H587    1.114   .     S
O590   C591    1.410   .     S
C591   H592    1.108   .     S
C591   H593    1.115   .     S
C591   H594    1.111   .     S
O595   C596    1.416   .     S
C596   H597    1.116   .     S
C596   H58     1.109   1_565 S
C596   H59     1.108   1_565 S
O600   C781    1.411   1_455 S
C601   H603    1.113   .     S
C601   H604    1.109   .     S
C601   O690    1.411   .     S
C601   H692    1.111   .     S
H602   C781    1.111   1_455 S
N605   H607    1.044   .     S
N605   H606    1.043   .     S
N608   H609    1.045   .     S
N608   H790    1.045   1_455 S
H610   N698    1.045   .     S
C612   H614    1.110   .     S
C612   H613    1.110   .     S
C612   O71     1.411   1_565 S
C612   H75     1.102   1_565 S
O616   C6      1.403   1_565 S
O616   C77     1.412   1_565 S
C617   H618    1.108   .     S
C617   H619    1.109   .     S
H620   C77     1.102   1_565 S
O621   N743    1.347   1_455 S
O621   C802    1.400   1_455 S
C622   H624    1.101   .     S
C622   H623    1.112   .     S
C622   O711    1.400   .     S
C622   H715    1.103   .     S
H625   C802    1.103   1_455 S
O626   N654    1.346   .     S
O626   C717    1.399   .     S
C627   H628    1.102   .     S
C627   H629    1.112   .     S
C627   O806    1.399   1_455 S
C627   H810    1.102   1_455 S
H630   C717    1.102   .     S
C631   C635    1.442   .     S
C631   O655    1.293   .     A
C631   O657    1.297   .     A
C632   C636    1.445   .     S
C632   O656    1.291   .     A
C632   O658    1.300   .     A
C633   N695    1.436   .     S
C633   C650    1.417   .     A
C633   C1461   1.396   .     S
C634   C649    1.410   .     A
C634   N698    1.433   .     S
C634   C1462   1.394   1_554 S
C635   C96     1.358   1_565 S
C635   O161    1.403   1_565 S
C637   O659    1.290   .     A
C637   C642    1.432   .     S
C637   O661    1.298   .     A
C638   O662    1.297   .     A
C638   O660    1.292   .     A
C638   C641    1.435   .     S
C639   O665    1.379   .     S
C639   C649    1.400   .     A
C639   C641    1.387   .     A
C640   O670    1.380   .     S
C640   C650    1.403   .     A
C640   C642    1.392   .     A
C641   C643    1.393   .     A
C642   C644    1.392   .     A
C643   C645    1.402   .     A
C643   O675    1.380   .     S
C644   C646    1.397   .     A
C644   O680    1.383   .     S
C645   C647    1.417   .     A
C645   C651    1.412   .     A
C646   C648    1.418   .     A
C646   C652    1.412   .     A
C647   C649    1.421   .     A
C647   C1458   1.401   1_554 S
C648   C650    1.422   .     A
C648   C1457   1.401   .     S
C651   O685    1.387   .     S
C651   C1443   1.396   1_554 S
C652   O690    1.386   .     S
C652   C1444   1.394   .     S
N653   Zn664   2.034   .     S
N653   N744    1.299   .     S
N653   O801    1.347   .     S
N654   Zn663   2.034   .     S
O655   Zn663   2.008   .     S
O656   Zn664   2.008   .     S
O657   Zn664   2.020   .     S
O658   Zn663   2.020   .     S
O659   Zn663   2.012   .     S
O660   Zn664   2.012   .     S
O661   Zn664   2.022   .     S
O662   Zn663   2.022   .     S
O665   C666    1.406   .     S
C666   H667    1.112   .     S
C666   H669    1.109   .     S
C666   H668    1.113   .     S
O670   C671    1.409   .     S
C671   H672    1.112   .     S
C671   H673    1.109   .     S
C671   H674    1.112   .     S
O675   C676    1.411   .     S
C676   H679    1.109   .     S
C676   H678    1.105   .     S
C676   H677    1.114   .     S
O680   C681    1.410   .     S
C681   H682    1.108   .     S
C681   H683    1.115   .     S
C681   H684    1.111   .     S
O685   C686    1.416   .     S
C686   H687    1.116   .     S
C686   H148    1.109   1_565 S
C686   H149    1.108   1_565 S
C691   H693    1.113   .     S
C691   H694    1.109   .     S
C691   O780    1.411   .     S
C691   H782    1.111   .     S
N695   H697    1.044   .     S
N695   H696    1.043   .     S
N698   H699    1.045   .     S
H700   N788    1.045   .     S
C702   H704    1.110   .     S
C702   H703    1.110   .     S
C702   O161    1.411   1_565 S
C702   H165    1.102   1_565 S
O706   C96     1.403   1_565 S
O706   C167    1.412   1_565 S
C707   H708    1.108   .     S
C707   H709    1.109   .     S
H710   C167    1.102   1_565 S
C712   H714    1.101   .     S
C712   H713    1.112   .     S
C712   O801    1.400   .     S
C712   H805    1.103   .     S
O716   N744    1.346   .     S
O716   C807    1.399   .     S
C717   H718    1.102   .     S
C717   H719    1.112   .     S
H720   C807    1.102   .     S
C721   C725    1.442   .     S
C721   O745    1.293   .     A
C721   O747    1.297   .     A
C722   C726    1.445   .     S
C722   O746    1.291   .     A
C722   O748    1.300   .     A
C723   N785    1.436   .     S
C723   C740    1.417   .     A
C723   C1551   1.396   .     S
C724   C739    1.410   .     A
C724   N788    1.433   .     S
C724   C1552   1.394   1_554 S
C725   C186    1.358   1_565 S
C725   O251    1.403   1_565 S
C727   O749    1.290   .     A
C727   C732    1.432   .     S
C727   O751    1.298   .     A
C728   O752    1.297   .     A
C728   O750    1.292   .     A
C728   C731    1.435   .     S
C729   O755    1.379   .     S
C729   C739    1.400   .     A
C729   C731    1.387   .     A
C730   O760    1.380   .     S
C730   C740    1.403   .     A
C730   C732    1.392   .     A
C731   C733    1.393   .     A
C732   C734    1.392   .     A
C733   C735    1.402   .     A
C733   O765    1.380   .     S
C734   C736    1.397   .     A
C734   O770    1.383   .     S
C735   C737    1.417   .     A
C735   C741    1.412   .     A
C736   C738    1.418   .     A
C736   C742    1.412   .     A
C737   C739    1.421   .     A
C737   C1548   1.401   1_554 S
C738   C740    1.422   .     A
C738   C1547   1.401   .     S
C741   O775    1.387   .     S
C741   C1533   1.396   1_554 S
C742   O780    1.386   .     S
C742   C1534   1.394   .     S
N743   Zn754   2.034   .     S
N743   N564    1.299   1_655 S
N743   O621    1.347   1_655 S
N744   Zn753   2.034   .     S
O745   Zn753   2.008   .     S
O746   Zn754   2.008   .     S
O747   Zn754   2.020   .     S
O748   Zn753   2.020   .     S
O749   Zn753   2.012   .     S
O750   Zn754   2.012   .     S
O751   Zn754   2.022   .     S
O752   Zn753   2.022   .     S
O755   C756    1.406   .     S
C756   H757    1.112   .     S
C756   H759    1.109   .     S
C756   H758    1.113   .     S
O760   C761    1.409   .     S
C761   H762    1.112   .     S
C761   H763    1.109   .     S
C761   H764    1.112   .     S
O765   C766    1.411   .     S
C766   H769    1.109   .     S
C766   H768    1.105   .     S
C766   H767    1.114   .     S
O770   C771    1.410   .     S
C771   H772    1.108   .     S
C771   H773    1.115   .     S
C771   H774    1.111   .     S
O775   C776    1.416   .     S
C776   H777    1.116   .     S
C776   H238    1.109   1_565 S
C776   H239    1.108   1_565 S
C781   H783    1.113   .     S
C781   H784    1.109   .     S
C781   O600    1.411   1_655 S
C781   H602    1.111   1_655 S
N785   H787    1.044   .     S
N785   H786    1.043   .     S
N788   H789    1.045   .     S
H790   N608    1.045   1_655 S
C792   H794    1.110   .     S
C792   H793    1.110   .     S
C792   O251    1.411   1_565 S
C792   H255    1.102   1_565 S
O796   C186    1.403   1_565 S
O796   C257    1.412   1_565 S
C797   H798    1.108   .     S
C797   H799    1.109   .     S
H800   C257    1.102   1_565 S
C802   H804    1.101   .     S
C802   H803    1.112   .     S
C802   O621    1.400   1_655 S
C802   H625    1.103   1_655 S
O806   N564    1.346   1_655 S
O806   C627    1.399   1_655 S
C807   H808    1.102   .     S
C807   H809    1.112   .     S
H810   C627    1.102   1_655 S
C811   C815    1.442   .     S
C811   O835    1.293   .     A
C811   O837    1.297   .     A
C812   C816    1.445   .     S
C812   O836    1.291   .     A
C812   O838    1.300   .     A
C813   N875    1.436   .     S
C813   C830    1.417   .     A
C813   C21     1.396   1_556 S
C814   C829    1.410   .     A
C814   N878    1.433   .     S
C815   C1086   1.358   .     S
C815   O1151   1.403   .     S
C816   C1355   1.358   1_545 S
C816   O1426   1.403   1_545 S
C817   O839    1.290   .     A
C817   C822    1.432   .     S
C817   O841    1.298   .     A
C818   O842    1.297   .     A
C818   O840    1.292   .     A
C818   C821    1.435   .     S
C819   O845    1.379   .     S
C819   C829    1.400   .     A
C819   C821    1.387   .     A
C820   O850    1.380   .     S
C820   C830    1.403   .     A
C820   C822    1.392   .     A
C821   C823    1.393   .     A
C822   C824    1.392   .     A
C823   C825    1.402   .     A
C823   O855    1.380   .     S
C824   C826    1.397   .     A
C824   O860    1.383   .     S
C825   C827    1.417   .     A
C825   C831    1.412   .     A
C826   C828    1.418   .     A
C826   C832    1.412   .     A
C827   C829    1.421   .     A
C828   C830    1.422   .     A
C828   C17     1.401   1_556 S
C831   O865    1.387   .     S
C832   O870    1.386   .     S
C832   C4      1.394   1_556 S
N833   Zn844   2.034   .     S
N833   N924    1.299   .     S
N833   O981    1.347   .     S
N834   Zn843   2.034   .     S
N834   N1013   1.299   1_455 S
N834   O1076   1.346   1_455 S
O835   Zn843   2.008   .     S
O836   Zn844   2.008   .     S
O837   Zn844   2.020   .     S
O838   Zn843   2.020   .     S
O839   Zn843   2.012   .     S
O840   Zn844   2.012   .     S
O841   Zn844   2.022   .     S
O842   Zn843   2.022   .     S
O845   C846    1.406   .     S
C846   H847    1.112   .     S
C846   H849    1.109   .     S
C846   H848    1.113   .     S
O850   C851    1.409   .     S
C851   H852    1.112   .     S
C851   H853    1.109   .     S
C851   H854    1.112   .     S
O855   C856    1.411   .     S
C856   H859    1.109   .     S
C856   H858    1.105   .     S
C856   H857    1.114   .     S
O860   C861    1.410   .     S
C861   H862    1.108   .     S
C861   H863    1.115   .     S
C861   H864    1.111   .     S
O865   C866    1.416   .     S
C866   H867    1.116   .     S
C866   H1138   1.109   .     S
C866   H1139   1.108   .     S
H868   C1406   1.109   1_545 S
H869   C1406   1.108   1_545 S
O870   C1051   1.411   1_455 S
C871   H873    1.113   .     S
C871   H874    1.109   .     S
C871   O960    1.411   .     S
C871   H962    1.111   .     S
H872   C1051   1.111   1_455 S
N875   H877    1.044   .     S
N875   H876    1.043   .     S
N878   H879    1.045   .     S
N878   H1060   1.045   1_455 S
H880   N968    1.045   .     S
O881   C1355   1.403   1_545 S
O881   C1422   1.411   1_545 S
C882   H884    1.110   .     S
C882   H883    1.110   .     S
C882   O1151   1.411   .     S
C882   H1155   1.102   .     S
H885   C1422   1.102   1_545 S
O886   C1086   1.403   .     S
O886   C1157   1.412   .     S
C887   H888    1.108   .     S
C887   H889    1.109   .     S
C887   O1426   1.412   1_545 S
C887   H1430   1.102   1_545 S
H890   C1157   1.102   .     S
O891   N1013   1.347   1_455 S
O891   C1072   1.400   1_455 S
C892   H894    1.101   .     S
C892   H893    1.112   .     S
C892   O981    1.400   .     S
C892   H985    1.103   .     S
H895   C1072   1.103   1_455 S
O896   N924    1.346   .     S
O896   C987    1.399   .     S
C897   H898    1.102   .     S
C897   H899    1.112   .     S
C897   O1076   1.399   1_455 S
C897   H1080   1.102   1_455 S
H900   C987    1.102   .     S
C901   C905    1.442   .     S
C901   O925    1.293   .     A
C901   O927    1.297   .     A
C902   C906    1.445   .     S
C902   O926    1.291   .     A
C902   O928    1.300   .     A
C903   N965    1.436   .     S
C903   C920    1.417   .     A
C903   C111    1.396   1_556 S
C904   C919    1.410   .     A
C904   N968    1.433   .     S
C905   C1176   1.358   .     S
C905   O1241   1.403   .     S
C906   C1445   1.358   1_545 S
C906   O1516   1.403   1_545 S
C907   O929    1.290   .     A
C907   C912    1.432   .     S
C907   O931    1.298   .     A
C908   O932    1.297   .     A
C908   O930    1.292   .     A
C908   C911    1.435   .     S
C909   O935    1.379   .     S
C909   C919    1.400   .     A
C909   C911    1.387   .     A
C910   O940    1.380   .     S
C910   C920    1.403   .     A
C910   C912    1.392   .     A
C911   C913    1.393   .     A
C912   C914    1.392   .     A
C913   C915    1.402   .     A
C913   O945    1.380   .     S
C914   C916    1.397   .     A
C914   O950    1.383   .     S
C915   C917    1.417   .     A
C915   C921    1.412   .     A
C916   C918    1.418   .     A
C916   C922    1.412   .     A
C917   C919    1.421   .     A
C918   C920    1.422   .     A
C918   C107    1.401   1_556 S
C921   O955    1.387   .     S
C922   O960    1.386   .     S
C922   C94     1.394   1_556 S
N923   Zn934   2.034   .     S
N923   N1014   1.299   .     S
N923   O1071   1.347   .     S
N924   Zn933   2.034   .     S
O925   Zn933   2.008   .     S
O926   Zn934   2.008   .     S
O927   Zn934   2.020   .     S
O928   Zn933   2.020   .     S
O929   Zn933   2.012   .     S
O930   Zn934   2.012   .     S
O931   Zn934   2.022   .     S
O932   Zn933   2.022   .     S
O935   C936    1.406   .     S
C936   H937    1.112   .     S
C936   H939    1.109   .     S
C936   H938    1.113   .     S
O940   C941    1.409   .     S
C941   H942    1.112   .     S
C941   H943    1.109   .     S
C941   H944    1.112   .     S
O945   C946    1.411   .     S
C946   H949    1.109   .     S
C946   H948    1.105   .     S
C946   H947    1.114   .     S
O950   C951    1.410   .     S
C951   H952    1.108   .     S
C951   H953    1.115   .     S
C951   H954    1.111   .     S
O955   C956    1.416   .     S
C956   H957    1.116   .     S
C956   H1228   1.109   .     S
C956   H1229   1.108   .     S
H958   C1496   1.109   1_545 S
H959   C1496   1.108   1_545 S
C961   H963    1.113   .     S
C961   H964    1.109   .     S
C961   O1050   1.411   .     S
C961   H1052   1.111   .     S
N965   H967    1.044   .     S
N965   H966    1.043   .     S
N968   H969    1.045   .     S
H970   N1058   1.045   .     S
O971   C1445   1.403   1_545 S
O971   C1512   1.411   1_545 S
C972   H974    1.110   .     S
C972   H973    1.110   .     S
C972   O1241   1.411   .     S
C972   H1245   1.102   .     S
H975   C1512   1.102   1_545 S
O976   C1176   1.403   .     S
O976   C1247   1.412   .     S
C977   H978    1.108   .     S
C977   H979    1.109   .     S
C977   O1516   1.412   1_545 S
C977   H1520   1.102   1_545 S
H980   C1247   1.102   .     S
C982   H984    1.101   .     S
C982   H983    1.112   .     S
C982   O1071   1.400   .     S
C982   H1075   1.103   .     S
O986   N1014   1.346   .     S
O986   C1077   1.399   .     S
C987   H988    1.102   .     S
C987   H989    1.112   .     S
H990   C1077   1.102   .     S
C991   C995    1.442   .     S
C991   O1015   1.293   .     A
C991   O1017   1.297   .     A
C992   C996    1.445   .     S
C992   O1016   1.291   .     A
C992   O1018   1.300   .     A
C993   N1055   1.436   .     S
C993   C1010   1.417   .     A
C993   C201    1.396   1_556 S
C994   C1009   1.410   .     A
C994   N1058   1.433   .     S
C995   C1266   1.358   .     S
C995   O1331   1.403   .     S
C996   C1535   1.358   1_545 S
C996   O1606   1.403   1_545 S
C997   O1019   1.290   .     A
C997   C1002   1.432   .     S
C997   O1021   1.298   .     A
C998   O1022   1.297   .     A
C998   O1020   1.292   .     A
C998   C1001   1.435   .     S
C999   O1025   1.379   .     S
C999   C1009   1.400   .     A
C999   C1001   1.387   .     A
C1000  O1030   1.380   .     S
C1000  C1010   1.403   .     A
C1000  C1002   1.392   .     A
C1001  C1003   1.393   .     A
C1002  C1004   1.392   .     A
C1003  C1005   1.402   .     A
C1003  O1035   1.380   .     S
C1004  C1006   1.397   .     A
C1004  O1040   1.383   .     S
C1005  C1007   1.417   .     A
C1005  C1011   1.412   .     A
C1006  C1008   1.418   .     A
C1006  C1012   1.412   .     A
C1007  C1009   1.421   .     A
C1008  C1010   1.422   .     A
C1008  C197    1.401   1_556 S
C1011  O1045   1.387   .     S
C1012  O1050   1.386   .     S
C1012  C184    1.394   1_556 S
N1013  Zn1024  2.034   .     S
N1013  N834    1.299   1_655 S
N1013  O891    1.347   1_655 S
N1014  Zn1023  2.034   .     S
O1015  Zn1023  2.008   .     S
O1016  Zn1024  2.008   .     S
O1017  Zn1024  2.020   .     S
O1018  Zn1023  2.020   .     S
O1019  Zn1023  2.012   .     S
O1020  Zn1024  2.012   .     S
O1021  Zn1024  2.022   .     S
O1022  Zn1023  2.022   .     S
O1025  C1026   1.406   .     S
C1026  H1027   1.112   .     S
C1026  H1029   1.109   .     S
C1026  H1028   1.113   .     S
O1030  C1031   1.409   .     S
C1031  H1032   1.112   .     S
C1031  H1033   1.109   .     S
C1031  H1034   1.112   .     S
O1035  C1036   1.411   .     S
C1036  H1039   1.109   .     S
C1036  H1038   1.105   .     S
C1036  H1037   1.114   .     S
O1040  C1041   1.410   .     S
C1041  H1042   1.108   .     S
C1041  H1043   1.115   .     S
C1041  H1044   1.111   .     S
O1045  C1046   1.416   .     S
C1046  H1047   1.116   .     S
C1046  H1318   1.109   .     S
C1046  H1319   1.108   .     S
H1048  C1586   1.109   1_545 S
H1049  C1586   1.108   1_545 S
C1051  H1053   1.113   .     S
C1051  H1054   1.109   .     S
C1051  O870    1.411   1_655 S
C1051  H872    1.111   1_655 S
N1055  H1057   1.044   .     S
N1055  H1056   1.043   .     S
N1058  H1059   1.045   .     S
H1060  N878    1.045   1_655 S
O1061  C1535   1.403   1_545 S
O1061  C1602   1.411   1_545 S
C1062  H1064   1.110   .     S
C1062  H1063   1.110   .     S
C1062  O1331   1.411   .     S
C1062  H1335   1.102   .     S
H1065  C1602   1.102   1_545 S
O1066  C1266   1.403   .     S
O1066  C1337   1.412   .     S
C1067  H1068   1.108   .     S
C1067  H1069   1.109   .     S
C1067  O1606   1.412   1_545 S
C1067  H1610   1.102   1_545 S
H1070  C1337   1.102   .     S
C1072  H1074   1.101   .     S
C1072  H1073   1.112   .     S
C1072  O891    1.400   1_655 S
C1072  H895    1.103   1_655 S
O1076  N834    1.346   1_655 S
O1076  C897    1.399   1_655 S
C1077  H1078   1.102   .     S
C1077  H1079   1.112   .     S
H1080  C897    1.102   1_655 S
C1081  C1085   1.442   .     S
C1081  O1105   1.293   .     A
C1081  O1107   1.297   .     A
C1082  C1086   1.445   .     S
C1082  O1106   1.291   .     A
C1082  O1108   1.300   .     A
C1083  N1145   1.436   .     S
C1083  C1100   1.417   .     A
C1083  C291    1.396   1_556 S
C1084  C1099   1.410   .     A
C1084  N1148   1.433   .     S
C1085  C1356   1.358   .     S
C1085  O1421   1.403   .     S
C1087  O1109   1.290   .     A
C1087  C1092   1.432   .     S
C1087  O1111   1.298   .     A
C1088  O1112   1.297   .     A
C1088  O1110   1.292   .     A
C1088  C1091   1.435   .     S
C1089  O1115   1.379   .     S
C1089  C1099   1.400   .     A
C1089  C1091   1.387   .     A
C1090  O1120   1.380   .     S
C1090  C1100   1.403   .     A
C1090  C1092   1.392   .     A
C1091  C1093   1.393   .     A
C1092  C1094   1.392   .     A
C1093  C1095   1.402   .     A
C1093  O1125   1.380   .     S
C1094  C1096   1.397   .     A
C1094  O1130   1.383   .     S
C1095  C1097   1.417   .     A
C1095  C1101   1.412   .     A
C1096  C1098   1.418   .     A
C1096  C1102   1.412   .     A
C1097  C1099   1.421   .     A
C1098  C1100   1.422   .     A
C1098  C287    1.401   1_556 S
C1101  O1135   1.387   .     S
C1102  O1140   1.386   .     S
C1102  C274    1.394   1_556 S
N1103  Zn1114  2.034   .     S
N1103  N1194   1.299   .     S
N1103  O1251   1.347   .     S
N1104  Zn1113  2.034   .     S
N1104  N1283   1.299   1_455 S
N1104  O1346   1.346   1_455 S
O1105  Zn1113  2.008   .     S
O1106  Zn1114  2.008   .     S
O1107  Zn1114  2.020   .     S
O1108  Zn1113  2.020   .     S
O1109  Zn1113  2.012   .     S
O1110  Zn1114  2.012   .     S
O1111  Zn1114  2.022   .     S
O1112  Zn1113  2.022   .     S
O1115  C1116   1.406   .     S
C1116  H1117   1.112   .     S
C1116  H1119   1.109   .     S
C1116  H1118   1.113   .     S
O1120  C1121   1.409   .     S
C1121  H1122   1.112   .     S
C1121  H1123   1.109   .     S
C1121  H1124   1.112   .     S
O1125  C1126   1.411   .     S
C1126  H1129   1.109   .     S
C1126  H1128   1.105   .     S
C1126  H1127   1.114   .     S
O1130  C1131   1.410   .     S
C1131  H1132   1.108   .     S
C1131  H1133   1.115   .     S
C1131  H1134   1.111   .     S
O1135  C1136   1.416   .     S
C1136  H1137   1.116   .     S
C1136  H1408   1.109   .     S
C1136  H1409   1.108   .     S
O1140  C1321   1.411   1_455 S
C1141  H1143   1.113   .     S
C1141  H1144   1.109   .     S
C1141  O1230   1.411   .     S
C1141  H1232   1.111   .     S
H1142  C1321   1.111   1_455 S
N1145  H1147   1.044   .     S
N1145  H1146   1.043   .     S
N1148  H1149   1.045   .     S
N1148  H1330   1.045   1_455 S
H1150  N1238   1.045   .     S
C1152  H1154   1.110   .     S
C1152  H1153   1.110   .     S
C1152  O1421   1.411   .     S
C1152  H1425   1.102   .     S
O1156  C1356   1.403   .     S
O1156  C1427   1.412   .     S
C1157  H1158   1.108   .     S
C1157  H1159   1.109   .     S
H1160  C1427   1.102   .     S
O1161  N1283   1.347   1_455 S
O1161  C1342   1.400   1_455 S
C1162  H1164   1.101   .     S
C1162  H1163   1.112   .     S
C1162  O1251   1.400   .     S
C1162  H1255   1.103   .     S
H1165  C1342   1.103   1_455 S
O1166  N1194   1.346   .     S
O1166  C1257   1.399   .     S
C1167  H1168   1.102   .     S
C1167  H1169   1.112   .     S
C1167  O1346   1.399   1_455 S
C1167  H1350   1.102   1_455 S
H1170  C1257   1.102   .     S
C1171  C1175   1.442   .     S
C1171  O1195   1.293   .     A
C1171  O1197   1.297   .     A
C1172  C1176   1.445   .     S
C1172  O1196   1.291   .     A
C1172  O1198   1.300   .     A
C1173  N1235   1.436   .     S
C1173  C1190   1.417   .     A
C1173  C381    1.396   1_556 S
C1174  C1189   1.410   .     A
C1174  N1238   1.433   .     S
C1175  C1446   1.358   .     S
C1175  O1511   1.403   .     S
C1177  O1199   1.290   .     A
C1177  C1182   1.432   .     S
C1177  O1201   1.298   .     A
C1178  O1202   1.297   .     A
C1178  O1200   1.292   .     A
C1178  C1181   1.435   .     S
C1179  O1205   1.379   .     S
C1179  C1189   1.400   .     A
C1179  C1181   1.387   .     A
C1180  O1210   1.380   .     S
C1180  C1190   1.403   .     A
C1180  C1182   1.392   .     A
C1181  C1183   1.393   .     A
C1182  C1184   1.392   .     A
C1183  C1185   1.402   .     A
C1183  O1215   1.380   .     S
C1184  C1186   1.397   .     A
C1184  O1220   1.383   .     S
C1185  C1187   1.417   .     A
C1185  C1191   1.412   .     A
C1186  C1188   1.418   .     A
C1186  C1192   1.412   .     A
C1187  C1189   1.421   .     A
C1188  C1190   1.422   .     A
C1188  C377    1.401   1_556 S
C1191  O1225   1.387   .     S
C1192  O1230   1.386   .     S
C1192  C364    1.394   1_556 S
N1193  Zn1204  2.034   .     S
N1193  N1284   1.299   .     S
N1193  O1341   1.347   .     S
N1194  Zn1203  2.034   .     S
O1195  Zn1203  2.008   .     S
O1196  Zn1204  2.008   .     S
O1197  Zn1204  2.020   .     S
O1198  Zn1203  2.020   .     S
O1199  Zn1203  2.012   .     S
O1200  Zn1204  2.012   .     S
O1201  Zn1204  2.022   .     S
O1202  Zn1203  2.022   .     S
O1205  C1206   1.406   .     S
C1206  H1207   1.112   .     S
C1206  H1209   1.109   .     S
C1206  H1208   1.113   .     S
O1210  C1211   1.409   .     S
C1211  H1212   1.112   .     S
C1211  H1213   1.109   .     S
C1211  H1214   1.112   .     S
O1215  C1216   1.411   .     S
C1216  H1219   1.109   .     S
C1216  H1218   1.105   .     S
C1216  H1217   1.114   .     S
O1220  C1221   1.410   .     S
C1221  H1222   1.108   .     S
C1221  H1223   1.115   .     S
C1221  H1224   1.111   .     S
O1225  C1226   1.416   .     S
C1226  H1227   1.116   .     S
C1226  H1498   1.109   .     S
C1226  H1499   1.108   .     S
C1231  H1233   1.113   .     S
C1231  H1234   1.109   .     S
C1231  O1320   1.411   .     S
C1231  H1322   1.111   .     S
N1235  H1237   1.044   .     S
N1235  H1236   1.043   .     S
N1238  H1239   1.045   .     S
H1240  N1328   1.045   .     S
C1242  H1244   1.110   .     S
C1242  H1243   1.110   .     S
C1242  O1511   1.411   .     S
C1242  H1515   1.102   .     S
O1246  C1446   1.403   .     S
O1246  C1517   1.412   .     S
C1247  H1248   1.108   .     S
C1247  H1249   1.109   .     S
H1250  C1517   1.102   .     S
C1252  H1254   1.101   .     S
C1252  H1253   1.112   .     S
C1252  O1341   1.400   .     S
C1252  H1345   1.103   .     S
O1256  N1284   1.346   .     S
O1256  C1347   1.399   .     S
C1257  H1258   1.102   .     S
C1257  H1259   1.112   .     S
H1260  C1347   1.102   .     S
C1261  C1265   1.442   .     S
C1261  O1285   1.293   .     A
C1261  O1287   1.297   .     A
C1262  C1266   1.445   .     S
C1262  O1286   1.291   .     A
C1262  O1288   1.300   .     A
C1263  N1325   1.436   .     S
C1263  C1280   1.417   .     A
C1263  C471    1.396   1_556 S
C1264  C1279   1.410   .     A
C1264  N1328   1.433   .     S
C1265  C1536   1.358   .     S
C1265  O1601   1.403   .     S
C1267  O1289   1.290   .     A
C1267  C1272   1.432   .     S
C1267  O1291   1.298   .     A
C1268  O1292   1.297   .     A
C1268  O1290   1.292   .     A
C1268  C1271   1.435   .     S
C1269  O1295   1.379   .     S
C1269  C1279   1.400   .     A
C1269  C1271   1.387   .     A
C1270  O1300   1.380   .     S
C1270  C1280   1.403   .     A
C1270  C1272   1.392   .     A
C1271  C1273   1.393   .     A
C1272  C1274   1.392   .     A
C1273  C1275   1.402   .     A
C1273  O1305   1.380   .     S
C1274  C1276   1.397   .     A
C1274  O1310   1.383   .     S
C1275  C1277   1.417   .     A
C1275  C1281   1.412   .     A
C1276  C1278   1.418   .     A
C1276  C1282   1.412   .     A
C1277  C1279   1.421   .     A
C1278  C1280   1.422   .     A
C1278  C467    1.401   1_556 S
C1281  O1315   1.387   .     S
C1282  O1320   1.386   .     S
C1282  C454    1.394   1_556 S
N1283  Zn1294  2.034   .     S
N1283  N1104   1.299   1_655 S
N1283  O1161   1.347   1_655 S
N1284  Zn1293  2.034   .     S
O1285  Zn1293  2.008   .     S
O1286  Zn1294  2.008   .     S
O1287  Zn1294  2.020   .     S
O1288  Zn1293  2.020   .     S
O1289  Zn1293  2.012   .     S
O1290  Zn1294  2.012   .     S
O1291  Zn1294  2.022   .     S
O1292  Zn1293  2.022   .     S
O1295  C1296   1.406   .     S
C1296  H1297   1.112   .     S
C1296  H1299   1.109   .     S
C1296  H1298   1.113   .     S
O1300  C1301   1.409   .     S
C1301  H1302   1.112   .     S
C1301  H1303   1.109   .     S
C1301  H1304   1.112   .     S
O1305  C1306   1.411   .     S
C1306  H1309   1.109   .     S
C1306  H1308   1.105   .     S
C1306  H1307   1.114   .     S
O1310  C1311   1.410   .     S
C1311  H1312   1.108   .     S
C1311  H1313   1.115   .     S
C1311  H1314   1.111   .     S
O1315  C1316   1.416   .     S
C1316  H1317   1.116   .     S
C1316  H1588   1.109   .     S
C1316  H1589   1.108   .     S
C1321  H1323   1.113   .     S
C1321  H1324   1.109   .     S
C1321  O1140   1.411   1_655 S
C1321  H1142   1.111   1_655 S
N1325  H1327   1.044   .     S
N1325  H1326   1.043   .     S
N1328  H1329   1.045   .     S
H1330  N1148   1.045   1_655 S
C1332  H1334   1.110   .     S
C1332  H1333   1.110   .     S
C1332  O1601   1.411   .     S
C1332  H1605   1.102   .     S
O1336  C1536   1.403   .     S
O1336  C1607   1.412   .     S
C1337  H1338   1.108   .     S
C1337  H1339   1.109   .     S
H1340  C1607   1.102   .     S
C1342  H1344   1.101   .     S
C1342  H1343   1.112   .     S
C1342  O1161   1.400   1_655 S
C1342  H1165   1.103   1_655 S
O1346  N1104   1.346   1_655 S
O1346  C1167   1.399   1_655 S
C1347  H1348   1.102   .     S
C1347  H1349   1.112   .     S
H1350  C1167   1.102   1_655 S
C1351  C1355   1.442   .     S
C1351  O1375   1.293   .     A
C1351  O1377   1.297   .     A
C1352  C1356   1.445   .     S
C1352  O1376   1.291   .     A
C1352  O1378   1.300   .     A
C1353  N1415   1.436   .     S
C1353  C1370   1.417   .     A
C1353  C561    1.396   1_556 S
C1354  C1369   1.410   .     A
C1354  N1418   1.433   .     S
C1355  C816    1.358   1_565 S
C1355  O881    1.403   1_565 S
C1357  O1379   1.290   .     A
C1357  C1362   1.432   .     S
C1357  O1381   1.298   .     A
C1358  O1382   1.297   .     A
C1358  O1380   1.292   .     A
C1358  C1361   1.435   .     S
C1359  O1385   1.379   .     S
C1359  C1369   1.400   .     A
C1359  C1361   1.387   .     A
C1360  O1390   1.380   .     S
C1360  C1370   1.403   .     A
C1360  C1362   1.392   .     A
C1361  C1363   1.393   .     A
C1362  C1364   1.392   .     A
C1363  C1365   1.402   .     A
C1363  O1395   1.380   .     S
C1364  C1366   1.397   .     A
C1364  O1400   1.383   .     S
C1365  C1367   1.417   .     A
C1365  C1371   1.412   .     A
C1366  C1368   1.418   .     A
C1366  C1372   1.412   .     A
C1367  C1369   1.421   .     A
C1368  C1370   1.422   .     A
C1368  C557    1.401   1_556 S
C1371  O1405   1.387   .     S
C1372  O1410   1.386   .     S
C1372  C544    1.394   1_556 S
N1373  Zn1384  2.034   .     S
N1373  N1464   1.299   .     S
N1373  O1521   1.347   .     S
N1374  Zn1383  2.034   .     S
N1374  N1553   1.299   1_455 S
N1374  O1616   1.346   1_455 S
O1375  Zn1383  2.008   .     S
O1376  Zn1384  2.008   .     S
O1377  Zn1384  2.020   .     S
O1378  Zn1383  2.020   .     S
O1379  Zn1383  2.012   .     S
O1380  Zn1384  2.012   .     S
O1381  Zn1384  2.022   .     S
O1382  Zn1383  2.022   .     S
O1385  C1386   1.406   .     S
C1386  H1387   1.112   .     S
C1386  H1389   1.109   .     S
C1386  H1388   1.113   .     S
O1390  C1391   1.409   .     S
C1391  H1392   1.112   .     S
C1391  H1393   1.109   .     S
C1391  H1394   1.112   .     S
O1395  C1396   1.411   .     S
C1396  H1399   1.109   .     S
C1396  H1398   1.105   .     S
C1396  H1397   1.114   .     S
O1400  C1401   1.410   .     S
C1401  H1402   1.108   .     S
C1401  H1403   1.115   .     S
C1401  H1404   1.111   .     S
O1405  C1406   1.416   .     S
C1406  H1407   1.116   .     S
C1406  H868    1.109   1_565 S
C1406  H869    1.108   1_565 S
O1410  C1591   1.411   1_455 S
C1411  H1413   1.113   .     S
C1411  H1414   1.109   .     S
C1411  O1500   1.411   .     S
C1411  H1502   1.111   .     S
H1412  C1591   1.111   1_455 S
N1415  H1417   1.044   .     S
N1415  H1416   1.043   .     S
N1418  H1419   1.045   .     S
N1418  H1600   1.045   1_455 S
H1420  N1508   1.045   .     S
C1422  H1424   1.110   .     S
C1422  H1423   1.110   .     S
C1422  O881    1.411   1_565 S
C1422  H885    1.102   1_565 S
O1426  C816    1.403   1_565 S
O1426  C887    1.412   1_565 S
C1427  H1428   1.108   .     S
C1427  H1429   1.109   .     S
H1430  C887    1.102   1_565 S
O1431  N1553   1.347   1_455 S
O1431  C1612   1.400   1_455 S
C1432  H1434   1.101   .     S
C1432  H1433   1.112   .     S
C1432  O1521   1.400   .     S
C1432  H1525   1.103   .     S
H1435  C1612   1.103   1_455 S
O1436  N1464   1.346   .     S
O1436  C1527   1.399   .     S
C1437  H1438   1.102   .     S
C1437  H1439   1.112   .     S
C1437  O1616   1.399   1_455 S
C1437  H1620   1.102   1_455 S
H1440  C1527   1.102   .     S
C1441  C1445   1.442   .     S
C1441  O1465   1.293   .     A
C1441  O1467   1.297   .     A
C1442  C1446   1.445   .     S
C1442  O1466   1.291   .     A
C1442  O1468   1.300   .     A
C1443  N1505   1.436   .     S
C1443  C1460   1.417   .     A
C1443  C651    1.396   1_556 S
C1444  C1459   1.410   .     A
C1444  N1508   1.433   .     S
C1445  C906    1.358   1_565 S
C1445  O971    1.403   1_565 S
C1447  O1469   1.290   .     A
C1447  C1452   1.432   .     S
C1447  O1471   1.298   .     A
C1448  O1472   1.297   .     A
C1448  O1470   1.292   .     A
C1448  C1451   1.435   .     S
C1449  O1475   1.379   .     S
C1449  C1459   1.400   .     A
C1449  C1451   1.387   .     A
C1450  O1480   1.380   .     S
C1450  C1460   1.403   .     A
C1450  C1452   1.392   .     A
C1451  C1453   1.393   .     A
C1452  C1454   1.392   .     A
C1453  C1455   1.402   .     A
C1453  O1485   1.380   .     S
C1454  C1456   1.397   .     A
C1454  O1490   1.383   .     S
C1455  C1457   1.417   .     A
C1455  C1461   1.412   .     A
C1456  C1458   1.418   .     A
C1456  C1462   1.412   .     A
C1457  C1459   1.421   .     A
C1458  C1460   1.422   .     A
C1458  C647    1.401   1_556 S
C1461  O1495   1.387   .     S
C1462  O1500   1.386   .     S
C1462  C634    1.394   1_556 S
N1463  Zn1474  2.034   .     S
N1463  N1554   1.299   .     S
N1463  O1611   1.347   .     S
N1464  Zn1473  2.034   .     S
O1465  Zn1473  2.008   .     S
O1466  Zn1474  2.008   .     S
O1467  Zn1474  2.020   .     S
O1468  Zn1473  2.020   .     S
O1469  Zn1473  2.012   .     S
O1470  Zn1474  2.012   .     S
O1471  Zn1474  2.022   .     S
O1472  Zn1473  2.022   .     S
O1475  C1476   1.406   .     S
C1476  H1477   1.112   .     S
C1476  H1479   1.109   .     S
C1476  H1478   1.113   .     S
O1480  C1481   1.409   .     S
C1481  H1482   1.112   .     S
C1481  H1483   1.109   .     S
C1481  H1484   1.112   .     S
O1485  C1486   1.411   .     S
C1486  H1489   1.109   .     S
C1486  H1488   1.105   .     S
C1486  H1487   1.114   .     S
O1490  C1491   1.410   .     S
C1491  H1492   1.108   .     S
C1491  H1493   1.115   .     S
C1491  H1494   1.111   .     S
O1495  C1496   1.416   .     S
C1496  H1497   1.116   .     S
C1496  H958    1.109   1_565 S
C1496  H959    1.108   1_565 S
C1501  H1503   1.113   .     S
C1501  H1504   1.109   .     S
C1501  O1590   1.411   .     S
C1501  H1592   1.111   .     S
N1505  H1507   1.044   .     S
N1505  H1506   1.043   .     S
N1508  H1509   1.045   .     S
H1510  N1598   1.045   .     S
C1512  H1514   1.110   .     S
C1512  H1513   1.110   .     S
C1512  O971    1.411   1_565 S
C1512  H975    1.102   1_565 S
O1516  C906    1.403   1_565 S
O1516  C977    1.412   1_565 S
C1517  H1518   1.108   .     S
C1517  H1519   1.109   .     S
H1520  C977    1.102   1_565 S
C1522  H1524   1.101   .     S
C1522  H1523   1.112   .     S
C1522  O1611   1.400   .     S
C1522  H1615   1.103   .     S
O1526  N1554   1.346   .     S
O1526  C1617   1.399   .     S
C1527  H1528   1.102   .     S
C1527  H1529   1.112   .     S
H1530  C1617   1.102   .     S
C1531  C1535   1.442   .     S
C1531  O1555   1.293   .     A
C1531  O1557   1.297   .     A
C1532  C1536   1.445   .     S
C1532  O1556   1.291   .     A
C1532  O1558   1.300   .     A
C1533  N1595   1.436   .     S
C1533  C1550   1.417   .     A
C1533  C741    1.396   1_556 S
C1534  C1549   1.410   .     A
C1534  N1598   1.433   .     S
C1535  C996    1.358   1_565 S
C1535  O1061   1.403   1_565 S
C1537  O1559   1.290   .     A
C1537  C1542   1.432   .     S
C1537  O1561   1.298   .     A
C1538  O1562   1.297   .     A
C1538  O1560   1.292   .     A
C1538  C1541   1.435   .     S
C1539  O1565   1.379   .     S
C1539  C1549   1.400   .     A
C1539  C1541   1.387   .     A
C1540  O1570   1.380   .     S
C1540  C1550   1.403   .     A
C1540  C1542   1.392   .     A
C1541  C1543   1.393   .     A
C1542  C1544   1.392   .     A
C1543  C1545   1.402   .     A
C1543  O1575   1.380   .     S
C1544  C1546   1.397   .     A
C1544  O1580   1.383   .     S
C1545  C1547   1.417   .     A
C1545  C1551   1.412   .     A
C1546  C1548   1.418   .     A
C1546  C1552   1.412   .     A
C1547  C1549   1.421   .     A
C1548  C1550   1.422   .     A
C1548  C737    1.401   1_556 S
C1551  O1585   1.387   .     S
C1552  O1590   1.386   .     S
C1552  C724    1.394   1_556 S
N1553  Zn1564  2.034   .     S
N1553  N1374   1.299   1_655 S
N1553  O1431   1.347   1_655 S
N1554  Zn1563  2.034   .     S
O1555  Zn1563  2.008   .     S
O1556  Zn1564  2.008   .     S
O1557  Zn1564  2.020   .     S
O1558  Zn1563  2.020   .     S
O1559  Zn1563  2.012   .     S
O1560  Zn1564  2.012   .     S
O1561  Zn1564  2.022   .     S
O1562  Zn1563  2.022   .     S
O1565  C1566   1.406   .     S
C1566  H1567   1.112   .     S
C1566  H1569   1.109   .     S
C1566  H1568   1.113   .     S
O1570  C1571   1.409   .     S
C1571  H1572   1.112   .     S
C1571  H1573   1.109   .     S
C1571  H1574   1.112   .     S
O1575  C1576   1.411   .     S
C1576  H1579   1.109   .     S
C1576  H1578   1.105   .     S
C1576  H1577   1.114   .     S
O1580  C1581   1.410   .     S
C1581  H1582   1.108   .     S
C1581  H1583   1.115   .     S
C1581  H1584   1.111   .     S
O1585  C1586   1.416   .     S
C1586  H1587   1.116   .     S
C1586  H1048   1.109   1_565 S
C1586  H1049   1.108   1_565 S
C1591  H1593   1.113   .     S
C1591  H1594   1.109   .     S
C1591  O1410   1.411   1_655 S
C1591  H1412   1.111   1_655 S
N1595  H1597   1.044   .     S
N1595  H1596   1.043   .     S
N1598  H1599   1.045   .     S
H1600  N1418   1.045   1_655 S
C1602  H1604   1.110   .     S
C1602  H1603   1.110   .     S
C1602  O1061   1.411   1_565 S
C1602  H1065   1.102   1_565 S
O1606  C996    1.403   1_565 S
O1606  C1067   1.412   1_565 S
C1607  H1608   1.108   .     S
C1607  H1609   1.109   .     S
H1610  C1067   1.102   1_565 S
C1612  H1614   1.101   .     S
C1612  H1613   1.112   .     S
C1612  O1431   1.400   1_655 S
C1612  H1435   1.103   1_655 S
O1616  N1374   1.346   1_655 S
O1616  C1437   1.399   1_655 S
C1617  H1618   1.102   .     S
C1617  H1619   1.112   .     S
H1620  C1437   1.102   1_655 S
