data_str_m3_o1_o18_pcu_sym.199
_audit_creation_date              2020-01-03
_audit_creation_method            'Materials Studio'
_symmetry_space_group_name_H-M    'P1'
_symmetry_Int_Tables_number       1
_symmetry_cell_setting            triclinic
loop_
_symmetry_equiv_pos_as_xyz
  x,y,z
_cell_length_a                    29.5471
_cell_length_b                    32.0588
_cell_length_c                    31.0347
_cell_angle_alpha                 90.2095
_cell_angle_beta                  67.8104
_cell_angle_gamma                 90.2076
loop_
_atom_site_label
_atom_site_type_symbol
_atom_site_fract_x
_atom_site_fract_y
_atom_site_fract_z
_atom_site_U_iso_or_equiv
_atom_site_adp_type
_atom_site_occupancy
C1     C     0.16705   0.24665   0.24943   0.00000  Uiso   1.00
C2     C     0.16636   0.08671   0.25051   0.00000  Uiso   1.00
C3     C     0.11883   0.12294   0.04503   0.00000  Uiso   1.00
C4     C     0.22818   0.16066   0.44606   0.00000  Uiso   1.00
C5     C     0.08498   0.11795   0.02415   0.00000  Uiso   1.00
C6     C     0.26213   0.16575   0.46667   0.00000  Uiso   1.00
C7     C     0.21142   0.31246   0.22710   0.00000  Uiso   1.00
C8     C     0.12274   0.02087   0.27559   0.00000  Uiso   1.00
C9     C     0.21005   0.02212   0.22715   0.00000  Uiso   1.00
C10    C     0.12347   0.31134   0.27358   0.00000  Uiso   1.00
C11    C     0.16611   0.04261   0.25120   0.00000  Uiso   1.00
C12    C     0.16743   0.29081   0.24958   0.00000  Uiso   1.00
C13    C     0.32081   0.14088   0.22087   0.00000  Uiso   1.00
C14    C     0.01252   0.19246   0.27912   0.00000  Uiso   1.00
C15    C     0.03540   0.14087   0.22090   0.00000  Uiso   1.00
C16    C     0.29792   0.19245   0.27911   0.00000  Uiso   1.00
C17    C     0.13618   0.16631   0.33801   0.00000  Uiso   1.00
C18    C     0.19718   0.16600   0.16201   0.00000  Uiso   1.00
C19    C     0.11789   0.15993   0.38817   0.00000  Uiso   1.00
C20    C     0.21644   0.16278   0.11143   0.00000  Uiso   1.00
C21    C     0.06117   0.12798   0.45820   0.00000  Uiso   1.00
C22    C     0.28059   0.17236   0.03593   0.00000  Uiso   1.00
C23    C     0.07244   0.14145   0.41261   0.00000  Uiso   1.00
C24    C     0.26510   0.17244   0.08424   0.00000  Uiso   1.00
C25    C     0.15089   0.16613   0.40983   0.00000  Uiso   1.00
C26    C     0.18437   0.15066   0.09032   0.00000  Uiso   1.00
C27    C     0.14239   0.14944   0.45359   0.00000  Uiso   1.00
C28    C     0.19904   0.15001   0.04199   0.00000  Uiso   1.00
C29    C     0.09590   0.13179   0.47887   0.00000  Uiso   1.00
C30    C     0.24761   0.16231   0.01467   0.00000  Uiso   1.00
C31    C     0.17877   0.15066   0.47294   0.00000  Uiso   1.00
C32    C     0.16542   0.14090   0.02053   0.00000  Uiso   1.00
H33    H     0.04983   0.10386   0.04382   0.00000  Uiso   1.00
H34    H     0.29939   0.17415   0.44514   0.00000  Uiso   1.00
H35    H     0.29049   0.18151   0.10025   0.00000  Uiso   1.00
H36    H     0.04658   0.13613   0.39604   0.00000  Uiso   1.00
H37    H     0.31181   0.12027   0.19757   0.00000  Uiso   1.00
H38    H     0.02152   0.21308   0.30241   0.00000  Uiso   1.00
N39    N     0.04759   0.16668   0.25001   0.00000  Uiso   1.00
N40    N     0.28574   0.16666   0.24999   0.00000  Uiso   1.00
O41    O     0.12846   0.22775   0.25001   0.00000  Uiso   1.00
O42    O     0.20488   0.10558   0.25000   0.00000  Uiso   1.00
O43    O     0.20490   0.22774   0.25000   0.00000  Uiso   1.00
O44    O     0.12843   0.10559   0.25000   0.00000  Uiso   1.00
O45    O     0.10661   0.16667   0.31613   0.00000  Uiso   1.00
O46    O     0.22672   0.16666   0.18388   0.00000  Uiso   1.00
O47    O     0.18305   0.16666   0.31612   0.00000  Uiso   1.00
O48    O     0.15028   0.16667   0.18388   0.00000  Uiso   1.00
Zn49   Zn    0.11562   0.16667   0.25000   0.00000  Uiso   1.00
Zn50   Zn    0.21771   0.16666   0.25000   0.00000  Uiso   1.00
H51    H     0.14702   0.14413   0.11241   0.00000  Uiso   1.00
H52    H     0.18378   0.18357   0.39131   0.00000  Uiso   1.00
H53    H     0.02597   0.11354   0.47680   0.00000  Uiso   1.00
H54    H     0.31774   0.18173   0.01531   0.00000  Uiso   1.00
H55    H     0.10806   0.11112   0.07999   0.00000  Uiso   1.00
H56    H     0.24192   0.16382   0.40870   0.00000  Uiso   1.00
O57    O     0.25393   0.29146   0.20092   0.00000  Uiso   1.00
C58    C     0.28880   0.29701   0.22145   0.00000  Uiso   1.00
H59    H     0.31968   0.27538   0.20437   0.00000  Uiso   1.00
H60    H     0.27347   0.28933   0.25924   0.00000  Uiso   1.00
H61    H     0.30380   0.32926   0.21598   0.00000  Uiso   1.00
O62    O     0.07928   0.04131   0.29956   0.00000  Uiso   1.00
C63    C     0.07405   0.04532   0.34646   0.00000  Uiso   1.00
H64    H     0.03946   0.06207   0.36570   0.00000  Uiso   1.00
H65    H     0.10445   0.06399   0.34975   0.00000  Uiso   1.00
H66    H     0.07167   0.01427   0.36313   0.00000  Uiso   1.00
H67    H     0.24293   0.03947   0.20757   0.00000  Uiso   1.00
H68    H     0.08993   0.29417   0.29154   0.00000  Uiso   1.00
H69    H     0.06269   0.12023   0.19762   0.00000  Uiso   1.00
H70    H     0.27063   0.21309   0.30239   0.00000  Uiso   1.00
C71    C     0.50038   0.24665   0.24943   0.00000  Uiso   1.00
C72    C     0.49970   0.08671   0.25051   0.00000  Uiso   1.00
C73    C     0.45216   0.12294   0.04503   0.00000  Uiso   1.00
C74    C     0.56151   0.16066   0.44606   0.00000  Uiso   1.00
C75    C     0.41832   0.11795   0.02415   0.00000  Uiso   1.00
C76    C     0.59546   0.16575   0.46667   0.00000  Uiso   1.00
C77    C     0.54475   0.31246   0.22710   0.00000  Uiso   1.00
C78    C     0.45607   0.02087   0.27559   0.00000  Uiso   1.00
C79    C     0.54338   0.02212   0.22715   0.00000  Uiso   1.00
C80    C     0.45680   0.31134   0.27358   0.00000  Uiso   1.00
C81    C     0.49944   0.04261   0.25120   0.00000  Uiso   1.00
C82    C     0.50076   0.29081   0.24958   0.00000  Uiso   1.00
C83    C     0.65414   0.14088   0.22087   0.00000  Uiso   1.00
C84    C     0.34586   0.19246   0.27912   0.00000  Uiso   1.00
C85    C     0.36874   0.14087   0.22090   0.00000  Uiso   1.00
C86    C     0.63126   0.19245   0.27911   0.00000  Uiso   1.00
C87    C     0.46951   0.16631   0.33801   0.00000  Uiso   1.00
C88    C     0.53052   0.16600   0.16201   0.00000  Uiso   1.00
C89    C     0.45123   0.15993   0.38817   0.00000  Uiso   1.00
C90    C     0.54977   0.16278   0.11143   0.00000  Uiso   1.00
C91    C     0.39450   0.12798   0.45820   0.00000  Uiso   1.00
C92    C     0.61392   0.17236   0.03593   0.00000  Uiso   1.00
C93    C     0.40577   0.14145   0.41261   0.00000  Uiso   1.00
C94    C     0.59843   0.17244   0.08424   0.00000  Uiso   1.00
C95    C     0.48422   0.16613   0.40983   0.00000  Uiso   1.00
C96    C     0.51770   0.15066   0.09032   0.00000  Uiso   1.00
C97    C     0.47572   0.14944   0.45359   0.00000  Uiso   1.00
C98    C     0.53237   0.15001   0.04199   0.00000  Uiso   1.00
C99    C     0.42923   0.13179   0.47887   0.00000  Uiso   1.00
C100   C     0.58094   0.16231   0.01467   0.00000  Uiso   1.00
C101   C     0.51210   0.15066   0.47294   0.00000  Uiso   1.00
C102   C     0.49875   0.14090   0.02053   0.00000  Uiso   1.00
H103   H     0.38316   0.10386   0.04382   0.00000  Uiso   1.00
H104   H     0.63273   0.17415   0.44514   0.00000  Uiso   1.00
H105   H     0.62382   0.18151   0.10025   0.00000  Uiso   1.00
H106   H     0.37991   0.13613   0.39604   0.00000  Uiso   1.00
H107   H     0.64514   0.12027   0.19757   0.00000  Uiso   1.00
H108   H     0.35485   0.21308   0.30241   0.00000  Uiso   1.00
N109   N     0.38093   0.16668   0.25001   0.00000  Uiso   1.00
N110   N     0.61907   0.16666   0.24999   0.00000  Uiso   1.00
O111   O     0.46179   0.22775   0.25001   0.00000  Uiso   1.00
O112   O     0.53821   0.10558   0.25000   0.00000  Uiso   1.00
O113   O     0.53823   0.22774   0.25000   0.00000  Uiso   1.00
O114   O     0.46177   0.10559   0.25000   0.00000  Uiso   1.00
O115   O     0.43994   0.16667   0.31613   0.00000  Uiso   1.00
O116   O     0.56006   0.16666   0.18388   0.00000  Uiso   1.00
O117   O     0.51639   0.16666   0.31612   0.00000  Uiso   1.00
O118   O     0.48361   0.16667   0.18388   0.00000  Uiso   1.00
Zn119  Zn    0.44896   0.16667   0.25000   0.00000  Uiso   1.00
Zn120  Zn    0.55104   0.16666   0.25000   0.00000  Uiso   1.00
H121   H     0.48036   0.14413   0.11241   0.00000  Uiso   1.00
H122   H     0.51711   0.18357   0.39131   0.00000  Uiso   1.00
H123   H     0.35930   0.11354   0.47680   0.00000  Uiso   1.00
H124   H     0.65107   0.18173   0.01531   0.00000  Uiso   1.00
H125   H     0.44139   0.11112   0.07999   0.00000  Uiso   1.00
H126   H     0.57526   0.16382   0.40870   0.00000  Uiso   1.00
O127   O     0.58726   0.29146   0.20092   0.00000  Uiso   1.00
C128   C     0.62214   0.29701   0.22145   0.00000  Uiso   1.00
H129   H     0.65301   0.27538   0.20437   0.00000  Uiso   1.00
H130   H     0.60680   0.28933   0.25924   0.00000  Uiso   1.00
H131   H     0.63713   0.32926   0.21598   0.00000  Uiso   1.00
O132   O     0.41261   0.04131   0.29956   0.00000  Uiso   1.00
C133   C     0.40738   0.04532   0.34646   0.00000  Uiso   1.00
H134   H     0.37279   0.06207   0.36570   0.00000  Uiso   1.00
H135   H     0.43778   0.06399   0.34975   0.00000  Uiso   1.00
H136   H     0.40501   0.01427   0.36313   0.00000  Uiso   1.00
H137   H     0.57627   0.03947   0.20757   0.00000  Uiso   1.00
H138   H     0.42327   0.29417   0.29154   0.00000  Uiso   1.00
H139   H     0.39602   0.12023   0.19762   0.00000  Uiso   1.00
H140   H     0.60397   0.21309   0.30239   0.00000  Uiso   1.00
C141   C     0.83371   0.24665   0.24943   0.00000  Uiso   1.00
C142   C     0.83303   0.08671   0.25051   0.00000  Uiso   1.00
C143   C     0.78549   0.12294   0.04503   0.00000  Uiso   1.00
C144   C     0.89484   0.16066   0.44606   0.00000  Uiso   1.00
C145   C     0.75165   0.11795   0.02415   0.00000  Uiso   1.00
C146   C     0.92880   0.16575   0.46667   0.00000  Uiso   1.00
C147   C     0.87808   0.31246   0.22710   0.00000  Uiso   1.00
C148   C     0.78940   0.02087   0.27559   0.00000  Uiso   1.00
C149   C     0.87671   0.02212   0.22715   0.00000  Uiso   1.00
C150   C     0.79013   0.31134   0.27358   0.00000  Uiso   1.00
C151   C     0.83278   0.04261   0.25120   0.00000  Uiso   1.00
C152   C     0.83410   0.29081   0.24958   0.00000  Uiso   1.00
C153   C     0.98747   0.14088   0.22087   0.00000  Uiso   1.00
C154   C     0.67919   0.19246   0.27912   0.00000  Uiso   1.00
C155   C     0.70207   0.14087   0.22090   0.00000  Uiso   1.00
C156   C     0.96459   0.19245   0.27911   0.00000  Uiso   1.00
C157   C     0.80284   0.16631   0.33801   0.00000  Uiso   1.00
C158   C     0.86385   0.16600   0.16201   0.00000  Uiso   1.00
C159   C     0.78456   0.15993   0.38817   0.00000  Uiso   1.00
C160   C     0.88311   0.16278   0.11143   0.00000  Uiso   1.00
C161   C     0.72783   0.12798   0.45820   0.00000  Uiso   1.00
C162   C     0.94726   0.17236   0.03593   0.00000  Uiso   1.00
C163   C     0.73910   0.14145   0.41261   0.00000  Uiso   1.00
C164   C     0.93177   0.17244   0.08424   0.00000  Uiso   1.00
C165   C     0.81755   0.16613   0.40983   0.00000  Uiso   1.00
C166   C     0.85104   0.15066   0.09032   0.00000  Uiso   1.00
C167   C     0.80906   0.14944   0.45359   0.00000  Uiso   1.00
C168   C     0.86570   0.15001   0.04199   0.00000  Uiso   1.00
C169   C     0.76256   0.13179   0.47887   0.00000  Uiso   1.00
C170   C     0.91427   0.16231   0.01467   0.00000  Uiso   1.00
C171   C     0.84543   0.15066   0.47294   0.00000  Uiso   1.00
C172   C     0.83209   0.14090   0.02053   0.00000  Uiso   1.00
H173   H     0.71649   0.10386   0.04382   0.00000  Uiso   1.00
H174   H     0.96606   0.17415   0.44514   0.00000  Uiso   1.00
H175   H     0.95716   0.18151   0.10025   0.00000  Uiso   1.00
H176   H     0.71325   0.13613   0.39604   0.00000  Uiso   1.00
H177   H     0.97847   0.12027   0.19757   0.00000  Uiso   1.00
H178   H     0.68819   0.21308   0.30241   0.00000  Uiso   1.00
N179   N     0.71426   0.16668   0.25001   0.00000  Uiso   1.00
N180   N     0.95241   0.16666   0.24999   0.00000  Uiso   1.00
O181   O     0.79512   0.22775   0.25001   0.00000  Uiso   1.00
O182   O     0.87154   0.10558   0.25000   0.00000  Uiso   1.00
O183   O     0.87157   0.22774   0.25000   0.00000  Uiso   1.00
O184   O     0.79510   0.10559   0.25000   0.00000  Uiso   1.00
O185   O     0.77328   0.16667   0.31613   0.00000  Uiso   1.00
O186   O     0.89339   0.16666   0.18388   0.00000  Uiso   1.00
O187   O     0.84972   0.16666   0.31612   0.00000  Uiso   1.00
O188   O     0.81695   0.16667   0.18388   0.00000  Uiso   1.00
Zn189  Zn    0.78229   0.16667   0.25000   0.00000  Uiso   1.00
Zn190  Zn    0.88438   0.16666   0.25000   0.00000  Uiso   1.00
H191   H     0.81369   0.14413   0.11241   0.00000  Uiso   1.00
H192   H     0.85045   0.18357   0.39131   0.00000  Uiso   1.00
H193   H     0.69263   0.11354   0.47680   0.00000  Uiso   1.00
H194   H     0.98440   0.18173   0.01531   0.00000  Uiso   1.00
H195   H     0.77473   0.11112   0.07999   0.00000  Uiso   1.00
H196   H     0.90859   0.16382   0.40870   0.00000  Uiso   1.00
O197   O     0.92059   0.29146   0.20092   0.00000  Uiso   1.00
C198   C     0.95547   0.29701   0.22145   0.00000  Uiso   1.00
H199   H     0.98635   0.27538   0.20437   0.00000  Uiso   1.00
H200   H     0.94013   0.28933   0.25924   0.00000  Uiso   1.00
H201   H     0.97046   0.32926   0.21598   0.00000  Uiso   1.00
O202   O     0.74595   0.04131   0.29956   0.00000  Uiso   1.00
C203   C     0.74072   0.04532   0.34646   0.00000  Uiso   1.00
H204   H     0.70612   0.06207   0.36570   0.00000  Uiso   1.00
H205   H     0.77111   0.06399   0.34975   0.00000  Uiso   1.00
H206   H     0.73834   0.01427   0.36313   0.00000  Uiso   1.00
H207   H     0.90960   0.03947   0.20757   0.00000  Uiso   1.00
H208   H     0.75660   0.29417   0.29154   0.00000  Uiso   1.00
H209   H     0.72936   0.12023   0.19762   0.00000  Uiso   1.00
H210   H     0.93730   0.21309   0.30239   0.00000  Uiso   1.00
C211   C     0.16705   0.57999   0.24943   0.00000  Uiso   1.00
C212   C     0.16636   0.42004   0.25051   0.00000  Uiso   1.00
C213   C     0.11883   0.45628   0.04503   0.00000  Uiso   1.00
C214   C     0.22818   0.49400   0.44606   0.00000  Uiso   1.00
C215   C     0.08498   0.45128   0.02415   0.00000  Uiso   1.00
C216   C     0.26213   0.49909   0.46667   0.00000  Uiso   1.00
C217   C     0.21142   0.64579   0.22710   0.00000  Uiso   1.00
C218   C     0.12274   0.35420   0.27559   0.00000  Uiso   1.00
C219   C     0.21005   0.35545   0.22715   0.00000  Uiso   1.00
C220   C     0.12347   0.64467   0.27358   0.00000  Uiso   1.00
C221   C     0.16611   0.37594   0.25120   0.00000  Uiso   1.00
C222   C     0.16743   0.62414   0.24958   0.00000  Uiso   1.00
C223   C     0.32081   0.47422   0.22087   0.00000  Uiso   1.00
C224   C     0.01252   0.52579   0.27912   0.00000  Uiso   1.00
C225   C     0.03540   0.47420   0.22090   0.00000  Uiso   1.00
C226   C     0.29792   0.52579   0.27911   0.00000  Uiso   1.00
C227   C     0.13618   0.49965   0.33801   0.00000  Uiso   1.00
C228   C     0.19718   0.49933   0.16201   0.00000  Uiso   1.00
C229   C     0.11789   0.49327   0.38817   0.00000  Uiso   1.00
C230   C     0.21644   0.49611   0.11143   0.00000  Uiso   1.00
C231   C     0.06117   0.46131   0.45820   0.00000  Uiso   1.00
C232   C     0.28059   0.50569   0.03593   0.00000  Uiso   1.00
C233   C     0.07244   0.47478   0.41261   0.00000  Uiso   1.00
C234   C     0.26510   0.50577   0.08424   0.00000  Uiso   1.00
C235   C     0.15089   0.49947   0.40983   0.00000  Uiso   1.00
C236   C     0.18437   0.48399   0.09032   0.00000  Uiso   1.00
C237   C     0.14239   0.48278   0.45359   0.00000  Uiso   1.00
C238   C     0.19904   0.48334   0.04199   0.00000  Uiso   1.00
C239   C     0.09590   0.46513   0.47887   0.00000  Uiso   1.00
C240   C     0.24761   0.49564   0.01467   0.00000  Uiso   1.00
C241   C     0.17877   0.48399   0.47294   0.00000  Uiso   1.00
C242   C     0.16542   0.47423   0.02053   0.00000  Uiso   1.00
H243   H     0.04983   0.43719   0.04382   0.00000  Uiso   1.00
H244   H     0.29939   0.50748   0.44514   0.00000  Uiso   1.00
H245   H     0.29049   0.51485   0.10025   0.00000  Uiso   1.00
H246   H     0.04658   0.46946   0.39604   0.00000  Uiso   1.00
H247   H     0.31181   0.45360   0.19757   0.00000  Uiso   1.00
H248   H     0.02152   0.54641   0.30241   0.00000  Uiso   1.00
N249   N     0.04759   0.50001   0.25001   0.00000  Uiso   1.00
N250   N     0.28574   0.49999   0.24999   0.00000  Uiso   1.00
O251   O     0.12846   0.56108   0.25001   0.00000  Uiso   1.00
O252   O     0.20488   0.43892   0.25000   0.00000  Uiso   1.00
O253   O     0.20490   0.56107   0.25000   0.00000  Uiso   1.00
O254   O     0.12843   0.43893   0.25000   0.00000  Uiso   1.00
O255   O     0.10661   0.50001   0.31613   0.00000  Uiso   1.00
O256   O     0.22672   0.49999   0.18388   0.00000  Uiso   1.00
O257   O     0.18305   0.50000   0.31612   0.00000  Uiso   1.00
O258   O     0.15028   0.50000   0.18388   0.00000  Uiso   1.00
Zn259  Zn    0.11562   0.50001   0.25000   0.00000  Uiso   1.00
Zn260  Zn    0.21771   0.49999   0.25000   0.00000  Uiso   1.00
H261   H     0.14702   0.47746   0.11241   0.00000  Uiso   1.00
H262   H     0.18378   0.51691   0.39131   0.00000  Uiso   1.00
H263   H     0.02597   0.44687   0.47680   0.00000  Uiso   1.00
H264   H     0.31774   0.51507   0.01531   0.00000  Uiso   1.00
H265   H     0.10806   0.44446   0.07999   0.00000  Uiso   1.00
H266   H     0.24192   0.49716   0.40870   0.00000  Uiso   1.00
O267   O     0.25393   0.62480   0.20092   0.00000  Uiso   1.00
C268   C     0.28880   0.63035   0.22145   0.00000  Uiso   1.00
H269   H     0.31968   0.60871   0.20437   0.00000  Uiso   1.00
H270   H     0.27347   0.62266   0.25924   0.00000  Uiso   1.00
H271   H     0.30380   0.66259   0.21598   0.00000  Uiso   1.00
O272   O     0.07928   0.37464   0.29956   0.00000  Uiso   1.00
C273   C     0.07405   0.37866   0.34646   0.00000  Uiso   1.00
H274   H     0.03946   0.39540   0.36570   0.00000  Uiso   1.00
H275   H     0.10445   0.39733   0.34975   0.00000  Uiso   1.00
H276   H     0.07167   0.34760   0.36313   0.00000  Uiso   1.00
H277   H     0.24293   0.37280   0.20757   0.00000  Uiso   1.00
H278   H     0.08993   0.62750   0.29154   0.00000  Uiso   1.00
H279   H     0.06269   0.45356   0.19762   0.00000  Uiso   1.00
H280   H     0.27063   0.54642   0.30239   0.00000  Uiso   1.00
C281   C     0.50038   0.57999   0.24943   0.00000  Uiso   1.00
C282   C     0.49970   0.42004   0.25051   0.00000  Uiso   1.00
C283   C     0.45216   0.45628   0.04503   0.00000  Uiso   1.00
C284   C     0.56151   0.49400   0.44606   0.00000  Uiso   1.00
C285   C     0.41832   0.45128   0.02415   0.00000  Uiso   1.00
C286   C     0.59546   0.49909   0.46667   0.00000  Uiso   1.00
C287   C     0.54475   0.64579   0.22710   0.00000  Uiso   1.00
C288   C     0.45607   0.35420   0.27559   0.00000  Uiso   1.00
C289   C     0.54338   0.35545   0.22715   0.00000  Uiso   1.00
C290   C     0.45680   0.64467   0.27358   0.00000  Uiso   1.00
C291   C     0.49944   0.37594   0.25120   0.00000  Uiso   1.00
C292   C     0.50076   0.62414   0.24958   0.00000  Uiso   1.00
C293   C     0.65414   0.47422   0.22087   0.00000  Uiso   1.00
C294   C     0.34586   0.52579   0.27912   0.00000  Uiso   1.00
C295   C     0.36874   0.47420   0.22090   0.00000  Uiso   1.00
C296   C     0.63126   0.52579   0.27911   0.00000  Uiso   1.00
C297   C     0.46951   0.49965   0.33801   0.00000  Uiso   1.00
C298   C     0.53052   0.49933   0.16201   0.00000  Uiso   1.00
C299   C     0.45123   0.49327   0.38817   0.00000  Uiso   1.00
C300   C     0.54977   0.49611   0.11143   0.00000  Uiso   1.00
C301   C     0.39450   0.46131   0.45820   0.00000  Uiso   1.00
C302   C     0.61392   0.50569   0.03593   0.00000  Uiso   1.00
C303   C     0.40577   0.47478   0.41261   0.00000  Uiso   1.00
C304   C     0.59843   0.50577   0.08424   0.00000  Uiso   1.00
C305   C     0.48422   0.49947   0.40983   0.00000  Uiso   1.00
C306   C     0.51770   0.48399   0.09032   0.00000  Uiso   1.00
C307   C     0.47572   0.48278   0.45359   0.00000  Uiso   1.00
C308   C     0.53237   0.48334   0.04199   0.00000  Uiso   1.00
C309   C     0.42923   0.46513   0.47887   0.00000  Uiso   1.00
C310   C     0.58094   0.49564   0.01467   0.00000  Uiso   1.00
C311   C     0.51210   0.48399   0.47294   0.00000  Uiso   1.00
C312   C     0.49875   0.47423   0.02053   0.00000  Uiso   1.00
H313   H     0.38316   0.43719   0.04382   0.00000  Uiso   1.00
H314   H     0.63273   0.50748   0.44514   0.00000  Uiso   1.00
H315   H     0.62382   0.51485   0.10025   0.00000  Uiso   1.00
H316   H     0.37991   0.46946   0.39604   0.00000  Uiso   1.00
H317   H     0.64514   0.45360   0.19757   0.00000  Uiso   1.00
H318   H     0.35485   0.54641   0.30241   0.00000  Uiso   1.00
N319   N     0.38093   0.50001   0.25001   0.00000  Uiso   1.00
N320   N     0.61907   0.49999   0.24999   0.00000  Uiso   1.00
O321   O     0.46179   0.56108   0.25001   0.00000  Uiso   1.00
O322   O     0.53821   0.43892   0.25000   0.00000  Uiso   1.00
O323   O     0.53823   0.56107   0.25000   0.00000  Uiso   1.00
O324   O     0.46177   0.43893   0.25000   0.00000  Uiso   1.00
O325   O     0.43994   0.50001   0.31613   0.00000  Uiso   1.00
O326   O     0.56006   0.49999   0.18388   0.00000  Uiso   1.00
O327   O     0.51639   0.50000   0.31612   0.00000  Uiso   1.00
O328   O     0.48361   0.50000   0.18388   0.00000  Uiso   1.00
Zn329  Zn    0.44896   0.50001   0.25000   0.00000  Uiso   1.00
Zn330  Zn    0.55104   0.49999   0.25000   0.00000  Uiso   1.00
H331   H     0.48036   0.47746   0.11241   0.00000  Uiso   1.00
H332   H     0.51711   0.51691   0.39131   0.00000  Uiso   1.00
H333   H     0.35930   0.44687   0.47680   0.00000  Uiso   1.00
H334   H     0.65107   0.51507   0.01531   0.00000  Uiso   1.00
H335   H     0.44139   0.44446   0.07999   0.00000  Uiso   1.00
H336   H     0.57526   0.49716   0.40870   0.00000  Uiso   1.00
O337   O     0.58726   0.62480   0.20092   0.00000  Uiso   1.00
C338   C     0.62214   0.63035   0.22145   0.00000  Uiso   1.00
H339   H     0.65301   0.60871   0.20437   0.00000  Uiso   1.00
H340   H     0.60680   0.62266   0.25924   0.00000  Uiso   1.00
H341   H     0.63713   0.66259   0.21598   0.00000  Uiso   1.00
O342   O     0.41261   0.37464   0.29956   0.00000  Uiso   1.00
C343   C     0.40738   0.37866   0.34646   0.00000  Uiso   1.00
H344   H     0.37279   0.39540   0.36570   0.00000  Uiso   1.00
H345   H     0.43778   0.39733   0.34975   0.00000  Uiso   1.00
H346   H     0.40501   0.34760   0.36313   0.00000  Uiso   1.00
H347   H     0.57627   0.37280   0.20757   0.00000  Uiso   1.00
H348   H     0.42327   0.62750   0.29154   0.00000  Uiso   1.00
H349   H     0.39602   0.45356   0.19762   0.00000  Uiso   1.00
H350   H     0.60397   0.54642   0.30239   0.00000  Uiso   1.00
C351   C     0.83371   0.57999   0.24943   0.00000  Uiso   1.00
C352   C     0.83303   0.42004   0.25051   0.00000  Uiso   1.00
C353   C     0.78549   0.45628   0.04503   0.00000  Uiso   1.00
C354   C     0.89484   0.49400   0.44606   0.00000  Uiso   1.00
C355   C     0.75165   0.45128   0.02415   0.00000  Uiso   1.00
C356   C     0.92880   0.49909   0.46667   0.00000  Uiso   1.00
C357   C     0.87808   0.64579   0.22710   0.00000  Uiso   1.00
C358   C     0.78940   0.35420   0.27559   0.00000  Uiso   1.00
C359   C     0.87671   0.35545   0.22715   0.00000  Uiso   1.00
C360   C     0.79013   0.64467   0.27358   0.00000  Uiso   1.00
C361   C     0.83278   0.37594   0.25120   0.00000  Uiso   1.00
C362   C     0.83410   0.62414   0.24958   0.00000  Uiso   1.00
C363   C     0.98747   0.47422   0.22087   0.00000  Uiso   1.00
C364   C     0.67919   0.52579   0.27912   0.00000  Uiso   1.00
C365   C     0.70207   0.47420   0.22090   0.00000  Uiso   1.00
C366   C     0.96459   0.52579   0.27911   0.00000  Uiso   1.00
C367   C     0.80284   0.49965   0.33801   0.00000  Uiso   1.00
C368   C     0.86385   0.49933   0.16201   0.00000  Uiso   1.00
C369   C     0.78456   0.49327   0.38817   0.00000  Uiso   1.00
C370   C     0.88311   0.49611   0.11143   0.00000  Uiso   1.00
C371   C     0.72783   0.46131   0.45820   0.00000  Uiso   1.00
C372   C     0.94726   0.50569   0.03593   0.00000  Uiso   1.00
C373   C     0.73910   0.47478   0.41261   0.00000  Uiso   1.00
C374   C     0.93177   0.50577   0.08424   0.00000  Uiso   1.00
C375   C     0.81755   0.49947   0.40983   0.00000  Uiso   1.00
C376   C     0.85104   0.48399   0.09032   0.00000  Uiso   1.00
C377   C     0.80906   0.48278   0.45359   0.00000  Uiso   1.00
C378   C     0.86570   0.48334   0.04199   0.00000  Uiso   1.00
C379   C     0.76256   0.46513   0.47887   0.00000  Uiso   1.00
C380   C     0.91427   0.49564   0.01467   0.00000  Uiso   1.00
C381   C     0.84543   0.48399   0.47294   0.00000  Uiso   1.00
C382   C     0.83209   0.47423   0.02053   0.00000  Uiso   1.00
H383   H     0.71649   0.43719   0.04382   0.00000  Uiso   1.00
H384   H     0.96606   0.50748   0.44514   0.00000  Uiso   1.00
H385   H     0.95716   0.51485   0.10025   0.00000  Uiso   1.00
H386   H     0.71325   0.46946   0.39604   0.00000  Uiso   1.00
H387   H     0.97847   0.45360   0.19757   0.00000  Uiso   1.00
H388   H     0.68819   0.54641   0.30241   0.00000  Uiso   1.00
N389   N     0.71426   0.50001   0.25001   0.00000  Uiso   1.00
N390   N     0.95241   0.49999   0.24999   0.00000  Uiso   1.00
O391   O     0.79512   0.56108   0.25001   0.00000  Uiso   1.00
O392   O     0.87154   0.43892   0.25000   0.00000  Uiso   1.00
O393   O     0.87157   0.56107   0.25000   0.00000  Uiso   1.00
O394   O     0.79510   0.43893   0.25000   0.00000  Uiso   1.00
O395   O     0.77328   0.50001   0.31613   0.00000  Uiso   1.00
O396   O     0.89339   0.49999   0.18388   0.00000  Uiso   1.00
O397   O     0.84972   0.50000   0.31612   0.00000  Uiso   1.00
O398   O     0.81695   0.50000   0.18388   0.00000  Uiso   1.00
Zn399  Zn    0.78229   0.50001   0.25000   0.00000  Uiso   1.00
Zn400  Zn    0.88438   0.49999   0.25000   0.00000  Uiso   1.00
H401   H     0.81369   0.47746   0.11241   0.00000  Uiso   1.00
H402   H     0.85045   0.51691   0.39131   0.00000  Uiso   1.00
H403   H     0.69263   0.44687   0.47680   0.00000  Uiso   1.00
H404   H     0.98440   0.51507   0.01531   0.00000  Uiso   1.00
H405   H     0.77473   0.44446   0.07999   0.00000  Uiso   1.00
H406   H     0.90859   0.49716   0.40870   0.00000  Uiso   1.00
O407   O     0.92059   0.62480   0.20092   0.00000  Uiso   1.00
C408   C     0.95547   0.63035   0.22145   0.00000  Uiso   1.00
H409   H     0.98635   0.60871   0.20437   0.00000  Uiso   1.00
H410   H     0.94013   0.62266   0.25924   0.00000  Uiso   1.00
H411   H     0.97046   0.66259   0.21598   0.00000  Uiso   1.00
O412   O     0.74595   0.37464   0.29956   0.00000  Uiso   1.00
C413   C     0.74072   0.37866   0.34646   0.00000  Uiso   1.00
H414   H     0.70612   0.39540   0.36570   0.00000  Uiso   1.00
H415   H     0.77111   0.39733   0.34975   0.00000  Uiso   1.00
H416   H     0.73834   0.34760   0.36313   0.00000  Uiso   1.00
H417   H     0.90960   0.37280   0.20757   0.00000  Uiso   1.00
H418   H     0.75660   0.62750   0.29154   0.00000  Uiso   1.00
H419   H     0.72936   0.45356   0.19762   0.00000  Uiso   1.00
H420   H     0.93730   0.54642   0.30239   0.00000  Uiso   1.00
C421   C     0.16705   0.91332   0.24943   0.00000  Uiso   1.00
C422   C     0.16636   0.75337   0.25051   0.00000  Uiso   1.00
C423   C     0.11883   0.78961   0.04503   0.00000  Uiso   1.00
C424   C     0.22818   0.82733   0.44606   0.00000  Uiso   1.00
C425   C     0.08498   0.78461   0.02415   0.00000  Uiso   1.00
C426   C     0.26213   0.83242   0.46667   0.00000  Uiso   1.00
C427   C     0.21142   0.97912   0.22710   0.00000  Uiso   1.00
C428   C     0.12274   0.68753   0.27559   0.00000  Uiso   1.00
C429   C     0.21005   0.68878   0.22715   0.00000  Uiso   1.00
C430   C     0.12347   0.97800   0.27358   0.00000  Uiso   1.00
C431   C     0.16611   0.70927   0.25120   0.00000  Uiso   1.00
C432   C     0.16743   0.95748   0.24958   0.00000  Uiso   1.00
C433   C     0.32081   0.80755   0.22087   0.00000  Uiso   1.00
C434   C     0.01252   0.85912   0.27912   0.00000  Uiso   1.00
C435   C     0.03540   0.80754   0.22090   0.00000  Uiso   1.00
C436   C     0.29792   0.85912   0.27911   0.00000  Uiso   1.00
C437   C     0.13618   0.83298   0.33801   0.00000  Uiso   1.00
C438   C     0.19718   0.83266   0.16201   0.00000  Uiso   1.00
C439   C     0.11789   0.82660   0.38817   0.00000  Uiso   1.00
C440   C     0.21644   0.82945   0.11143   0.00000  Uiso   1.00
C441   C     0.06117   0.79464   0.45820   0.00000  Uiso   1.00
C442   C     0.28059   0.83902   0.03593   0.00000  Uiso   1.00
C443   C     0.07244   0.80811   0.41261   0.00000  Uiso   1.00
C444   C     0.26510   0.83910   0.08424   0.00000  Uiso   1.00
C445   C     0.15089   0.83280   0.40983   0.00000  Uiso   1.00
C446   C     0.18437   0.81732   0.09032   0.00000  Uiso   1.00
C447   C     0.14239   0.81611   0.45359   0.00000  Uiso   1.00
C448   C     0.19904   0.81667   0.04199   0.00000  Uiso   1.00
C449   C     0.09590   0.79846   0.47887   0.00000  Uiso   1.00
C450   C     0.24761   0.82898   0.01467   0.00000  Uiso   1.00
C451   C     0.17877   0.81733   0.47294   0.00000  Uiso   1.00
C452   C     0.16542   0.80757   0.02053   0.00000  Uiso   1.00
H453   H     0.04983   0.77053   0.04382   0.00000  Uiso   1.00
H454   H     0.29939   0.84082   0.44514   0.00000  Uiso   1.00
H455   H     0.29049   0.84818   0.10025   0.00000  Uiso   1.00
H456   H     0.04658   0.80280   0.39604   0.00000  Uiso   1.00
H457   H     0.31181   0.78694   0.19757   0.00000  Uiso   1.00
H458   H     0.02152   0.87974   0.30241   0.00000  Uiso   1.00
N459   N     0.04759   0.83334   0.25001   0.00000  Uiso   1.00
N460   N     0.28574   0.83332   0.24999   0.00000  Uiso   1.00
O461   O     0.12846   0.89442   0.25001   0.00000  Uiso   1.00
O462   O     0.20488   0.77225   0.25000   0.00000  Uiso   1.00
O463   O     0.20490   0.89441   0.25000   0.00000  Uiso   1.00
O464   O     0.12843   0.77226   0.25000   0.00000  Uiso   1.00
O465   O     0.10661   0.83334   0.31613   0.00000  Uiso   1.00
O466   O     0.22672   0.83333   0.18388   0.00000  Uiso   1.00
O467   O     0.18305   0.83333   0.31612   0.00000  Uiso   1.00
O468   O     0.15028   0.83334   0.18388   0.00000  Uiso   1.00
Zn469  Zn    0.11562   0.83334   0.25000   0.00000  Uiso   1.00
Zn470  Zn    0.21771   0.83333   0.25000   0.00000  Uiso   1.00
H471   H     0.14702   0.81079   0.11241   0.00000  Uiso   1.00
H472   H     0.18378   0.85024   0.39131   0.00000  Uiso   1.00
H473   H     0.02597   0.78021   0.47680   0.00000  Uiso   1.00
H474   H     0.31774   0.84840   0.01531   0.00000  Uiso   1.00
H475   H     0.10806   0.77779   0.07999   0.00000  Uiso   1.00
H476   H     0.24192   0.83049   0.40870   0.00000  Uiso   1.00
O477   O     0.25393   0.95813   0.20092   0.00000  Uiso   1.00
C478   C     0.28880   0.96368   0.22145   0.00000  Uiso   1.00
H479   H     0.31968   0.94205   0.20437   0.00000  Uiso   1.00
H480   H     0.27347   0.95599   0.25924   0.00000  Uiso   1.00
H481   H     0.30380   0.99593   0.21598   0.00000  Uiso   1.00
O482   O     0.07928   0.70797   0.29956   0.00000  Uiso   1.00
C483   C     0.07405   0.71199   0.34646   0.00000  Uiso   1.00
H484   H     0.03946   0.72874   0.36570   0.00000  Uiso   1.00
H485   H     0.10445   0.73066   0.34975   0.00000  Uiso   1.00
H486   H     0.07167   0.68094   0.36313   0.00000  Uiso   1.00
H487   H     0.24293   0.70614   0.20757   0.00000  Uiso   1.00
H488   H     0.08993   0.96084   0.29154   0.00000  Uiso   1.00
H489   H     0.06269   0.78689   0.19762   0.00000  Uiso   1.00
H490   H     0.27063   0.87976   0.30239   0.00000  Uiso   1.00
C491   C     0.50038   0.91332   0.24943   0.00000  Uiso   1.00
C492   C     0.49970   0.75337   0.25051   0.00000  Uiso   1.00
C493   C     0.45216   0.78961   0.04503   0.00000  Uiso   1.00
C494   C     0.56151   0.82733   0.44606   0.00000  Uiso   1.00
C495   C     0.41832   0.78461   0.02415   0.00000  Uiso   1.00
C496   C     0.59546   0.83242   0.46667   0.00000  Uiso   1.00
C497   C     0.54475   0.97912   0.22710   0.00000  Uiso   1.00
C498   C     0.45607   0.68753   0.27559   0.00000  Uiso   1.00
C499   C     0.54338   0.68878   0.22715   0.00000  Uiso   1.00
C500   C     0.45680   0.97800   0.27358   0.00000  Uiso   1.00
C501   C     0.49944   0.70927   0.25120   0.00000  Uiso   1.00
C502   C     0.50076   0.95748   0.24958   0.00000  Uiso   1.00
C503   C     0.65414   0.80755   0.22087   0.00000  Uiso   1.00
C504   C     0.34586   0.85912   0.27912   0.00000  Uiso   1.00
C505   C     0.36874   0.80754   0.22090   0.00000  Uiso   1.00
C506   C     0.63126   0.85912   0.27911   0.00000  Uiso   1.00
C507   C     0.46951   0.83298   0.33801   0.00000  Uiso   1.00
C508   C     0.53052   0.83266   0.16201   0.00000  Uiso   1.00
C509   C     0.45123   0.82660   0.38817   0.00000  Uiso   1.00
C510   C     0.54977   0.82945   0.11143   0.00000  Uiso   1.00
C511   C     0.39450   0.79464   0.45820   0.00000  Uiso   1.00
C512   C     0.61392   0.83902   0.03593   0.00000  Uiso   1.00
C513   C     0.40577   0.80811   0.41261   0.00000  Uiso   1.00
C514   C     0.59843   0.83910   0.08424   0.00000  Uiso   1.00
C515   C     0.48422   0.83280   0.40983   0.00000  Uiso   1.00
C516   C     0.51770   0.81732   0.09032   0.00000  Uiso   1.00
C517   C     0.47572   0.81611   0.45359   0.00000  Uiso   1.00
C518   C     0.53237   0.81667   0.04199   0.00000  Uiso   1.00
C519   C     0.42923   0.79846   0.47887   0.00000  Uiso   1.00
C520   C     0.58094   0.82898   0.01467   0.00000  Uiso   1.00
C521   C     0.51210   0.81733   0.47294   0.00000  Uiso   1.00
C522   C     0.49875   0.80757   0.02053   0.00000  Uiso   1.00
H523   H     0.38316   0.77053   0.04382   0.00000  Uiso   1.00
H524   H     0.63273   0.84082   0.44514   0.00000  Uiso   1.00
H525   H     0.62382   0.84818   0.10025   0.00000  Uiso   1.00
H526   H     0.37991   0.80280   0.39604   0.00000  Uiso   1.00
H527   H     0.64514   0.78694   0.19757   0.00000  Uiso   1.00
H528   H     0.35485   0.87974   0.30241   0.00000  Uiso   1.00
N529   N     0.38093   0.83334   0.25001   0.00000  Uiso   1.00
N530   N     0.61907   0.83332   0.24999   0.00000  Uiso   1.00
O531   O     0.46179   0.89442   0.25001   0.00000  Uiso   1.00
O532   O     0.53821   0.77225   0.25000   0.00000  Uiso   1.00
O533   O     0.53823   0.89441   0.25000   0.00000  Uiso   1.00
O534   O     0.46177   0.77226   0.25000   0.00000  Uiso   1.00
O535   O     0.43994   0.83334   0.31613   0.00000  Uiso   1.00
O536   O     0.56006   0.83333   0.18388   0.00000  Uiso   1.00
O537   O     0.51639   0.83333   0.31612   0.00000  Uiso   1.00
O538   O     0.48361   0.83334   0.18388   0.00000  Uiso   1.00
Zn539  Zn    0.44896   0.83334   0.25000   0.00000  Uiso   1.00
Zn540  Zn    0.55104   0.83333   0.25000   0.00000  Uiso   1.00
H541   H     0.48036   0.81079   0.11241   0.00000  Uiso   1.00
H542   H     0.51711   0.85024   0.39131   0.00000  Uiso   1.00
H543   H     0.35930   0.78021   0.47680   0.00000  Uiso   1.00
H544   H     0.65107   0.84840   0.01531   0.00000  Uiso   1.00
H545   H     0.44139   0.77779   0.07999   0.00000  Uiso   1.00
H546   H     0.57526   0.83049   0.40870   0.00000  Uiso   1.00
O547   O     0.58726   0.95813   0.20092   0.00000  Uiso   1.00
C548   C     0.62214   0.96368   0.22145   0.00000  Uiso   1.00
H549   H     0.65301   0.94205   0.20437   0.00000  Uiso   1.00
H550   H     0.60680   0.95599   0.25924   0.00000  Uiso   1.00
H551   H     0.63713   0.99593   0.21598   0.00000  Uiso   1.00
O552   O     0.41261   0.70797   0.29956   0.00000  Uiso   1.00
C553   C     0.40738   0.71199   0.34646   0.00000  Uiso   1.00
H554   H     0.37279   0.72874   0.36570   0.00000  Uiso   1.00
H555   H     0.43778   0.73066   0.34975   0.00000  Uiso   1.00
H556   H     0.40501   0.68094   0.36313   0.00000  Uiso   1.00
H557   H     0.57627   0.70614   0.20757   0.00000  Uiso   1.00
H558   H     0.42327   0.96084   0.29154   0.00000  Uiso   1.00
H559   H     0.39602   0.78689   0.19762   0.00000  Uiso   1.00
H560   H     0.60397   0.87976   0.30239   0.00000  Uiso   1.00
C561   C     0.83371   0.91332   0.24943   0.00000  Uiso   1.00
C562   C     0.83303   0.75337   0.25051   0.00000  Uiso   1.00
C563   C     0.78549   0.78961   0.04503   0.00000  Uiso   1.00
C564   C     0.89484   0.82733   0.44606   0.00000  Uiso   1.00
C565   C     0.75165   0.78461   0.02415   0.00000  Uiso   1.00
C566   C     0.92880   0.83242   0.46667   0.00000  Uiso   1.00
C567   C     0.87808   0.97912   0.22710   0.00000  Uiso   1.00
C568   C     0.78940   0.68753   0.27559   0.00000  Uiso   1.00
C569   C     0.87671   0.68878   0.22715   0.00000  Uiso   1.00
C570   C     0.79013   0.97800   0.27358   0.00000  Uiso   1.00
C571   C     0.83278   0.70927   0.25120   0.00000  Uiso   1.00
C572   C     0.83410   0.95748   0.24958   0.00000  Uiso   1.00
C573   C     0.98747   0.80755   0.22087   0.00000  Uiso   1.00
C574   C     0.67919   0.85912   0.27912   0.00000  Uiso   1.00
C575   C     0.70207   0.80754   0.22090   0.00000  Uiso   1.00
C576   C     0.96459   0.85912   0.27911   0.00000  Uiso   1.00
C577   C     0.80284   0.83298   0.33801   0.00000  Uiso   1.00
C578   C     0.86385   0.83266   0.16201   0.00000  Uiso   1.00
C579   C     0.78456   0.82660   0.38817   0.00000  Uiso   1.00
C580   C     0.88311   0.82945   0.11143   0.00000  Uiso   1.00
C581   C     0.72783   0.79464   0.45820   0.00000  Uiso   1.00
C582   C     0.94726   0.83902   0.03593   0.00000  Uiso   1.00
C583   C     0.73910   0.80811   0.41261   0.00000  Uiso   1.00
C584   C     0.93177   0.83910   0.08424   0.00000  Uiso   1.00
C585   C     0.81755   0.83280   0.40983   0.00000  Uiso   1.00
C586   C     0.85104   0.81732   0.09032   0.00000  Uiso   1.00
C587   C     0.80906   0.81611   0.45359   0.00000  Uiso   1.00
C588   C     0.86570   0.81667   0.04199   0.00000  Uiso   1.00
C589   C     0.76256   0.79846   0.47887   0.00000  Uiso   1.00
C590   C     0.91427   0.82898   0.01467   0.00000  Uiso   1.00
C591   C     0.84543   0.81733   0.47294   0.00000  Uiso   1.00
C592   C     0.83209   0.80757   0.02053   0.00000  Uiso   1.00
H593   H     0.71649   0.77053   0.04382   0.00000  Uiso   1.00
H594   H     0.96606   0.84082   0.44514   0.00000  Uiso   1.00
H595   H     0.95716   0.84818   0.10025   0.00000  Uiso   1.00
H596   H     0.71325   0.80280   0.39604   0.00000  Uiso   1.00
H597   H     0.97847   0.78694   0.19757   0.00000  Uiso   1.00
H598   H     0.68819   0.87974   0.30241   0.00000  Uiso   1.00
N599   N     0.71426   0.83334   0.25001   0.00000  Uiso   1.00
N600   N     0.95241   0.83332   0.24999   0.00000  Uiso   1.00
O601   O     0.79512   0.89442   0.25001   0.00000  Uiso   1.00
O602   O     0.87154   0.77225   0.25000   0.00000  Uiso   1.00
O603   O     0.87157   0.89441   0.25000   0.00000  Uiso   1.00
O604   O     0.79510   0.77226   0.25000   0.00000  Uiso   1.00
O605   O     0.77328   0.83334   0.31613   0.00000  Uiso   1.00
O606   O     0.89339   0.83333   0.18388   0.00000  Uiso   1.00
O607   O     0.84972   0.83333   0.31612   0.00000  Uiso   1.00
O608   O     0.81695   0.83334   0.18388   0.00000  Uiso   1.00
Zn609  Zn    0.78229   0.83334   0.25000   0.00000  Uiso   1.00
Zn610  Zn    0.88438   0.83333   0.25000   0.00000  Uiso   1.00
H611   H     0.81369   0.81079   0.11241   0.00000  Uiso   1.00
H612   H     0.85045   0.85024   0.39131   0.00000  Uiso   1.00
H613   H     0.69263   0.78021   0.47680   0.00000  Uiso   1.00
H614   H     0.98440   0.84840   0.01531   0.00000  Uiso   1.00
H615   H     0.77473   0.77779   0.07999   0.00000  Uiso   1.00
H616   H     0.90859   0.83049   0.40870   0.00000  Uiso   1.00
O617   O     0.92059   0.95813   0.20092   0.00000  Uiso   1.00
C618   C     0.95547   0.96368   0.22145   0.00000  Uiso   1.00
H619   H     0.98635   0.94205   0.20437   0.00000  Uiso   1.00
H620   H     0.94013   0.95599   0.25924   0.00000  Uiso   1.00
H621   H     0.97046   0.99593   0.21598   0.00000  Uiso   1.00
O622   O     0.74595   0.70797   0.29956   0.00000  Uiso   1.00
C623   C     0.74072   0.71199   0.34646   0.00000  Uiso   1.00
H624   H     0.70612   0.72874   0.36570   0.00000  Uiso   1.00
H625   H     0.77111   0.73066   0.34975   0.00000  Uiso   1.00
H626   H     0.73834   0.68094   0.36313   0.00000  Uiso   1.00
H627   H     0.90960   0.70614   0.20757   0.00000  Uiso   1.00
H628   H     0.75660   0.96084   0.29154   0.00000  Uiso   1.00
H629   H     0.72936   0.78689   0.19762   0.00000  Uiso   1.00
H630   H     0.93730   0.87976   0.30239   0.00000  Uiso   1.00
C631   C     0.16705   0.24665   0.74943   0.00000  Uiso   1.00
C632   C     0.16636   0.08671   0.75051   0.00000  Uiso   1.00
C633   C     0.11883   0.12294   0.54503   0.00000  Uiso   1.00
C634   C     0.22818   0.16066   0.94606   0.00000  Uiso   1.00
C635   C     0.08498   0.11795   0.52415   0.00000  Uiso   1.00
C636   C     0.26213   0.16575   0.96667   0.00000  Uiso   1.00
C637   C     0.21142   0.31246   0.72710   0.00000  Uiso   1.00
C638   C     0.12274   0.02087   0.77559   0.00000  Uiso   1.00
C639   C     0.21005   0.02212   0.72715   0.00000  Uiso   1.00
C640   C     0.12347   0.31134   0.77358   0.00000  Uiso   1.00
C641   C     0.16611   0.04261   0.75120   0.00000  Uiso   1.00
C642   C     0.16743   0.29081   0.74958   0.00000  Uiso   1.00
C643   C     0.32081   0.14088   0.72087   0.00000  Uiso   1.00
C644   C     0.01252   0.19246   0.77912   0.00000  Uiso   1.00
C645   C     0.03540   0.14087   0.72090   0.00000  Uiso   1.00
C646   C     0.29792   0.19245   0.77911   0.00000  Uiso   1.00
C647   C     0.13618   0.16631   0.83801   0.00000  Uiso   1.00
C648   C     0.19718   0.16600   0.66201   0.00000  Uiso   1.00
C649   C     0.11789   0.15993   0.88817   0.00000  Uiso   1.00
C650   C     0.21644   0.16278   0.61143   0.00000  Uiso   1.00
C651   C     0.06117   0.12798   0.95820   0.00000  Uiso   1.00
C652   C     0.28059   0.17236   0.53593   0.00000  Uiso   1.00
C653   C     0.07244   0.14145   0.91261   0.00000  Uiso   1.00
C654   C     0.26510   0.17244   0.58424   0.00000  Uiso   1.00
C655   C     0.15089   0.16613   0.90983   0.00000  Uiso   1.00
C656   C     0.18437   0.15066   0.59032   0.00000  Uiso   1.00
C657   C     0.14239   0.14944   0.95359   0.00000  Uiso   1.00
C658   C     0.19904   0.15001   0.54199   0.00000  Uiso   1.00
C659   C     0.09590   0.13179   0.97887   0.00000  Uiso   1.00
C660   C     0.24761   0.16231   0.51467   0.00000  Uiso   1.00
C661   C     0.17877   0.15066   0.97294   0.00000  Uiso   1.00
C662   C     0.16542   0.14090   0.52053   0.00000  Uiso   1.00
H663   H     0.04983   0.10386   0.54382   0.00000  Uiso   1.00
H664   H     0.29939   0.17415   0.94514   0.00000  Uiso   1.00
H665   H     0.29049   0.18151   0.60025   0.00000  Uiso   1.00
H666   H     0.04658   0.13613   0.89604   0.00000  Uiso   1.00
H667   H     0.31181   0.12027   0.69757   0.00000  Uiso   1.00
H668   H     0.02152   0.21308   0.80241   0.00000  Uiso   1.00
N669   N     0.04759   0.16668   0.75001   0.00000  Uiso   1.00
N670   N     0.28574   0.16666   0.74999   0.00000  Uiso   1.00
O671   O     0.12846   0.22775   0.75001   0.00000  Uiso   1.00
O672   O     0.20488   0.10558   0.75000   0.00000  Uiso   1.00
O673   O     0.20490   0.22774   0.75000   0.00000  Uiso   1.00
O674   O     0.12843   0.10559   0.75000   0.00000  Uiso   1.00
O675   O     0.10661   0.16667   0.81613   0.00000  Uiso   1.00
O676   O     0.22672   0.16666   0.68388   0.00000  Uiso   1.00
O677   O     0.18305   0.16666   0.81612   0.00000  Uiso   1.00
O678   O     0.15028   0.16667   0.68388   0.00000  Uiso   1.00
Zn679  Zn    0.11562   0.16667   0.75000   0.00000  Uiso   1.00
Zn680  Zn    0.21771   0.16666   0.75000   0.00000  Uiso   1.00
H681   H     0.14702   0.14413   0.61241   0.00000  Uiso   1.00
H682   H     0.18378   0.18357   0.89131   0.00000  Uiso   1.00
H683   H     0.02597   0.11354   0.97680   0.00000  Uiso   1.00
H684   H     0.31774   0.18173   0.51531   0.00000  Uiso   1.00
H685   H     0.10806   0.11112   0.57999   0.00000  Uiso   1.00
H686   H     0.24192   0.16382   0.90870   0.00000  Uiso   1.00
O687   O     0.25393   0.29146   0.70092   0.00000  Uiso   1.00
C688   C     0.28880   0.29701   0.72145   0.00000  Uiso   1.00
H689   H     0.31968   0.27538   0.70437   0.00000  Uiso   1.00
H690   H     0.27347   0.28933   0.75924   0.00000  Uiso   1.00
H691   H     0.30380   0.32926   0.71598   0.00000  Uiso   1.00
O692   O     0.07928   0.04131   0.79956   0.00000  Uiso   1.00
C693   C     0.07405   0.04532   0.84646   0.00000  Uiso   1.00
H694   H     0.03946   0.06207   0.86570   0.00000  Uiso   1.00
H695   H     0.10445   0.06399   0.84975   0.00000  Uiso   1.00
H696   H     0.07167   0.01427   0.86313   0.00000  Uiso   1.00
H697   H     0.24293   0.03947   0.70757   0.00000  Uiso   1.00
H698   H     0.08993   0.29417   0.79154   0.00000  Uiso   1.00
H699   H     0.06269   0.12023   0.69762   0.00000  Uiso   1.00
H700   H     0.27063   0.21309   0.80239   0.00000  Uiso   1.00
C701   C     0.50038   0.24665   0.74943   0.00000  Uiso   1.00
C702   C     0.49970   0.08671   0.75051   0.00000  Uiso   1.00
C703   C     0.45216   0.12294   0.54503   0.00000  Uiso   1.00
C704   C     0.56151   0.16066   0.94606   0.00000  Uiso   1.00
C705   C     0.41832   0.11795   0.52415   0.00000  Uiso   1.00
C706   C     0.59546   0.16575   0.96667   0.00000  Uiso   1.00
C707   C     0.54475   0.31246   0.72710   0.00000  Uiso   1.00
C708   C     0.45607   0.02087   0.77559   0.00000  Uiso   1.00
C709   C     0.54338   0.02212   0.72715   0.00000  Uiso   1.00
C710   C     0.45680   0.31134   0.77358   0.00000  Uiso   1.00
C711   C     0.49944   0.04261   0.75120   0.00000  Uiso   1.00
C712   C     0.50076   0.29081   0.74958   0.00000  Uiso   1.00
C713   C     0.65414   0.14088   0.72087   0.00000  Uiso   1.00
C714   C     0.34586   0.19246   0.77912   0.00000  Uiso   1.00
C715   C     0.36874   0.14087   0.72090   0.00000  Uiso   1.00
C716   C     0.63126   0.19245   0.77911   0.00000  Uiso   1.00
C717   C     0.46951   0.16631   0.83801   0.00000  Uiso   1.00
C718   C     0.53052   0.16600   0.66201   0.00000  Uiso   1.00
C719   C     0.45123   0.15993   0.88817   0.00000  Uiso   1.00
C720   C     0.54977   0.16278   0.61143   0.00000  Uiso   1.00
C721   C     0.39450   0.12798   0.95820   0.00000  Uiso   1.00
C722   C     0.61392   0.17236   0.53593   0.00000  Uiso   1.00
C723   C     0.40577   0.14145   0.91261   0.00000  Uiso   1.00
C724   C     0.59843   0.17244   0.58424   0.00000  Uiso   1.00
C725   C     0.48422   0.16613   0.90983   0.00000  Uiso   1.00
C726   C     0.51770   0.15066   0.59032   0.00000  Uiso   1.00
C727   C     0.47572   0.14944   0.95359   0.00000  Uiso   1.00
C728   C     0.53237   0.15001   0.54199   0.00000  Uiso   1.00
C729   C     0.42923   0.13179   0.97887   0.00000  Uiso   1.00
C730   C     0.58094   0.16231   0.51467   0.00000  Uiso   1.00
C731   C     0.51210   0.15066   0.97294   0.00000  Uiso   1.00
C732   C     0.49875   0.14090   0.52053   0.00000  Uiso   1.00
H733   H     0.38316   0.10386   0.54382   0.00000  Uiso   1.00
H734   H     0.63273   0.17415   0.94514   0.00000  Uiso   1.00
H735   H     0.62382   0.18151   0.60025   0.00000  Uiso   1.00
H736   H     0.37991   0.13613   0.89604   0.00000  Uiso   1.00
H737   H     0.64514   0.12027   0.69757   0.00000  Uiso   1.00
H738   H     0.35485   0.21308   0.80241   0.00000  Uiso   1.00
N739   N     0.38093   0.16668   0.75001   0.00000  Uiso   1.00
N740   N     0.61907   0.16666   0.74999   0.00000  Uiso   1.00
O741   O     0.46179   0.22775   0.75001   0.00000  Uiso   1.00
O742   O     0.53821   0.10558   0.75000   0.00000  Uiso   1.00
O743   O     0.53823   0.22774   0.75000   0.00000  Uiso   1.00
O744   O     0.46177   0.10559   0.75000   0.00000  Uiso   1.00
O745   O     0.43994   0.16667   0.81613   0.00000  Uiso   1.00
O746   O     0.56006   0.16666   0.68388   0.00000  Uiso   1.00
O747   O     0.51639   0.16666   0.81612   0.00000  Uiso   1.00
O748   O     0.48361   0.16667   0.68388   0.00000  Uiso   1.00
Zn749  Zn    0.44896   0.16667   0.75000   0.00000  Uiso   1.00
Zn750  Zn    0.55104   0.16666   0.75000   0.00000  Uiso   1.00
H751   H     0.48036   0.14413   0.61241   0.00000  Uiso   1.00
H752   H     0.51711   0.18357   0.89131   0.00000  Uiso   1.00
H753   H     0.35930   0.11354   0.97680   0.00000  Uiso   1.00
H754   H     0.65107   0.18173   0.51531   0.00000  Uiso   1.00
H755   H     0.44139   0.11112   0.57999   0.00000  Uiso   1.00
H756   H     0.57526   0.16382   0.90870   0.00000  Uiso   1.00
O757   O     0.58726   0.29146   0.70092   0.00000  Uiso   1.00
C758   C     0.62214   0.29701   0.72145   0.00000  Uiso   1.00
H759   H     0.65301   0.27538   0.70437   0.00000  Uiso   1.00
H760   H     0.60680   0.28933   0.75924   0.00000  Uiso   1.00
H761   H     0.63713   0.32926   0.71598   0.00000  Uiso   1.00
O762   O     0.41261   0.04131   0.79956   0.00000  Uiso   1.00
C763   C     0.40738   0.04532   0.84646   0.00000  Uiso   1.00
H764   H     0.37279   0.06207   0.86570   0.00000  Uiso   1.00
H765   H     0.43778   0.06399   0.84975   0.00000  Uiso   1.00
H766   H     0.40501   0.01427   0.86313   0.00000  Uiso   1.00
H767   H     0.57627   0.03947   0.70757   0.00000  Uiso   1.00
H768   H     0.42327   0.29417   0.79154   0.00000  Uiso   1.00
H769   H     0.39602   0.12023   0.69762   0.00000  Uiso   1.00
H770   H     0.60397   0.21309   0.80239   0.00000  Uiso   1.00
C771   C     0.83371   0.24665   0.74943   0.00000  Uiso   1.00
C772   C     0.83303   0.08671   0.75051   0.00000  Uiso   1.00
C773   C     0.78549   0.12294   0.54503   0.00000  Uiso   1.00
C774   C     0.89484   0.16066   0.94606   0.00000  Uiso   1.00
C775   C     0.75165   0.11795   0.52415   0.00000  Uiso   1.00
C776   C     0.92880   0.16575   0.96667   0.00000  Uiso   1.00
C777   C     0.87808   0.31246   0.72710   0.00000  Uiso   1.00
C778   C     0.78940   0.02087   0.77559   0.00000  Uiso   1.00
C779   C     0.87671   0.02212   0.72715   0.00000  Uiso   1.00
C780   C     0.79013   0.31134   0.77358   0.00000  Uiso   1.00
C781   C     0.83278   0.04261   0.75120   0.00000  Uiso   1.00
C782   C     0.83410   0.29081   0.74958   0.00000  Uiso   1.00
C783   C     0.98747   0.14088   0.72087   0.00000  Uiso   1.00
C784   C     0.67919   0.19246   0.77912   0.00000  Uiso   1.00
C785   C     0.70207   0.14087   0.72090   0.00000  Uiso   1.00
C786   C     0.96459   0.19245   0.77911   0.00000  Uiso   1.00
C787   C     0.80284   0.16631   0.83801   0.00000  Uiso   1.00
C788   C     0.86385   0.16600   0.66201   0.00000  Uiso   1.00
C789   C     0.78456   0.15993   0.88817   0.00000  Uiso   1.00
C790   C     0.88311   0.16278   0.61143   0.00000  Uiso   1.00
C791   C     0.72783   0.12798   0.95820   0.00000  Uiso   1.00
C792   C     0.94726   0.17236   0.53593   0.00000  Uiso   1.00
C793   C     0.73910   0.14145   0.91261   0.00000  Uiso   1.00
C794   C     0.93177   0.17244   0.58424   0.00000  Uiso   1.00
C795   C     0.81755   0.16613   0.90983   0.00000  Uiso   1.00
C796   C     0.85104   0.15066   0.59032   0.00000  Uiso   1.00
C797   C     0.80906   0.14944   0.95359   0.00000  Uiso   1.00
C798   C     0.86570   0.15001   0.54199   0.00000  Uiso   1.00
C799   C     0.76256   0.13179   0.97887   0.00000  Uiso   1.00
C800   C     0.91427   0.16231   0.51467   0.00000  Uiso   1.00
C801   C     0.84543   0.15066   0.97294   0.00000  Uiso   1.00
C802   C     0.83209   0.14090   0.52053   0.00000  Uiso   1.00
H803   H     0.71649   0.10386   0.54382   0.00000  Uiso   1.00
H804   H     0.96606   0.17415   0.94514   0.00000  Uiso   1.00
H805   H     0.95716   0.18151   0.60025   0.00000  Uiso   1.00
H806   H     0.71325   0.13613   0.89604   0.00000  Uiso   1.00
H807   H     0.97847   0.12027   0.69757   0.00000  Uiso   1.00
H808   H     0.68819   0.21308   0.80241   0.00000  Uiso   1.00
N809   N     0.71426   0.16668   0.75001   0.00000  Uiso   1.00
N810   N     0.95241   0.16666   0.74999   0.00000  Uiso   1.00
O811   O     0.79512   0.22775   0.75001   0.00000  Uiso   1.00
O812   O     0.87154   0.10558   0.75000   0.00000  Uiso   1.00
O813   O     0.87157   0.22774   0.75000   0.00000  Uiso   1.00
O814   O     0.79510   0.10559   0.75000   0.00000  Uiso   1.00
O815   O     0.77328   0.16667   0.81613   0.00000  Uiso   1.00
O816   O     0.89339   0.16666   0.68388   0.00000  Uiso   1.00
O817   O     0.84972   0.16666   0.81612   0.00000  Uiso   1.00
O818   O     0.81695   0.16667   0.68388   0.00000  Uiso   1.00
Zn819  Zn    0.78229   0.16667   0.75000   0.00000  Uiso   1.00
Zn820  Zn    0.88438   0.16666   0.75000   0.00000  Uiso   1.00
H821   H     0.81369   0.14413   0.61241   0.00000  Uiso   1.00
H822   H     0.85045   0.18357   0.89131   0.00000  Uiso   1.00
H823   H     0.69263   0.11354   0.97680   0.00000  Uiso   1.00
H824   H     0.98440   0.18173   0.51531   0.00000  Uiso   1.00
H825   H     0.77473   0.11112   0.57999   0.00000  Uiso   1.00
H826   H     0.90859   0.16382   0.90870   0.00000  Uiso   1.00
O827   O     0.92059   0.29146   0.70092   0.00000  Uiso   1.00
C828   C     0.95547   0.29701   0.72145   0.00000  Uiso   1.00
H829   H     0.98635   0.27538   0.70437   0.00000  Uiso   1.00
H830   H     0.94013   0.28933   0.75924   0.00000  Uiso   1.00
H831   H     0.97046   0.32926   0.71598   0.00000  Uiso   1.00
O832   O     0.74595   0.04131   0.79956   0.00000  Uiso   1.00
C833   C     0.74072   0.04532   0.84646   0.00000  Uiso   1.00
H834   H     0.70612   0.06207   0.86570   0.00000  Uiso   1.00
H835   H     0.77111   0.06399   0.84975   0.00000  Uiso   1.00
H836   H     0.73834   0.01427   0.86313   0.00000  Uiso   1.00
H837   H     0.90960   0.03947   0.70757   0.00000  Uiso   1.00
H838   H     0.75660   0.29417   0.79154   0.00000  Uiso   1.00
H839   H     0.72936   0.12023   0.69762   0.00000  Uiso   1.00
H840   H     0.93730   0.21309   0.80239   0.00000  Uiso   1.00
C841   C     0.16705   0.57999   0.74943   0.00000  Uiso   1.00
C842   C     0.16636   0.42004   0.75051   0.00000  Uiso   1.00
C843   C     0.11883   0.45628   0.54503   0.00000  Uiso   1.00
C844   C     0.22818   0.49400   0.94606   0.00000  Uiso   1.00
C845   C     0.08498   0.45128   0.52415   0.00000  Uiso   1.00
C846   C     0.26213   0.49909   0.96667   0.00000  Uiso   1.00
C847   C     0.21142   0.64579   0.72710   0.00000  Uiso   1.00
C848   C     0.12274   0.35420   0.77559   0.00000  Uiso   1.00
C849   C     0.21005   0.35545   0.72715   0.00000  Uiso   1.00
C850   C     0.12347   0.64467   0.77358   0.00000  Uiso   1.00
C851   C     0.16611   0.37594   0.75120   0.00000  Uiso   1.00
C852   C     0.16743   0.62414   0.74958   0.00000  Uiso   1.00
C853   C     0.32081   0.47422   0.72087   0.00000  Uiso   1.00
C854   C     0.01252   0.52579   0.77912   0.00000  Uiso   1.00
C855   C     0.03540   0.47420   0.72090   0.00000  Uiso   1.00
C856   C     0.29792   0.52579   0.77911   0.00000  Uiso   1.00
C857   C     0.13618   0.49965   0.83801   0.00000  Uiso   1.00
C858   C     0.19718   0.49933   0.66201   0.00000  Uiso   1.00
C859   C     0.11789   0.49327   0.88817   0.00000  Uiso   1.00
C860   C     0.21644   0.49611   0.61143   0.00000  Uiso   1.00
C861   C     0.06117   0.46131   0.95820   0.00000  Uiso   1.00
C862   C     0.28059   0.50569   0.53593   0.00000  Uiso   1.00
C863   C     0.07244   0.47478   0.91261   0.00000  Uiso   1.00
C864   C     0.26510   0.50577   0.58424   0.00000  Uiso   1.00
C865   C     0.15089   0.49947   0.90983   0.00000  Uiso   1.00
C866   C     0.18437   0.48399   0.59032   0.00000  Uiso   1.00
C867   C     0.14239   0.48278   0.95359   0.00000  Uiso   1.00
C868   C     0.19904   0.48334   0.54199   0.00000  Uiso   1.00
C869   C     0.09590   0.46513   0.97887   0.00000  Uiso   1.00
C870   C     0.24761   0.49564   0.51467   0.00000  Uiso   1.00
C871   C     0.17877   0.48399   0.97294   0.00000  Uiso   1.00
C872   C     0.16542   0.47423   0.52053   0.00000  Uiso   1.00
H873   H     0.04983   0.43719   0.54382   0.00000  Uiso   1.00
H874   H     0.29939   0.50748   0.94514   0.00000  Uiso   1.00
H875   H     0.29049   0.51485   0.60025   0.00000  Uiso   1.00
H876   H     0.04658   0.46946   0.89604   0.00000  Uiso   1.00
H877   H     0.31181   0.45360   0.69757   0.00000  Uiso   1.00
H878   H     0.02152   0.54641   0.80241   0.00000  Uiso   1.00
N879   N     0.04759   0.50001   0.75001   0.00000  Uiso   1.00
N880   N     0.28574   0.49999   0.74999   0.00000  Uiso   1.00
O881   O     0.12846   0.56108   0.75001   0.00000  Uiso   1.00
O882   O     0.20488   0.43892   0.75000   0.00000  Uiso   1.00
O883   O     0.20490   0.56107   0.75000   0.00000  Uiso   1.00
O884   O     0.12843   0.43893   0.75000   0.00000  Uiso   1.00
O885   O     0.10661   0.50001   0.81613   0.00000  Uiso   1.00
O886   O     0.22672   0.49999   0.68388   0.00000  Uiso   1.00
O887   O     0.18305   0.50000   0.81612   0.00000  Uiso   1.00
O888   O     0.15028   0.50000   0.68388   0.00000  Uiso   1.00
Zn889  Zn    0.11562   0.50001   0.75000   0.00000  Uiso   1.00
Zn890  Zn    0.21771   0.49999   0.75000   0.00000  Uiso   1.00
H891   H     0.14702   0.47746   0.61241   0.00000  Uiso   1.00
H892   H     0.18378   0.51691   0.89131   0.00000  Uiso   1.00
H893   H     0.02597   0.44687   0.97680   0.00000  Uiso   1.00
H894   H     0.31774   0.51507   0.51531   0.00000  Uiso   1.00
H895   H     0.10806   0.44446   0.57999   0.00000  Uiso   1.00
H896   H     0.24192   0.49716   0.90870   0.00000  Uiso   1.00
O897   O     0.25393   0.62480   0.70092   0.00000  Uiso   1.00
C898   C     0.28880   0.63035   0.72145   0.00000  Uiso   1.00
H899   H     0.31968   0.60871   0.70437   0.00000  Uiso   1.00
H900   H     0.27347   0.62266   0.75924   0.00000  Uiso   1.00
H901   H     0.30380   0.66259   0.71598   0.00000  Uiso   1.00
O902   O     0.07928   0.37464   0.79956   0.00000  Uiso   1.00
C903   C     0.07405   0.37866   0.84646   0.00000  Uiso   1.00
H904   H     0.03946   0.39540   0.86570   0.00000  Uiso   1.00
H905   H     0.10445   0.39733   0.84975   0.00000  Uiso   1.00
H906   H     0.07167   0.34760   0.86313   0.00000  Uiso   1.00
H907   H     0.24293   0.37280   0.70757   0.00000  Uiso   1.00
H908   H     0.08993   0.62750   0.79154   0.00000  Uiso   1.00
H909   H     0.06269   0.45356   0.69762   0.00000  Uiso   1.00
H910   H     0.27063   0.54642   0.80239   0.00000  Uiso   1.00
C911   C     0.50038   0.57999   0.74943   0.00000  Uiso   1.00
C912   C     0.49970   0.42004   0.75051   0.00000  Uiso   1.00
C913   C     0.45216   0.45628   0.54503   0.00000  Uiso   1.00
C914   C     0.56151   0.49400   0.94606   0.00000  Uiso   1.00
C915   C     0.41832   0.45128   0.52415   0.00000  Uiso   1.00
C916   C     0.59546   0.49909   0.96667   0.00000  Uiso   1.00
C917   C     0.54475   0.64579   0.72710   0.00000  Uiso   1.00
C918   C     0.45607   0.35420   0.77559   0.00000  Uiso   1.00
C919   C     0.54338   0.35545   0.72715   0.00000  Uiso   1.00
C920   C     0.45680   0.64467   0.77358   0.00000  Uiso   1.00
C921   C     0.49944   0.37594   0.75120   0.00000  Uiso   1.00
C922   C     0.50076   0.62414   0.74958   0.00000  Uiso   1.00
C923   C     0.65414   0.47422   0.72087   0.00000  Uiso   1.00
C924   C     0.34586   0.52579   0.77912   0.00000  Uiso   1.00
C925   C     0.36874   0.47420   0.72090   0.00000  Uiso   1.00
C926   C     0.63126   0.52579   0.77911   0.00000  Uiso   1.00
C927   C     0.46951   0.49965   0.83801   0.00000  Uiso   1.00
C928   C     0.53052   0.49933   0.66201   0.00000  Uiso   1.00
C929   C     0.45123   0.49327   0.88817   0.00000  Uiso   1.00
C930   C     0.54977   0.49611   0.61143   0.00000  Uiso   1.00
C931   C     0.39450   0.46131   0.95820   0.00000  Uiso   1.00
C932   C     0.61392   0.50569   0.53593   0.00000  Uiso   1.00
C933   C     0.40577   0.47478   0.91261   0.00000  Uiso   1.00
C934   C     0.59843   0.50577   0.58424   0.00000  Uiso   1.00
C935   C     0.48422   0.49947   0.90983   0.00000  Uiso   1.00
C936   C     0.51770   0.48399   0.59032   0.00000  Uiso   1.00
C937   C     0.47572   0.48278   0.95359   0.00000  Uiso   1.00
C938   C     0.53237   0.48334   0.54199   0.00000  Uiso   1.00
C939   C     0.42923   0.46513   0.97887   0.00000  Uiso   1.00
C940   C     0.58094   0.49564   0.51467   0.00000  Uiso   1.00
C941   C     0.51210   0.48399   0.97294   0.00000  Uiso   1.00
C942   C     0.49875   0.47423   0.52053   0.00000  Uiso   1.00
H943   H     0.38316   0.43719   0.54382   0.00000  Uiso   1.00
H944   H     0.63273   0.50748   0.94514   0.00000  Uiso   1.00
H945   H     0.62382   0.51485   0.60025   0.00000  Uiso   1.00
H946   H     0.37991   0.46946   0.89604   0.00000  Uiso   1.00
H947   H     0.64514   0.45360   0.69757   0.00000  Uiso   1.00
H948   H     0.35485   0.54641   0.80241   0.00000  Uiso   1.00
N949   N     0.38093   0.50001   0.75001   0.00000  Uiso   1.00
N950   N     0.61907   0.49999   0.74999   0.00000  Uiso   1.00
O951   O     0.46179   0.56108   0.75001   0.00000  Uiso   1.00
O952   O     0.53821   0.43892   0.75000   0.00000  Uiso   1.00
O953   O     0.53823   0.56107   0.75000   0.00000  Uiso   1.00
O954   O     0.46177   0.43893   0.75000   0.00000  Uiso   1.00
O955   O     0.43994   0.50001   0.81613   0.00000  Uiso   1.00
O956   O     0.56006   0.49999   0.68388   0.00000  Uiso   1.00
O957   O     0.51639   0.50000   0.81612   0.00000  Uiso   1.00
O958   O     0.48361   0.50000   0.68388   0.00000  Uiso   1.00
Zn959  Zn    0.44896   0.50001   0.75000   0.00000  Uiso   1.00
Zn960  Zn    0.55104   0.49999   0.75000   0.00000  Uiso   1.00
H961   H     0.48036   0.47746   0.61241   0.00000  Uiso   1.00
H962   H     0.51711   0.51691   0.89131   0.00000  Uiso   1.00
H963   H     0.35930   0.44687   0.97680   0.00000  Uiso   1.00
H964   H     0.65107   0.51507   0.51531   0.00000  Uiso   1.00
H965   H     0.44139   0.44446   0.57999   0.00000  Uiso   1.00
H966   H     0.57526   0.49716   0.90870   0.00000  Uiso   1.00
O967   O     0.58726   0.62480   0.70092   0.00000  Uiso   1.00
C968   C     0.62214   0.63035   0.72145   0.00000  Uiso   1.00
H969   H     0.65301   0.60871   0.70437   0.00000  Uiso   1.00
H970   H     0.60680   0.62266   0.75924   0.00000  Uiso   1.00
H971   H     0.63713   0.66259   0.71598   0.00000  Uiso   1.00
O972   O     0.41261   0.37464   0.79956   0.00000  Uiso   1.00
C973   C     0.40738   0.37866   0.84646   0.00000  Uiso   1.00
H974   H     0.37279   0.39540   0.86570   0.00000  Uiso   1.00
H975   H     0.43778   0.39733   0.84975   0.00000  Uiso   1.00
H976   H     0.40501   0.34760   0.86313   0.00000  Uiso   1.00
H977   H     0.57627   0.37280   0.70757   0.00000  Uiso   1.00
H978   H     0.42327   0.62750   0.79154   0.00000  Uiso   1.00
H979   H     0.39602   0.45356   0.69762   0.00000  Uiso   1.00
H980   H     0.60397   0.54642   0.80239   0.00000  Uiso   1.00
C981   C     0.83371   0.57999   0.74943   0.00000  Uiso   1.00
C982   C     0.83303   0.42004   0.75051   0.00000  Uiso   1.00
C983   C     0.78549   0.45628   0.54503   0.00000  Uiso   1.00
C984   C     0.89484   0.49400   0.94606   0.00000  Uiso   1.00
C985   C     0.75165   0.45128   0.52415   0.00000  Uiso   1.00
C986   C     0.92880   0.49909   0.96667   0.00000  Uiso   1.00
C987   C     0.87808   0.64579   0.72710   0.00000  Uiso   1.00
C988   C     0.78940   0.35420   0.77559   0.00000  Uiso   1.00
C989   C     0.87671   0.35545   0.72715   0.00000  Uiso   1.00
C990   C     0.79013   0.64467   0.77358   0.00000  Uiso   1.00
C991   C     0.83278   0.37594   0.75120   0.00000  Uiso   1.00
C992   C     0.83410   0.62414   0.74958   0.00000  Uiso   1.00
C993   C     0.98747   0.47422   0.72087   0.00000  Uiso   1.00
C994   C     0.67919   0.52579   0.77912   0.00000  Uiso   1.00
C995   C     0.70207   0.47420   0.72090   0.00000  Uiso   1.00
C996   C     0.96459   0.52579   0.77911   0.00000  Uiso   1.00
C997   C     0.80284   0.49965   0.83801   0.00000  Uiso   1.00
C998   C     0.86385   0.49933   0.66201   0.00000  Uiso   1.00
C999   C     0.78456   0.49327   0.88817   0.00000  Uiso   1.00
C1000  C     0.88311   0.49611   0.61143   0.00000  Uiso   1.00
C1001  C     0.72783   0.46131   0.95820   0.00000  Uiso   1.00
C1002  C     0.94726   0.50569   0.53593   0.00000  Uiso   1.00
C1003  C     0.73910   0.47478   0.91261   0.00000  Uiso   1.00
C1004  C     0.93177   0.50577   0.58424   0.00000  Uiso   1.00
C1005  C     0.81755   0.49947   0.90983   0.00000  Uiso   1.00
C1006  C     0.85104   0.48399   0.59032   0.00000  Uiso   1.00
C1007  C     0.80906   0.48278   0.95359   0.00000  Uiso   1.00
C1008  C     0.86570   0.48334   0.54199   0.00000  Uiso   1.00
C1009  C     0.76256   0.46513   0.97887   0.00000  Uiso   1.00
C1010  C     0.91427   0.49564   0.51467   0.00000  Uiso   1.00
C1011  C     0.84543   0.48399   0.97294   0.00000  Uiso   1.00
C1012  C     0.83209   0.47423   0.52053   0.00000  Uiso   1.00
H1013  H     0.71649   0.43719   0.54382   0.00000  Uiso   1.00
H1014  H     0.96606   0.50748   0.94514   0.00000  Uiso   1.00
H1015  H     0.95716   0.51485   0.60025   0.00000  Uiso   1.00
H1016  H     0.71325   0.46946   0.89604   0.00000  Uiso   1.00
H1017  H     0.97847   0.45360   0.69757   0.00000  Uiso   1.00
H1018  H     0.68819   0.54641   0.80241   0.00000  Uiso   1.00
N1019  N     0.71426   0.50001   0.75001   0.00000  Uiso   1.00
N1020  N     0.95241   0.49999   0.74999   0.00000  Uiso   1.00
O1021  O     0.79512   0.56108   0.75001   0.00000  Uiso   1.00
O1022  O     0.87154   0.43892   0.75000   0.00000  Uiso   1.00
O1023  O     0.87157   0.56107   0.75000   0.00000  Uiso   1.00
O1024  O     0.79510   0.43893   0.75000   0.00000  Uiso   1.00
O1025  O     0.77328   0.50001   0.81613   0.00000  Uiso   1.00
O1026  O     0.89339   0.49999   0.68388   0.00000  Uiso   1.00
O1027  O     0.84972   0.50000   0.81612   0.00000  Uiso   1.00
O1028  O     0.81695   0.50000   0.68388   0.00000  Uiso   1.00
Zn1029 Zn    0.78229   0.50001   0.75000   0.00000  Uiso   1.00
Zn1030 Zn    0.88438   0.49999   0.75000   0.00000  Uiso   1.00
H1031  H     0.81369   0.47746   0.61241   0.00000  Uiso   1.00
H1032  H     0.85045   0.51691   0.89131   0.00000  Uiso   1.00
H1033  H     0.69263   0.44687   0.97680   0.00000  Uiso   1.00
H1034  H     0.98440   0.51507   0.51531   0.00000  Uiso   1.00
H1035  H     0.77473   0.44446   0.57999   0.00000  Uiso   1.00
H1036  H     0.90859   0.49716   0.90870   0.00000  Uiso   1.00
O1037  O     0.92059   0.62480   0.70092   0.00000  Uiso   1.00
C1038  C     0.95547   0.63035   0.72145   0.00000  Uiso   1.00
H1039  H     0.98635   0.60871   0.70437   0.00000  Uiso   1.00
H1040  H     0.94013   0.62266   0.75924   0.00000  Uiso   1.00
H1041  H     0.97046   0.66259   0.71598   0.00000  Uiso   1.00
O1042  O     0.74595   0.37464   0.79956   0.00000  Uiso   1.00
C1043  C     0.74072   0.37866   0.84646   0.00000  Uiso   1.00
H1044  H     0.70612   0.39540   0.86570   0.00000  Uiso   1.00
H1045  H     0.77111   0.39733   0.84975   0.00000  Uiso   1.00
H1046  H     0.73834   0.34760   0.86313   0.00000  Uiso   1.00
H1047  H     0.90960   0.37280   0.70757   0.00000  Uiso   1.00
H1048  H     0.75660   0.62750   0.79154   0.00000  Uiso   1.00
H1049  H     0.72936   0.45356   0.69762   0.00000  Uiso   1.00
H1050  H     0.93730   0.54642   0.80239   0.00000  Uiso   1.00
C1051  C     0.16705   0.91332   0.74943   0.00000  Uiso   1.00
C1052  C     0.16636   0.75337   0.75051   0.00000  Uiso   1.00
C1053  C     0.11883   0.78961   0.54503   0.00000  Uiso   1.00
C1054  C     0.22818   0.82733   0.94606   0.00000  Uiso   1.00
C1055  C     0.08498   0.78461   0.52415   0.00000  Uiso   1.00
C1056  C     0.26213   0.83242   0.96667   0.00000  Uiso   1.00
C1057  C     0.21142   0.97912   0.72710   0.00000  Uiso   1.00
C1058  C     0.12274   0.68753   0.77559   0.00000  Uiso   1.00
C1059  C     0.21005   0.68878   0.72715   0.00000  Uiso   1.00
C1060  C     0.12347   0.97800   0.77358   0.00000  Uiso   1.00
C1061  C     0.16611   0.70927   0.75120   0.00000  Uiso   1.00
C1062  C     0.16743   0.95748   0.74958   0.00000  Uiso   1.00
C1063  C     0.32081   0.80755   0.72087   0.00000  Uiso   1.00
C1064  C     0.01252   0.85912   0.77912   0.00000  Uiso   1.00
C1065  C     0.03540   0.80754   0.72090   0.00000  Uiso   1.00
C1066  C     0.29792   0.85912   0.77911   0.00000  Uiso   1.00
C1067  C     0.13618   0.83298   0.83801   0.00000  Uiso   1.00
C1068  C     0.19718   0.83266   0.66201   0.00000  Uiso   1.00
C1069  C     0.11789   0.82660   0.88817   0.00000  Uiso   1.00
C1070  C     0.21644   0.82945   0.61143   0.00000  Uiso   1.00
C1071  C     0.06117   0.79464   0.95820   0.00000  Uiso   1.00
C1072  C     0.28059   0.83902   0.53593   0.00000  Uiso   1.00
C1073  C     0.07244   0.80811   0.91261   0.00000  Uiso   1.00
C1074  C     0.26510   0.83910   0.58424   0.00000  Uiso   1.00
C1075  C     0.15089   0.83280   0.90983   0.00000  Uiso   1.00
C1076  C     0.18437   0.81732   0.59032   0.00000  Uiso   1.00
C1077  C     0.14239   0.81611   0.95359   0.00000  Uiso   1.00
C1078  C     0.19904   0.81667   0.54199   0.00000  Uiso   1.00
C1079  C     0.09590   0.79846   0.97887   0.00000  Uiso   1.00
C1080  C     0.24761   0.82898   0.51467   0.00000  Uiso   1.00
C1081  C     0.17877   0.81733   0.97294   0.00000  Uiso   1.00
C1082  C     0.16542   0.80757   0.52053   0.00000  Uiso   1.00
H1083  H     0.04983   0.77053   0.54382   0.00000  Uiso   1.00
H1084  H     0.29939   0.84082   0.94514   0.00000  Uiso   1.00
H1085  H     0.29049   0.84818   0.60025   0.00000  Uiso   1.00
H1086  H     0.04658   0.80280   0.89604   0.00000  Uiso   1.00
H1087  H     0.31181   0.78694   0.69757   0.00000  Uiso   1.00
H1088  H     0.02152   0.87974   0.80241   0.00000  Uiso   1.00
N1089  N     0.04759   0.83334   0.75001   0.00000  Uiso   1.00
N1090  N     0.28574   0.83332   0.74999   0.00000  Uiso   1.00
O1091  O     0.12846   0.89442   0.75001   0.00000  Uiso   1.00
O1092  O     0.20488   0.77225   0.75000   0.00000  Uiso   1.00
O1093  O     0.20490   0.89441   0.75000   0.00000  Uiso   1.00
O1094  O     0.12843   0.77226   0.75000   0.00000  Uiso   1.00
O1095  O     0.10661   0.83334   0.81613   0.00000  Uiso   1.00
O1096  O     0.22672   0.83333   0.68388   0.00000  Uiso   1.00
O1097  O     0.18305   0.83333   0.81612   0.00000  Uiso   1.00
O1098  O     0.15028   0.83334   0.68388   0.00000  Uiso   1.00
Zn1099 Zn    0.11562   0.83334   0.75000   0.00000  Uiso   1.00
Zn1100 Zn    0.21771   0.83333   0.75000   0.00000  Uiso   1.00
H1101  H     0.14702   0.81079   0.61241   0.00000  Uiso   1.00
H1102  H     0.18378   0.85024   0.89131   0.00000  Uiso   1.00
H1103  H     0.02597   0.78021   0.97680   0.00000  Uiso   1.00
H1104  H     0.31774   0.84840   0.51531   0.00000  Uiso   1.00
H1105  H     0.10806   0.77779   0.57999   0.00000  Uiso   1.00
H1106  H     0.24192   0.83049   0.90870   0.00000  Uiso   1.00
O1107  O     0.25393   0.95813   0.70092   0.00000  Uiso   1.00
C1108  C     0.28880   0.96368   0.72145   0.00000  Uiso   1.00
H1109  H     0.31968   0.94205   0.70437   0.00000  Uiso   1.00
H1110  H     0.27347   0.95599   0.75924   0.00000  Uiso   1.00
H1111  H     0.30380   0.99593   0.71598   0.00000  Uiso   1.00
O1112  O     0.07928   0.70797   0.79956   0.00000  Uiso   1.00
C1113  C     0.07405   0.71199   0.84646   0.00000  Uiso   1.00
H1114  H     0.03946   0.72874   0.86570   0.00000  Uiso   1.00
H1115  H     0.10445   0.73066   0.84975   0.00000  Uiso   1.00
H1116  H     0.07167   0.68094   0.86313   0.00000  Uiso   1.00
H1117  H     0.24293   0.70614   0.70757   0.00000  Uiso   1.00
H1118  H     0.08993   0.96084   0.79154   0.00000  Uiso   1.00
H1119  H     0.06269   0.78689   0.69762   0.00000  Uiso   1.00
H1120  H     0.27063   0.87976   0.80239   0.00000  Uiso   1.00
C1121  C     0.50038   0.91332   0.74943   0.00000  Uiso   1.00
C1122  C     0.49970   0.75337   0.75051   0.00000  Uiso   1.00
C1123  C     0.45216   0.78961   0.54503   0.00000  Uiso   1.00
C1124  C     0.56151   0.82733   0.94606   0.00000  Uiso   1.00
C1125  C     0.41832   0.78461   0.52415   0.00000  Uiso   1.00
C1126  C     0.59546   0.83242   0.96667   0.00000  Uiso   1.00
C1127  C     0.54475   0.97912   0.72710   0.00000  Uiso   1.00
C1128  C     0.45607   0.68753   0.77559   0.00000  Uiso   1.00
C1129  C     0.54338   0.68878   0.72715   0.00000  Uiso   1.00
C1130  C     0.45680   0.97800   0.77358   0.00000  Uiso   1.00
C1131  C     0.49944   0.70927   0.75120   0.00000  Uiso   1.00
C1132  C     0.50076   0.95748   0.74958   0.00000  Uiso   1.00
C1133  C     0.65414   0.80755   0.72087   0.00000  Uiso   1.00
C1134  C     0.34586   0.85912   0.77912   0.00000  Uiso   1.00
C1135  C     0.36874   0.80754   0.72090   0.00000  Uiso   1.00
C1136  C     0.63126   0.85912   0.77911   0.00000  Uiso   1.00
C1137  C     0.46951   0.83298   0.83801   0.00000  Uiso   1.00
C1138  C     0.53052   0.83266   0.66201   0.00000  Uiso   1.00
C1139  C     0.45123   0.82660   0.88817   0.00000  Uiso   1.00
C1140  C     0.54977   0.82945   0.61143   0.00000  Uiso   1.00
C1141  C     0.39450   0.79464   0.95820   0.00000  Uiso   1.00
C1142  C     0.61392   0.83902   0.53593   0.00000  Uiso   1.00
C1143  C     0.40577   0.80811   0.91261   0.00000  Uiso   1.00
C1144  C     0.59843   0.83910   0.58424   0.00000  Uiso   1.00
C1145  C     0.48422   0.83280   0.90983   0.00000  Uiso   1.00
C1146  C     0.51770   0.81732   0.59032   0.00000  Uiso   1.00
C1147  C     0.47572   0.81611   0.95359   0.00000  Uiso   1.00
C1148  C     0.53237   0.81667   0.54199   0.00000  Uiso   1.00
C1149  C     0.42923   0.79846   0.97887   0.00000  Uiso   1.00
C1150  C     0.58094   0.82898   0.51467   0.00000  Uiso   1.00
C1151  C     0.51210   0.81733   0.97294   0.00000  Uiso   1.00
C1152  C     0.49875   0.80757   0.52053   0.00000  Uiso   1.00
H1153  H     0.38316   0.77053   0.54382   0.00000  Uiso   1.00
H1154  H     0.63273   0.84082   0.94514   0.00000  Uiso   1.00
H1155  H     0.62382   0.84818   0.60025   0.00000  Uiso   1.00
H1156  H     0.37991   0.80280   0.89604   0.00000  Uiso   1.00
H1157  H     0.64514   0.78694   0.69757   0.00000  Uiso   1.00
H1158  H     0.35485   0.87974   0.80241   0.00000  Uiso   1.00
N1159  N     0.38093   0.83334   0.75001   0.00000  Uiso   1.00
N1160  N     0.61907   0.83332   0.74999   0.00000  Uiso   1.00
O1161  O     0.46179   0.89442   0.75001   0.00000  Uiso   1.00
O1162  O     0.53821   0.77225   0.75000   0.00000  Uiso   1.00
O1163  O     0.53823   0.89441   0.75000   0.00000  Uiso   1.00
O1164  O     0.46177   0.77226   0.75000   0.00000  Uiso   1.00
O1165  O     0.43994   0.83334   0.81613   0.00000  Uiso   1.00
O1166  O     0.56006   0.83333   0.68388   0.00000  Uiso   1.00
O1167  O     0.51639   0.83333   0.81612   0.00000  Uiso   1.00
O1168  O     0.48361   0.83334   0.68388   0.00000  Uiso   1.00
Zn1169 Zn    0.44896   0.83334   0.75000   0.00000  Uiso   1.00
Zn1170 Zn    0.55104   0.83333   0.75000   0.00000  Uiso   1.00
H1171  H     0.48036   0.81079   0.61241   0.00000  Uiso   1.00
H1172  H     0.51711   0.85024   0.89131   0.00000  Uiso   1.00
H1173  H     0.35930   0.78021   0.97680   0.00000  Uiso   1.00
H1174  H     0.65107   0.84840   0.51531   0.00000  Uiso   1.00
H1175  H     0.44139   0.77779   0.57999   0.00000  Uiso   1.00
H1176  H     0.57526   0.83049   0.90870   0.00000  Uiso   1.00
O1177  O     0.58726   0.95813   0.70092   0.00000  Uiso   1.00
C1178  C     0.62214   0.96368   0.72145   0.00000  Uiso   1.00
H1179  H     0.65301   0.94205   0.70437   0.00000  Uiso   1.00
H1180  H     0.60680   0.95599   0.75924   0.00000  Uiso   1.00
H1181  H     0.63713   0.99593   0.71598   0.00000  Uiso   1.00
O1182  O     0.41261   0.70797   0.79956   0.00000  Uiso   1.00
C1183  C     0.40738   0.71199   0.84646   0.00000  Uiso   1.00
H1184  H     0.37279   0.72874   0.86570   0.00000  Uiso   1.00
H1185  H     0.43778   0.73066   0.84975   0.00000  Uiso   1.00
H1186  H     0.40501   0.68094   0.86313   0.00000  Uiso   1.00
H1187  H     0.57627   0.70614   0.70757   0.00000  Uiso   1.00
H1188  H     0.42327   0.96084   0.79154   0.00000  Uiso   1.00
H1189  H     0.39602   0.78689   0.69762   0.00000  Uiso   1.00
H1190  H     0.60397   0.87976   0.80239   0.00000  Uiso   1.00
C1191  C     0.83371   0.91332   0.74943   0.00000  Uiso   1.00
C1192  C     0.83303   0.75337   0.75051   0.00000  Uiso   1.00
C1193  C     0.78549   0.78961   0.54503   0.00000  Uiso   1.00
C1194  C     0.89484   0.82733   0.94606   0.00000  Uiso   1.00
C1195  C     0.75165   0.78461   0.52415   0.00000  Uiso   1.00
C1196  C     0.92880   0.83242   0.96667   0.00000  Uiso   1.00
C1197  C     0.87808   0.97912   0.72710   0.00000  Uiso   1.00
C1198  C     0.78940   0.68753   0.77559   0.00000  Uiso   1.00
C1199  C     0.87671   0.68878   0.72715   0.00000  Uiso   1.00
C1200  C     0.79013   0.97800   0.77358   0.00000  Uiso   1.00
C1201  C     0.83278   0.70927   0.75120   0.00000  Uiso   1.00
C1202  C     0.83410   0.95748   0.74958   0.00000  Uiso   1.00
C1203  C     0.98747   0.80755   0.72087   0.00000  Uiso   1.00
C1204  C     0.67919   0.85912   0.77912   0.00000  Uiso   1.00
C1205  C     0.70207   0.80754   0.72090   0.00000  Uiso   1.00
C1206  C     0.96459   0.85912   0.77911   0.00000  Uiso   1.00
C1207  C     0.80284   0.83298   0.83801   0.00000  Uiso   1.00
C1208  C     0.86385   0.83266   0.66201   0.00000  Uiso   1.00
C1209  C     0.78456   0.82660   0.88817   0.00000  Uiso   1.00
C1210  C     0.88311   0.82945   0.61143   0.00000  Uiso   1.00
C1211  C     0.72783   0.79464   0.95820   0.00000  Uiso   1.00
C1212  C     0.94726   0.83902   0.53593   0.00000  Uiso   1.00
C1213  C     0.73910   0.80811   0.91261   0.00000  Uiso   1.00
C1214  C     0.93177   0.83910   0.58424   0.00000  Uiso   1.00
C1215  C     0.81755   0.83280   0.90983   0.00000  Uiso   1.00
C1216  C     0.85104   0.81732   0.59032   0.00000  Uiso   1.00
C1217  C     0.80906   0.81611   0.95359   0.00000  Uiso   1.00
C1218  C     0.86570   0.81667   0.54199   0.00000  Uiso   1.00
C1219  C     0.76256   0.79846   0.97887   0.00000  Uiso   1.00
C1220  C     0.91427   0.82898   0.51467   0.00000  Uiso   1.00
C1221  C     0.84543   0.81733   0.97294   0.00000  Uiso   1.00
C1222  C     0.83209   0.80757   0.52053   0.00000  Uiso   1.00
H1223  H     0.71649   0.77053   0.54382   0.00000  Uiso   1.00
H1224  H     0.96606   0.84082   0.94514   0.00000  Uiso   1.00
H1225  H     0.95716   0.84818   0.60025   0.00000  Uiso   1.00
H1226  H     0.71325   0.80280   0.89604   0.00000  Uiso   1.00
H1227  H     0.97847   0.78694   0.69757   0.00000  Uiso   1.00
H1228  H     0.68819   0.87974   0.80241   0.00000  Uiso   1.00
N1229  N     0.71426   0.83334   0.75001   0.00000  Uiso   1.00
N1230  N     0.95241   0.83332   0.74999   0.00000  Uiso   1.00
O1231  O     0.79512   0.89442   0.75001   0.00000  Uiso   1.00
O1232  O     0.87154   0.77225   0.75000   0.00000  Uiso   1.00
O1233  O     0.87157   0.89441   0.75000   0.00000  Uiso   1.00
O1234  O     0.79510   0.77226   0.75000   0.00000  Uiso   1.00
O1235  O     0.77328   0.83334   0.81613   0.00000  Uiso   1.00
O1236  O     0.89339   0.83333   0.68388   0.00000  Uiso   1.00
O1237  O     0.84972   0.83333   0.81612   0.00000  Uiso   1.00
O1238  O     0.81695   0.83334   0.68388   0.00000  Uiso   1.00
Zn1239 Zn    0.78229   0.83334   0.75000   0.00000  Uiso   1.00
Zn1240 Zn    0.88438   0.83333   0.75000   0.00000  Uiso   1.00
H1241  H     0.81369   0.81079   0.61241   0.00000  Uiso   1.00
H1242  H     0.85045   0.85024   0.89131   0.00000  Uiso   1.00
H1243  H     0.69263   0.78021   0.97680   0.00000  Uiso   1.00
H1244  H     0.98440   0.84840   0.51531   0.00000  Uiso   1.00
H1245  H     0.77473   0.77779   0.57999   0.00000  Uiso   1.00
H1246  H     0.90859   0.83049   0.90870   0.00000  Uiso   1.00
O1247  O     0.92059   0.95813   0.70092   0.00000  Uiso   1.00
C1248  C     0.95547   0.96368   0.72145   0.00000  Uiso   1.00
H1249  H     0.98635   0.94205   0.70437   0.00000  Uiso   1.00
H1250  H     0.94013   0.95599   0.75924   0.00000  Uiso   1.00
H1251  H     0.97046   0.99593   0.71598   0.00000  Uiso   1.00
O1252  O     0.74595   0.70797   0.79956   0.00000  Uiso   1.00
C1253  C     0.74072   0.71199   0.84646   0.00000  Uiso   1.00
H1254  H     0.70612   0.72874   0.86570   0.00000  Uiso   1.00
H1255  H     0.77111   0.73066   0.84975   0.00000  Uiso   1.00
H1256  H     0.73834   0.68094   0.86313   0.00000  Uiso   1.00
H1257  H     0.90960   0.70614   0.70757   0.00000  Uiso   1.00
H1258  H     0.75660   0.96084   0.79154   0.00000  Uiso   1.00
H1259  H     0.72936   0.78689   0.69762   0.00000  Uiso   1.00
H1260  H     0.93730   0.87976   0.80239   0.00000  Uiso   1.00
loop_
_geom_bond_atom_site_label_1
_geom_bond_atom_site_label_2
_geom_bond_distance
_geom_bond_site_symmetry_2
_ccdc_geom_bond_type
C1     C12     1.416   .     S
C1     O41     1.284   .     A
C1     O43     1.280   .     A
C2     O42     1.282   .     A
C2     C11     1.414   .     S
C2     O44     1.281   .     A
C3     C32     1.418   .     A
C3     H55     1.078   .     S
C3     C5      1.390   .     A
C4     H56     1.079   .     S
C4     C31     1.417   .     A
C4     C6      1.387   .     A
C5     H33     1.084   .     S
C5     C659    1.392   1_554 S
C6     H34     1.084   .     S
C6     C660    1.391   .     S
C7     C12     1.403   .     A
C7     O57     1.386   .     S
C7     C219    1.379   .     S
C8     C11     1.402   .     A
C8     O62     1.383   .     S
C8     C430    1.375   1_545 S
C9     C11     1.394   .     A
C9     H67     1.084   .     S
C9     C427    1.379   1_545 S
C10    H68     1.085   .     S
C10    C12     1.395   .     A
C10    C218    1.375   .     S
C13    H37     1.082   .     S
C13    N40     1.366   .     A
C13    C85     1.417   .     S
C14    H38     1.082   .     S
C14    N39     1.366   .     A
C14    C156    1.416   1_455 S
C15    N39     1.367   .     A
C15    H69     1.082   .     S
C15    C153    1.417   1_455 S
C16    N40     1.367   .     A
C16    H70     1.082   .     S
C16    C84     1.416   .     S
C17    C19     1.457   .     S
C17    O47     1.292   .     A
C17    O45     1.294   .     A
C18    C20     1.457   .     S
C18    O46     1.292   .     A
C18    O48     1.293   .     A
C19    C23     1.399   .     A
C19    C25     1.391   .     A
C20    C26     1.394   .     A
C20    C24     1.399   .     A
C21    C29     1.405   .     A
C21    H53     1.084   .     S
C21    C23     1.396   .     A
C22    H54     1.083   .     S
C22    C24     1.392   .     A
C22    C30     1.404   .     A
C23    H36     1.083   .     S
C24    H35     1.083   .     S
C25    H52     1.079   .     S
C25    C27     1.393   .     A
C26    H51     1.077   .     S
C26    C28     1.395   .     A
C27    C29     1.416   .     A
C27    C31     1.416   .     A
C28    C30     1.419   .     A
C28    C32     1.418   .     A
C29    C635    1.392   .     S
C30    C636    1.391   1_554 S
C31    C662    1.413   .     S
C32    C661    1.413   1_554 S
N39    Zn49    2.010   .     S
N40    Zn50    2.010   .     S
O41    Zn49    1.993   .     S
O42    Zn50    1.993   .     S
O43    Zn50    1.996   .     S
O44    Zn49    1.996   .     S
O45    Zn49    1.967   .     S
O46    Zn50    1.967   .     S
O47    Zn50    1.916   .     S
O48    Zn49    1.916   .     S
O57    C58     1.412   .     S
C58    H61     1.111   .     S
C58    H59     1.109   .     S
C58    H60     1.114   .     S
O62    C63     1.410   .     S
C63    H65     1.114   .     S
C63    H66     1.113   .     S
C63    H64     1.109   .     S
C71    C82     1.416   .     S
C71    O111    1.284   .     A
C71    O113    1.280   .     A
C72    O112    1.282   .     A
C72    C81     1.414   .     S
C72    O114    1.281   .     A
C73    C102    1.418   .     A
C73    H125    1.078   .     S
C73    C75     1.390   .     A
C74    H126    1.079   .     S
C74    C101    1.417   .     A
C74    C76     1.387   .     A
C75    H103    1.084   .     S
C75    C729    1.392   1_554 S
C76    H104    1.084   .     S
C76    C730    1.391   .     S
C77    C82     1.403   .     A
C77    O127    1.386   .     S
C77    C289    1.379   .     S
C78    C81     1.402   .     A
C78    O132    1.383   .     S
C78    C500    1.375   1_545 S
C79    C81     1.394   .     A
C79    H137    1.084   .     S
C79    C497    1.379   1_545 S
C80    H138    1.085   .     S
C80    C82     1.395   .     A
C80    C288    1.375   .     S
C83    H107    1.082   .     S
C83    N110    1.366   .     A
C83    C155    1.417   .     S
C84    H108    1.082   .     S
C84    N109    1.366   .     A
C85    N109    1.367   .     A
C85    H139    1.082   .     S
C86    N110    1.367   .     A
C86    H140    1.082   .     S
C86    C154    1.416   .     S
C87    C89     1.457   .     S
C87    O117    1.292   .     A
C87    O115    1.294   .     A
C88    C90     1.457   .     S
C88    O116    1.292   .     A
C88    O118    1.293   .     A
C89    C93     1.399   .     A
C89    C95     1.391   .     A
C90    C96     1.394   .     A
C90    C94     1.399   .     A
C91    C99     1.405   .     A
C91    H123    1.084   .     S
C91    C93     1.396   .     A
C92    H124    1.083   .     S
C92    C94     1.392   .     A
C92    C100    1.404   .     A
C93    H106    1.083   .     S
C94    H105    1.083   .     S
C95    H122    1.079   .     S
C95    C97     1.393   .     A
C96    H121    1.077   .     S
C96    C98     1.395   .     A
C97    C99     1.416   .     A
C97    C101    1.416   .     A
C98    C100    1.419   .     A
C98    C102    1.418   .     A
C99    C705    1.392   .     S
C100   C706    1.391   1_554 S
C101   C732    1.413   .     S
C102   C731    1.413   1_554 S
N109   Zn119   2.010   .     S
N110   Zn120   2.010   .     S
O111   Zn119   1.993   .     S
O112   Zn120   1.993   .     S
O113   Zn120   1.996   .     S
O114   Zn119   1.996   .     S
O115   Zn119   1.967   .     S
O116   Zn120   1.967   .     S
O117   Zn120   1.916   .     S
O118   Zn119   1.916   .     S
O127   C128    1.412   .     S
C128   H131    1.111   .     S
C128   H129    1.109   .     S
C128   H130    1.114   .     S
O132   C133    1.410   .     S
C133   H135    1.114   .     S
C133   H136    1.113   .     S
C133   H134    1.109   .     S
C141   C152    1.416   .     S
C141   O181    1.284   .     A
C141   O183    1.280   .     A
C142   O182    1.282   .     A
C142   C151    1.414   .     S
C142   O184    1.281   .     A
C143   C172    1.418   .     A
C143   H195    1.078   .     S
C143   C145    1.390   .     A
C144   H196    1.079   .     S
C144   C171    1.417   .     A
C144   C146    1.387   .     A
C145   H173    1.084   .     S
C145   C799    1.392   1_554 S
C146   H174    1.084   .     S
C146   C800    1.391   .     S
C147   C152    1.403   .     A
C147   O197    1.386   .     S
C147   C359    1.379   .     S
C148   C151    1.402   .     A
C148   O202    1.383   .     S
C148   C570    1.375   1_545 S
C149   C151    1.394   .     A
C149   H207    1.084   .     S
C149   C567    1.379   1_545 S
C150   H208    1.085   .     S
C150   C152    1.395   .     A
C150   C358    1.375   .     S
C153   H177    1.082   .     S
C153   N180    1.366   .     A
C153   C15     1.417   1_655 S
C154   H178    1.082   .     S
C154   N179    1.366   .     A
C155   N179    1.367   .     A
C155   H209    1.082   .     S
C156   N180    1.367   .     A
C156   H210    1.082   .     S
C156   C14     1.416   1_655 S
C157   C159    1.457   .     S
C157   O187    1.292   .     A
C157   O185    1.294   .     A
C158   C160    1.457   .     S
C158   O186    1.292   .     A
C158   O188    1.293   .     A
C159   C163    1.399   .     A
C159   C165    1.391   .     A
C160   C166    1.394   .     A
C160   C164    1.399   .     A
C161   C169    1.405   .     A
C161   H193    1.084   .     S
C161   C163    1.396   .     A
C162   H194    1.083   .     S
C162   C164    1.392   .     A
C162   C170    1.404   .     A
C163   H176    1.083   .     S
C164   H175    1.083   .     S
C165   H192    1.079   .     S
C165   C167    1.393   .     A
C166   H191    1.077   .     S
C166   C168    1.395   .     A
C167   C169    1.416   .     A
C167   C171    1.416   .     A
C168   C170    1.419   .     A
C168   C172    1.418   .     A
C169   C775    1.392   .     S
C170   C776    1.391   1_554 S
C171   C802    1.413   .     S
C172   C801    1.413   1_554 S
N179   Zn189   2.010   .     S
N180   Zn190   2.010   .     S
O181   Zn189   1.993   .     S
O182   Zn190   1.993   .     S
O183   Zn190   1.996   .     S
O184   Zn189   1.996   .     S
O185   Zn189   1.967   .     S
O186   Zn190   1.967   .     S
O187   Zn190   1.916   .     S
O188   Zn189   1.916   .     S
O197   C198    1.412   .     S
C198   H201    1.111   .     S
C198   H199    1.109   .     S
C198   H200    1.114   .     S
O202   C203    1.410   .     S
C203   H205    1.114   .     S
C203   H206    1.113   .     S
C203   H204    1.109   .     S
C211   C222    1.416   .     S
C211   O251    1.284   .     A
C211   O253    1.280   .     A
C212   O252    1.282   .     A
C212   C221    1.414   .     S
C212   O254    1.281   .     A
C213   C242    1.418   .     A
C213   H265    1.078   .     S
C213   C215    1.390   .     A
C214   H266    1.079   .     S
C214   C241    1.417   .     A
C214   C216    1.387   .     A
C215   H243    1.084   .     S
C215   C869    1.392   1_554 S
C216   H244    1.084   .     S
C216   C870    1.391   .     S
C217   C222    1.403   .     A
C217   O267    1.386   .     S
C217   C429    1.379   .     S
C218   C221    1.402   .     A
C218   O272    1.383   .     S
C219   C221    1.394   .     A
C219   H277    1.084   .     S
C220   H278    1.085   .     S
C220   C222    1.395   .     A
C220   C428    1.375   .     S
C223   H247    1.082   .     S
C223   N250    1.366   .     A
C223   C295    1.417   .     S
C224   H248    1.082   .     S
C224   N249    1.366   .     A
C224   C366    1.416   1_455 S
C225   N249    1.367   .     A
C225   H279    1.082   .     S
C225   C363    1.417   1_455 S
C226   N250    1.367   .     A
C226   H280    1.082   .     S
C226   C294    1.416   .     S
C227   C229    1.457   .     S
C227   O257    1.292   .     A
C227   O255    1.294   .     A
C228   C230    1.457   .     S
C228   O256    1.292   .     A
C228   O258    1.293   .     A
C229   C233    1.399   .     A
C229   C235    1.391   .     A
C230   C236    1.394   .     A
C230   C234    1.399   .     A
C231   C239    1.405   .     A
C231   H263    1.084   .     S
C231   C233    1.396   .     A
C232   H264    1.083   .     S
C232   C234    1.392   .     A
C232   C240    1.404   .     A
C233   H246    1.083   .     S
C234   H245    1.083   .     S
C235   H262    1.079   .     S
C235   C237    1.393   .     A
C236   H261    1.077   .     S
C236   C238    1.395   .     A
C237   C239    1.416   .     A
C237   C241    1.416   .     A
C238   C240    1.419   .     A
C238   C242    1.418   .     A
C239   C845    1.392   .     S
C240   C846    1.391   1_554 S
C241   C872    1.413   .     S
C242   C871    1.413   1_554 S
N249   Zn259   2.010   .     S
N250   Zn260   2.010   .     S
O251   Zn259   1.993   .     S
O252   Zn260   1.993   .     S
O253   Zn260   1.996   .     S
O254   Zn259   1.996   .     S
O255   Zn259   1.967   .     S
O256   Zn260   1.967   .     S
O257   Zn260   1.916   .     S
O258   Zn259   1.916   .     S
O267   C268    1.412   .     S
C268   H271    1.111   .     S
C268   H269    1.109   .     S
C268   H270    1.114   .     S
O272   C273    1.410   .     S
C273   H275    1.114   .     S
C273   H276    1.113   .     S
C273   H274    1.109   .     S
C281   C292    1.416   .     S
C281   O321    1.284   .     A
C281   O323    1.280   .     A
C282   O322    1.282   .     A
C282   C291    1.414   .     S
C282   O324    1.281   .     A
C283   C312    1.418   .     A
C283   H335    1.078   .     S
C283   C285    1.390   .     A
C284   H336    1.079   .     S
C284   C311    1.417   .     A
C284   C286    1.387   .     A
C285   H313    1.084   .     S
C285   C939    1.392   1_554 S
C286   H314    1.084   .     S
C286   C940    1.391   .     S
C287   C292    1.403   .     A
C287   O337    1.386   .     S
C287   C499    1.379   .     S
C288   C291    1.402   .     A
C288   O342    1.383   .     S
C289   C291    1.394   .     A
C289   H347    1.084   .     S
C290   H348    1.085   .     S
C290   C292    1.395   .     A
C290   C498    1.375   .     S
C293   H317    1.082   .     S
C293   N320    1.366   .     A
C293   C365    1.417   .     S
C294   H318    1.082   .     S
C294   N319    1.366   .     A
C295   N319    1.367   .     A
C295   H349    1.082   .     S
C296   N320    1.367   .     A
C296   H350    1.082   .     S
C296   C364    1.416   .     S
C297   C299    1.457   .     S
C297   O327    1.292   .     A
C297   O325    1.294   .     A
C298   C300    1.457   .     S
C298   O326    1.292   .     A
C298   O328    1.293   .     A
C299   C303    1.399   .     A
C299   C305    1.391   .     A
C300   C306    1.394   .     A
C300   C304    1.399   .     A
C301   C309    1.405   .     A
C301   H333    1.084   .     S
C301   C303    1.396   .     A
C302   H334    1.083   .     S
C302   C304    1.392   .     A
C302   C310    1.404   .     A
C303   H316    1.083   .     S
C304   H315    1.083   .     S
C305   H332    1.079   .     S
C305   C307    1.393   .     A
C306   H331    1.077   .     S
C306   C308    1.395   .     A
C307   C309    1.416   .     A
C307   C311    1.416   .     A
C308   C310    1.419   .     A
C308   C312    1.418   .     A
C309   C915    1.392   .     S
C310   C916    1.391   1_554 S
C311   C942    1.413   .     S
C312   C941    1.413   1_554 S
N319   Zn329   2.010   .     S
N320   Zn330   2.010   .     S
O321   Zn329   1.993   .     S
O322   Zn330   1.993   .     S
O323   Zn330   1.996   .     S
O324   Zn329   1.996   .     S
O325   Zn329   1.967   .     S
O326   Zn330   1.967   .     S
O327   Zn330   1.916   .     S
O328   Zn329   1.916   .     S
O337   C338    1.412   .     S
C338   H341    1.111   .     S
C338   H339    1.109   .     S
C338   H340    1.114   .     S
O342   C343    1.410   .     S
C343   H345    1.114   .     S
C343   H346    1.113   .     S
C343   H344    1.109   .     S
C351   C362    1.416   .     S
C351   O391    1.284   .     A
C351   O393    1.280   .     A
C352   O392    1.282   .     A
C352   C361    1.414   .     S
C352   O394    1.281   .     A
C353   C382    1.418   .     A
C353   H405    1.078   .     S
C353   C355    1.390   .     A
C354   H406    1.079   .     S
C354   C381    1.417   .     A
C354   C356    1.387   .     A
C355   H383    1.084   .     S
C355   C1009   1.392   1_554 S
C356   H384    1.084   .     S
C356   C1010   1.391   .     S
C357   C362    1.403   .     A
C357   O407    1.386   .     S
C357   C569    1.379   .     S
C358   C361    1.402   .     A
C358   O412    1.383   .     S
C359   C361    1.394   .     A
C359   H417    1.084   .     S
C360   H418    1.085   .     S
C360   C362    1.395   .     A
C360   C568    1.375   .     S
C363   H387    1.082   .     S
C363   N390    1.366   .     A
C363   C225    1.417   1_655 S
C364   H388    1.082   .     S
C364   N389    1.366   .     A
C365   N389    1.367   .     A
C365   H419    1.082   .     S
C366   N390    1.367   .     A
C366   H420    1.082   .     S
C366   C224    1.416   1_655 S
C367   C369    1.457   .     S
C367   O397    1.292   .     A
C367   O395    1.294   .     A
C368   C370    1.457   .     S
C368   O396    1.292   .     A
C368   O398    1.293   .     A
C369   C373    1.399   .     A
C369   C375    1.391   .     A
C370   C376    1.394   .     A
C370   C374    1.399   .     A
C371   C379    1.405   .     A
C371   H403    1.084   .     S
C371   C373    1.396   .     A
C372   H404    1.083   .     S
C372   C374    1.392   .     A
C372   C380    1.404   .     A
C373   H386    1.083   .     S
C374   H385    1.083   .     S
C375   H402    1.079   .     S
C375   C377    1.393   .     A
C376   H401    1.077   .     S
C376   C378    1.395   .     A
C377   C379    1.416   .     A
C377   C381    1.416   .     A
C378   C380    1.419   .     A
C378   C382    1.418   .     A
C379   C985    1.392   .     S
C380   C986    1.391   1_554 S
C381   C1012   1.413   .     S
C382   C1011   1.413   1_554 S
N389   Zn399   2.010   .     S
N390   Zn400   2.010   .     S
O391   Zn399   1.993   .     S
O392   Zn400   1.993   .     S
O393   Zn400   1.996   .     S
O394   Zn399   1.996   .     S
O395   Zn399   1.967   .     S
O396   Zn400   1.967   .     S
O397   Zn400   1.916   .     S
O398   Zn399   1.916   .     S
O407   C408    1.412   .     S
C408   H411    1.111   .     S
C408   H409    1.109   .     S
C408   H410    1.114   .     S
O412   C413    1.410   .     S
C413   H415    1.114   .     S
C413   H416    1.113   .     S
C413   H414    1.109   .     S
C421   C432    1.416   .     S
C421   O461    1.284   .     A
C421   O463    1.280   .     A
C422   O462    1.282   .     A
C422   C431    1.414   .     S
C422   O464    1.281   .     A
C423   C452    1.418   .     A
C423   H475    1.078   .     S
C423   C425    1.390   .     A
C424   H476    1.079   .     S
C424   C451    1.417   .     A
C424   C426    1.387   .     A
C425   H453    1.084   .     S
C425   C1079   1.392   1_554 S
C426   H454    1.084   .     S
C426   C1080   1.391   .     S
C427   C432    1.403   .     A
C427   O477    1.386   .     S
C427   C9      1.379   1_565 S
C428   C431    1.402   .     A
C428   O482    1.383   .     S
C429   C431    1.394   .     A
C429   H487    1.084   .     S
C430   H488    1.085   .     S
C430   C432    1.395   .     A
C430   C8      1.375   1_565 S
C433   H457    1.082   .     S
C433   N460    1.366   .     A
C433   C505    1.417   .     S
C434   H458    1.082   .     S
C434   N459    1.366   .     A
C434   C576    1.416   1_455 S
C435   N459    1.367   .     A
C435   H489    1.082   .     S
C435   C573    1.417   1_455 S
C436   N460    1.367   .     A
C436   H490    1.082   .     S
C436   C504    1.416   .     S
C437   C439    1.457   .     S
C437   O467    1.292   .     A
C437   O465    1.294   .     A
C438   C440    1.457   .     S
C438   O466    1.292   .     A
C438   O468    1.293   .     A
C439   C443    1.399   .     A
C439   C445    1.391   .     A
C440   C446    1.394   .     A
C440   C444    1.399   .     A
C441   C449    1.405   .     A
C441   H473    1.084   .     S
C441   C443    1.396   .     A
C442   H474    1.083   .     S
C442   C444    1.392   .     A
C442   C450    1.404   .     A
C443   H456    1.083   .     S
C444   H455    1.083   .     S
C445   H472    1.079   .     S
C445   C447    1.393   .     A
C446   H471    1.077   .     S
C446   C448    1.395   .     A
C447   C449    1.416   .     A
C447   C451    1.416   .     A
C448   C450    1.419   .     A
C448   C452    1.418   .     A
C449   C1055   1.392   .     S
C450   C1056   1.391   1_554 S
C451   C1082   1.413   .     S
C452   C1081   1.413   1_554 S
N459   Zn469   2.010   .     S
N460   Zn470   2.010   .     S
O461   Zn469   1.993   .     S
O462   Zn470   1.993   .     S
O463   Zn470   1.996   .     S
O464   Zn469   1.996   .     S
O465   Zn469   1.967   .     S
O466   Zn470   1.967   .     S
O467   Zn470   1.916   .     S
O468   Zn469   1.916   .     S
O477   C478    1.412   .     S
C478   H481    1.111   .     S
C478   H479    1.109   .     S
C478   H480    1.114   .     S
O482   C483    1.410   .     S
C483   H485    1.114   .     S
C483   H486    1.113   .     S
C483   H484    1.109   .     S
C491   C502    1.416   .     S
C491   O531    1.284   .     A
C491   O533    1.280   .     A
C492   O532    1.282   .     A
C492   C501    1.414   .     S
C492   O534    1.281   .     A
C493   C522    1.418   .     A
C493   H545    1.078   .     S
C493   C495    1.390   .     A
C494   H546    1.079   .     S
C494   C521    1.417   .     A
C494   C496    1.387   .     A
C495   H523    1.084   .     S
C495   C1149   1.392   1_554 S
C496   H524    1.084   .     S
C496   C1150   1.391   .     S
C497   C502    1.403   .     A
C497   O547    1.386   .     S
C497   C79     1.379   1_565 S
C498   C501    1.402   .     A
C498   O552    1.383   .     S
C499   C501    1.394   .     A
C499   H557    1.084   .     S
C500   H558    1.085   .     S
C500   C502    1.395   .     A
C500   C78     1.375   1_565 S
C503   H527    1.082   .     S
C503   N530    1.366   .     A
C503   C575    1.417   .     S
C504   H528    1.082   .     S
C504   N529    1.366   .     A
C505   N529    1.367   .     A
C505   H559    1.082   .     S
C506   N530    1.367   .     A
C506   H560    1.082   .     S
C506   C574    1.416   .     S
C507   C509    1.457   .     S
C507   O537    1.292   .     A
C507   O535    1.294   .     A
C508   C510    1.457   .     S
C508   O536    1.292   .     A
C508   O538    1.293   .     A
C509   C513    1.399   .     A
C509   C515    1.391   .     A
C510   C516    1.394   .     A
C510   C514    1.399   .     A
C511   C519    1.405   .     A
C511   H543    1.084   .     S
C511   C513    1.396   .     A
C512   H544    1.083   .     S
C512   C514    1.392   .     A
C512   C520    1.404   .     A
C513   H526    1.083   .     S
C514   H525    1.083   .     S
C515   H542    1.079   .     S
C515   C517    1.393   .     A
C516   H541    1.077   .     S
C516   C518    1.395   .     A
C517   C519    1.416   .     A
C517   C521    1.416   .     A
C518   C520    1.419   .     A
C518   C522    1.418   .     A
C519   C1125   1.392   .     S
C520   C1126   1.391   1_554 S
C521   C1152   1.413   .     S
C522   C1151   1.413   1_554 S
N529   Zn539   2.010   .     S
N530   Zn540   2.010   .     S
O531   Zn539   1.993   .     S
O532   Zn540   1.993   .     S
O533   Zn540   1.996   .     S
O534   Zn539   1.996   .     S
O535   Zn539   1.967   .     S
O536   Zn540   1.967   .     S
O537   Zn540   1.916   .     S
O538   Zn539   1.916   .     S
O547   C548    1.412   .     S
C548   H551    1.111   .     S
C548   H549    1.109   .     S
C548   H550    1.114   .     S
O552   C553    1.410   .     S
C553   H555    1.114   .     S
C553   H556    1.113   .     S
C553   H554    1.109   .     S
C561   C572    1.416   .     S
C561   O601    1.284   .     A
C561   O603    1.280   .     A
C562   O602    1.282   .     A
C562   C571    1.414   .     S
C562   O604    1.281   .     A
C563   C592    1.418   .     A
C563   H615    1.078   .     S
C563   C565    1.390   .     A
C564   H616    1.079   .     S
C564   C591    1.417   .     A
C564   C566    1.387   .     A
C565   H593    1.084   .     S
C565   C1219   1.392   1_554 S
C566   H594    1.084   .     S
C566   C1220   1.391   .     S
C567   C572    1.403   .     A
C567   O617    1.386   .     S
C567   C149    1.379   1_565 S
C568   C571    1.402   .     A
C568   O622    1.383   .     S
C569   C571    1.394   .     A
C569   H627    1.084   .     S
C570   H628    1.085   .     S
C570   C572    1.395   .     A
C570   C148    1.375   1_565 S
C573   H597    1.082   .     S
C573   N600    1.366   .     A
C573   C435    1.417   1_655 S
C574   H598    1.082   .     S
C574   N599    1.366   .     A
C575   N599    1.367   .     A
C575   H629    1.082   .     S
C576   N600    1.367   .     A
C576   H630    1.082   .     S
C576   C434    1.416   1_655 S
C577   C579    1.457   .     S
C577   O607    1.292   .     A
C577   O605    1.294   .     A
C578   C580    1.457   .     S
C578   O606    1.292   .     A
C578   O608    1.293   .     A
C579   C583    1.399   .     A
C579   C585    1.391   .     A
C580   C586    1.394   .     A
C580   C584    1.399   .     A
C581   C589    1.405   .     A
C581   H613    1.084   .     S
C581   C583    1.396   .     A
C582   H614    1.083   .     S
C582   C584    1.392   .     A
C582   C590    1.404   .     A
C583   H596    1.083   .     S
C584   H595    1.083   .     S
C585   H612    1.079   .     S
C585   C587    1.393   .     A
C586   H611    1.077   .     S
C586   C588    1.395   .     A
C587   C589    1.416   .     A
C587   C591    1.416   .     A
C588   C590    1.419   .     A
C588   C592    1.418   .     A
C589   C1195   1.392   .     S
C590   C1196   1.391   1_554 S
C591   C1222   1.413   .     S
C592   C1221   1.413   1_554 S
N599   Zn609   2.010   .     S
N600   Zn610   2.010   .     S
O601   Zn609   1.993   .     S
O602   Zn610   1.993   .     S
O603   Zn610   1.996   .     S
O604   Zn609   1.996   .     S
O605   Zn609   1.967   .     S
O606   Zn610   1.967   .     S
O607   Zn610   1.916   .     S
O608   Zn609   1.916   .     S
O617   C618    1.412   .     S
C618   H621    1.111   .     S
C618   H619    1.109   .     S
C618   H620    1.114   .     S
O622   C623    1.410   .     S
C623   H625    1.114   .     S
C623   H626    1.113   .     S
C623   H624    1.109   .     S
C631   C642    1.416   .     S
C631   O671    1.284   .     A
C631   O673    1.280   .     A
C632   O672    1.282   .     A
C632   C641    1.414   .     S
C632   O674    1.281   .     A
C633   C662    1.418   .     A
C633   H685    1.078   .     S
C633   C635    1.390   .     A
C634   H686    1.079   .     S
C634   C661    1.417   .     A
C634   C636    1.387   .     A
C635   H663    1.084   .     S
C636   H664    1.084   .     S
C636   C30     1.391   1_556 S
C637   C642    1.403   .     A
C637   O687    1.386   .     S
C637   C849    1.379   .     S
C638   C641    1.402   .     A
C638   O692    1.383   .     S
C638   C1060   1.375   1_545 S
C639   C641    1.394   .     A
C639   H697    1.084   .     S
C639   C1057   1.379   1_545 S
C640   H698    1.085   .     S
C640   C642    1.395   .     A
C640   C848    1.375   .     S
C643   H667    1.082   .     S
C643   N670    1.366   .     A
C643   C715    1.417   .     S
C644   H668    1.082   .     S
C644   N669    1.366   .     A
C644   C786    1.416   1_455 S
C645   N669    1.367   .     A
C645   H699    1.082   .     S
C645   C783    1.417   1_455 S
C646   N670    1.367   .     A
C646   H700    1.082   .     S
C646   C714    1.416   .     S
C647   C649    1.457   .     S
C647   O677    1.292   .     A
C647   O675    1.294   .     A
C648   C650    1.457   .     S
C648   O676    1.292   .     A
C648   O678    1.293   .     A
C649   C653    1.399   .     A
C649   C655    1.391   .     A
C650   C656    1.394   .     A
C650   C654    1.399   .     A
C651   C659    1.405   .     A
C651   H683    1.084   .     S
C651   C653    1.396   .     A
C652   H684    1.083   .     S
C652   C654    1.392   .     A
C652   C660    1.404   .     A
C653   H666    1.083   .     S
C654   H665    1.083   .     S
C655   H682    1.079   .     S
C655   C657    1.393   .     A
C656   H681    1.077   .     S
C656   C658    1.395   .     A
C657   C659    1.416   .     A
C657   C661    1.416   .     A
C658   C660    1.419   .     A
C658   C662    1.418   .     A
C659   C5      1.392   1_556 S
C661   C32     1.413   1_556 S
N669   Zn679   2.010   .     S
N670   Zn680   2.010   .     S
O671   Zn679   1.993   .     S
O672   Zn680   1.993   .     S
O673   Zn680   1.996   .     S
O674   Zn679   1.996   .     S
O675   Zn679   1.967   .     S
O676   Zn680   1.967   .     S
O677   Zn680   1.916   .     S
O678   Zn679   1.916   .     S
O687   C688    1.412   .     S
C688   H691    1.111   .     S
C688   H689    1.109   .     S
C688   H690    1.114   .     S
O692   C693    1.410   .     S
C693   H695    1.114   .     S
C693   H696    1.113   .     S
C693   H694    1.109   .     S
C701   C712    1.416   .     S
C701   O741    1.284   .     A
C701   O743    1.280   .     A
C702   O742    1.282   .     A
C702   C711    1.414   .     S
C702   O744    1.281   .     A
C703   C732    1.418   .     A
C703   H755    1.078   .     S
C703   C705    1.390   .     A
C704   H756    1.079   .     S
C704   C731    1.417   .     A
C704   C706    1.387   .     A
C705   H733    1.084   .     S
C706   H734    1.084   .     S
C706   C100    1.391   1_556 S
C707   C712    1.403   .     A
C707   O757    1.386   .     S
C707   C919    1.379   .     S
C708   C711    1.402   .     A
C708   O762    1.383   .     S
C708   C1130   1.375   1_545 S
C709   C711    1.394   .     A
C709   H767    1.084   .     S
C709   C1127   1.379   1_545 S
C710   H768    1.085   .     S
C710   C712    1.395   .     A
C710   C918    1.375   .     S
C713   H737    1.082   .     S
C713   N740    1.366   .     A
C713   C785    1.417   .     S
C714   H738    1.082   .     S
C714   N739    1.366   .     A
C715   N739    1.367   .     A
C715   H769    1.082   .     S
C716   N740    1.367   .     A
C716   H770    1.082   .     S
C716   C784    1.416   .     S
C717   C719    1.457   .     S
C717   O747    1.292   .     A
C717   O745    1.294   .     A
C718   C720    1.457   .     S
C718   O746    1.292   .     A
C718   O748    1.293   .     A
C719   C723    1.399   .     A
C719   C725    1.391   .     A
C720   C726    1.394   .     A
C720   C724    1.399   .     A
C721   C729    1.405   .     A
C721   H753    1.084   .     S
C721   C723    1.396   .     A
C722   H754    1.083   .     S
C722   C724    1.392   .     A
C722   C730    1.404   .     A
C723   H736    1.083   .     S
C724   H735    1.083   .     S
C725   H752    1.079   .     S
C725   C727    1.393   .     A
C726   H751    1.077   .     S
C726   C728    1.395   .     A
C727   C729    1.416   .     A
C727   C731    1.416   .     A
C728   C730    1.419   .     A
C728   C732    1.418   .     A
C729   C75     1.392   1_556 S
C731   C102    1.413   1_556 S
N739   Zn749   2.010   .     S
N740   Zn750   2.010   .     S
O741   Zn749   1.993   .     S
O742   Zn750   1.993   .     S
O743   Zn750   1.996   .     S
O744   Zn749   1.996   .     S
O745   Zn749   1.967   .     S
O746   Zn750   1.967   .     S
O747   Zn750   1.916   .     S
O748   Zn749   1.916   .     S
O757   C758    1.412   .     S
C758   H761    1.111   .     S
C758   H759    1.109   .     S
C758   H760    1.114   .     S
O762   C763    1.410   .     S
C763   H765    1.114   .     S
C763   H766    1.113   .     S
C763   H764    1.109   .     S
C771   C782    1.416   .     S
C771   O811    1.284   .     A
C771   O813    1.280   .     A
C772   O812    1.282   .     A
C772   C781    1.414   .     S
C772   O814    1.281   .     A
C773   C802    1.418   .     A
C773   H825    1.078   .     S
C773   C775    1.390   .     A
C774   H826    1.079   .     S
C774   C801    1.417   .     A
C774   C776    1.387   .     A
C775   H803    1.084   .     S
C776   H804    1.084   .     S
C776   C170    1.391   1_556 S
C777   C782    1.403   .     A
C777   O827    1.386   .     S
C777   C989    1.379   .     S
C778   C781    1.402   .     A
C778   O832    1.383   .     S
C778   C1200   1.375   1_545 S
C779   C781    1.394   .     A
C779   H837    1.084   .     S
C779   C1197   1.379   1_545 S
C780   H838    1.085   .     S
C780   C782    1.395   .     A
C780   C988    1.375   .     S
C783   H807    1.082   .     S
C783   N810    1.366   .     A
C783   C645    1.417   1_655 S
C784   H808    1.082   .     S
C784   N809    1.366   .     A
C785   N809    1.367   .     A
C785   H839    1.082   .     S
C786   N810    1.367   .     A
C786   H840    1.082   .     S
C786   C644    1.416   1_655 S
C787   C789    1.457   .     S
C787   O817    1.292   .     A
C787   O815    1.294   .     A
C788   C790    1.457   .     S
C788   O816    1.292   .     A
C788   O818    1.293   .     A
C789   C793    1.399   .     A
C789   C795    1.391   .     A
C790   C796    1.394   .     A
C790   C794    1.399   .     A
C791   C799    1.405   .     A
C791   H823    1.084   .     S
C791   C793    1.396   .     A
C792   H824    1.083   .     S
C792   C794    1.392   .     A
C792   C800    1.404   .     A
C793   H806    1.083   .     S
C794   H805    1.083   .     S
C795   H822    1.079   .     S
C795   C797    1.393   .     A
C796   H821    1.077   .     S
C796   C798    1.395   .     A
C797   C799    1.416   .     A
C797   C801    1.416   .     A
C798   C800    1.419   .     A
C798   C802    1.418   .     A
C799   C145    1.392   1_556 S
C801   C172    1.413   1_556 S
N809   Zn819   2.010   .     S
N810   Zn820   2.010   .     S
O811   Zn819   1.993   .     S
O812   Zn820   1.993   .     S
O813   Zn820   1.996   .     S
O814   Zn819   1.996   .     S
O815   Zn819   1.967   .     S
O816   Zn820   1.967   .     S
O817   Zn820   1.916   .     S
O818   Zn819   1.916   .     S
O827   C828    1.412   .     S
C828   H831    1.111   .     S
C828   H829    1.109   .     S
C828   H830    1.114   .     S
O832   C833    1.410   .     S
C833   H835    1.114   .     S
C833   H836    1.113   .     S
C833   H834    1.109   .     S
C841   C852    1.416   .     S
C841   O881    1.284   .     A
C841   O883    1.280   .     A
C842   O882    1.282   .     A
C842   C851    1.414   .     S
C842   O884    1.281   .     A
C843   C872    1.418   .     A
C843   H895    1.078   .     S
C843   C845    1.390   .     A
C844   H896    1.079   .     S
C844   C871    1.417   .     A
C844   C846    1.387   .     A
C845   H873    1.084   .     S
C846   H874    1.084   .     S
C846   C240    1.391   1_556 S
C847   C852    1.403   .     A
C847   O897    1.386   .     S
C847   C1059   1.379   .     S
C848   C851    1.402   .     A
C848   O902    1.383   .     S
C849   C851    1.394   .     A
C849   H907    1.084   .     S
C850   H908    1.085   .     S
C850   C852    1.395   .     A
C850   C1058   1.375   .     S
C853   H877    1.082   .     S
C853   N880    1.366   .     A
C853   C925    1.417   .     S
C854   H878    1.082   .     S
C854   N879    1.366   .     A
C854   C996    1.416   1_455 S
C855   N879    1.367   .     A
C855   H909    1.082   .     S
C855   C993    1.417   1_455 S
C856   N880    1.367   .     A
C856   H910    1.082   .     S
C856   C924    1.416   .     S
C857   C859    1.457   .     S
C857   O887    1.292   .     A
C857   O885    1.294   .     A
C858   C860    1.457   .     S
C858   O886    1.292   .     A
C858   O888    1.293   .     A
C859   C863    1.399   .     A
C859   C865    1.391   .     A
C860   C866    1.394   .     A
C860   C864    1.399   .     A
C861   C869    1.405   .     A
C861   H893    1.084   .     S
C861   C863    1.396   .     A
C862   H894    1.083   .     S
C862   C864    1.392   .     A
C862   C870    1.404   .     A
C863   H876    1.083   .     S
C864   H875    1.083   .     S
C865   H892    1.079   .     S
C865   C867    1.393   .     A
C866   H891    1.077   .     S
C866   C868    1.395   .     A
C867   C869    1.416   .     A
C867   C871    1.416   .     A
C868   C870    1.419   .     A
C868   C872    1.418   .     A
C869   C215    1.392   1_556 S
C871   C242    1.413   1_556 S
N879   Zn889   2.010   .     S
N880   Zn890   2.010   .     S
O881   Zn889   1.993   .     S
O882   Zn890   1.993   .     S
O883   Zn890   1.996   .     S
O884   Zn889   1.996   .     S
O885   Zn889   1.967   .     S
O886   Zn890   1.967   .     S
O887   Zn890   1.916   .     S
O888   Zn889   1.916   .     S
O897   C898    1.412   .     S
C898   H901    1.111   .     S
C898   H899    1.109   .     S
C898   H900    1.114   .     S
O902   C903    1.410   .     S
C903   H905    1.114   .     S
C903   H906    1.113   .     S
C903   H904    1.109   .     S
C911   C922    1.416   .     S
C911   O951    1.284   .     A
C911   O953    1.280   .     A
C912   O952    1.282   .     A
C912   C921    1.414   .     S
C912   O954    1.281   .     A
C913   C942    1.418   .     A
C913   H965    1.078   .     S
C913   C915    1.390   .     A
C914   H966    1.079   .     S
C914   C941    1.417   .     A
C914   C916    1.387   .     A
C915   H943    1.084   .     S
C916   H944    1.084   .     S
C916   C310    1.391   1_556 S
C917   C922    1.403   .     A
C917   O967    1.386   .     S
C917   C1129   1.379   .     S
C918   C921    1.402   .     A
C918   O972    1.383   .     S
C919   C921    1.394   .     A
C919   H977    1.084   .     S
C920   H978    1.085   .     S
C920   C922    1.395   .     A
C920   C1128   1.375   .     S
C923   H947    1.082   .     S
C923   N950    1.366   .     A
C923   C995    1.417   .     S
C924   H948    1.082   .     S
C924   N949    1.366   .     A
C925   N949    1.367   .     A
C925   H979    1.082   .     S
C926   N950    1.367   .     A
C926   H980    1.082   .     S
C926   C994    1.416   .     S
C927   C929    1.457   .     S
C927   O957    1.292   .     A
C927   O955    1.294   .     A
C928   C930    1.457   .     S
C928   O956    1.292   .     A
C928   O958    1.293   .     A
C929   C933    1.399   .     A
C929   C935    1.391   .     A
C930   C936    1.394   .     A
C930   C934    1.399   .     A
C931   C939    1.405   .     A
C931   H963    1.084   .     S
C931   C933    1.396   .     A
C932   H964    1.083   .     S
C932   C934    1.392   .     A
C932   C940    1.404   .     A
C933   H946    1.083   .     S
C934   H945    1.083   .     S
C935   H962    1.079   .     S
C935   C937    1.393   .     A
C936   H961    1.077   .     S
C936   C938    1.395   .     A
C937   C939    1.416   .     A
C937   C941    1.416   .     A
C938   C940    1.419   .     A
C938   C942    1.418   .     A
C939   C285    1.392   1_556 S
C941   C312    1.413   1_556 S
N949   Zn959   2.010   .     S
N950   Zn960   2.010   .     S
O951   Zn959   1.993   .     S
O952   Zn960   1.993   .     S
O953   Zn960   1.996   .     S
O954   Zn959   1.996   .     S
O955   Zn959   1.967   .     S
O956   Zn960   1.967   .     S
O957   Zn960   1.916   .     S
O958   Zn959   1.916   .     S
O967   C968    1.412   .     S
C968   H971    1.111   .     S
C968   H969    1.109   .     S
C968   H970    1.114   .     S
O972   C973    1.410   .     S
C973   H975    1.114   .     S
C973   H976    1.113   .     S
C973   H974    1.109   .     S
C981   C992    1.416   .     S
C981   O1021   1.284   .     A
C981   O1023   1.280   .     A
C982   O1022   1.282   .     A
C982   C991    1.414   .     S
C982   O1024   1.281   .     A
C983   C1012   1.418   .     A
C983   H1035   1.078   .     S
C983   C985    1.390   .     A
C984   H1036   1.079   .     S
C984   C1011   1.417   .     A
C984   C986    1.387   .     A
C985   H1013   1.084   .     S
C986   H1014   1.084   .     S
C986   C380    1.391   1_556 S
C987   C992    1.403   .     A
C987   O1037   1.386   .     S
C987   C1199   1.379   .     S
C988   C991    1.402   .     A
C988   O1042   1.383   .     S
C989   C991    1.394   .     A
C989   H1047   1.084   .     S
C990   H1048   1.085   .     S
C990   C992    1.395   .     A
C990   C1198   1.375   .     S
C993   H1017   1.082   .     S
C993   N1020   1.366   .     A
C993   C855    1.417   1_655 S
C994   H1018   1.082   .     S
C994   N1019   1.366   .     A
C995   N1019   1.367   .     A
C995   H1049   1.082   .     S
C996   N1020   1.367   .     A
C996   H1050   1.082   .     S
C996   C854    1.416   1_655 S
C997   C999    1.457   .     S
C997   O1027   1.292   .     A
C997   O1025   1.294   .     A
C998   C1000   1.457   .     S
C998   O1026   1.292   .     A
C998   O1028   1.293   .     A
C999   C1003   1.399   .     A
C999   C1005   1.391   .     A
C1000  C1006   1.394   .     A
C1000  C1004   1.399   .     A
C1001  C1009   1.405   .     A
C1001  H1033   1.084   .     S
C1001  C1003   1.396   .     A
C1002  H1034   1.083   .     S
C1002  C1004   1.392   .     A
C1002  C1010   1.404   .     A
C1003  H1016   1.083   .     S
C1004  H1015   1.083   .     S
C1005  H1032   1.079   .     S
C1005  C1007   1.393   .     A
C1006  H1031   1.077   .     S
C1006  C1008   1.395   .     A
C1007  C1009   1.416   .     A
C1007  C1011   1.416   .     A
C1008  C1010   1.419   .     A
C1008  C1012   1.418   .     A
C1009  C355    1.392   1_556 S
C1011  C382    1.413   1_556 S
N1019  Zn1029  2.010   .     S
N1020  Zn1030  2.010   .     S
O1021  Zn1029  1.993   .     S
O1022  Zn1030  1.993   .     S
O1023  Zn1030  1.996   .     S
O1024  Zn1029  1.996   .     S
O1025  Zn1029  1.967   .     S
O1026  Zn1030  1.967   .     S
O1027  Zn1030  1.916   .     S
O1028  Zn1029  1.916   .     S
O1037  C1038   1.412   .     S
C1038  H1041   1.111   .     S
C1038  H1039   1.109   .     S
C1038  H1040   1.114   .     S
O1042  C1043   1.410   .     S
C1043  H1045   1.114   .     S
C1043  H1046   1.113   .     S
C1043  H1044   1.109   .     S
C1051  C1062   1.416   .     S
C1051  O1091   1.284   .     A
C1051  O1093   1.280   .     A
C1052  O1092   1.282   .     A
C1052  C1061   1.414   .     S
C1052  O1094   1.281   .     A
C1053  C1082   1.418   .     A
C1053  H1105   1.078   .     S
C1053  C1055   1.390   .     A
C1054  H1106   1.079   .     S
C1054  C1081   1.417   .     A
C1054  C1056   1.387   .     A
C1055  H1083   1.084   .     S
C1056  H1084   1.084   .     S
C1056  C450    1.391   1_556 S
C1057  C1062   1.403   .     A
C1057  O1107   1.386   .     S
C1057  C639    1.379   1_565 S
C1058  C1061   1.402   .     A
C1058  O1112   1.383   .     S
C1059  C1061   1.394   .     A
C1059  H1117   1.084   .     S
C1060  H1118   1.085   .     S
C1060  C1062   1.395   .     A
C1060  C638    1.375   1_565 S
C1063  H1087   1.082   .     S
C1063  N1090   1.366   .     A
C1063  C1135   1.417   .     S
C1064  H1088   1.082   .     S
C1064  N1089   1.366   .     A
C1064  C1206   1.416   1_455 S
C1065  N1089   1.367   .     A
C1065  H1119   1.082   .     S
C1065  C1203   1.417   1_455 S
C1066  N1090   1.367   .     A
C1066  H1120   1.082   .     S
C1066  C1134   1.416   .     S
C1067  C1069   1.457   .     S
C1067  O1097   1.292   .     A
C1067  O1095   1.294   .     A
C1068  C1070   1.457   .     S
C1068  O1096   1.292   .     A
C1068  O1098   1.293   .     A
C1069  C1073   1.399   .     A
C1069  C1075   1.391   .     A
C1070  C1076   1.394   .     A
C1070  C1074   1.399   .     A
C1071  C1079   1.405   .     A
C1071  H1103   1.084   .     S
C1071  C1073   1.396   .     A
C1072  H1104   1.083   .     S
C1072  C1074   1.392   .     A
C1072  C1080   1.404   .     A
C1073  H1086   1.083   .     S
C1074  H1085   1.083   .     S
C1075  H1102   1.079   .     S
C1075  C1077   1.393   .     A
C1076  H1101   1.077   .     S
C1076  C1078   1.395   .     A
C1077  C1079   1.416   .     A
C1077  C1081   1.416   .     A
C1078  C1080   1.419   .     A
C1078  C1082   1.418   .     A
C1079  C425    1.392   1_556 S
C1081  C452    1.413   1_556 S
N1089  Zn1099  2.010   .     S
N1090  Zn1100  2.010   .     S
O1091  Zn1099  1.993   .     S
O1092  Zn1100  1.993   .     S
O1093  Zn1100  1.996   .     S
O1094  Zn1099  1.996   .     S
O1095  Zn1099  1.967   .     S
O1096  Zn1100  1.967   .     S
O1097  Zn1100  1.916   .     S
O1098  Zn1099  1.916   .     S
O1107  C1108   1.412   .     S
C1108  H1111   1.111   .     S
C1108  H1109   1.109   .     S
C1108  H1110   1.114   .     S
O1112  C1113   1.410   .     S
C1113  H1115   1.114   .     S
C1113  H1116   1.113   .     S
C1113  H1114   1.109   .     S
C1121  C1132   1.416   .     S
C1121  O1161   1.284   .     A
C1121  O1163   1.280   .     A
C1122  O1162   1.282   .     A
C1122  C1131   1.414   .     S
C1122  O1164   1.281   .     A
C1123  C1152   1.418   .     A
C1123  H1175   1.078   .     S
C1123  C1125   1.390   .     A
C1124  H1176   1.079   .     S
C1124  C1151   1.417   .     A
C1124  C1126   1.387   .     A
C1125  H1153   1.084   .     S
C1126  H1154   1.084   .     S
C1126  C520    1.391   1_556 S
C1127  C1132   1.403   .     A
C1127  O1177   1.386   .     S
C1127  C709    1.379   1_565 S
C1128  C1131   1.402   .     A
C1128  O1182   1.383   .     S
C1129  C1131   1.394   .     A
C1129  H1187   1.084   .     S
C1130  H1188   1.085   .     S
C1130  C1132   1.395   .     A
C1130  C708    1.375   1_565 S
C1133  H1157   1.082   .     S
C1133  N1160   1.366   .     A
C1133  C1205   1.417   .     S
C1134  H1158   1.082   .     S
C1134  N1159   1.366   .     A
C1135  N1159   1.367   .     A
C1135  H1189   1.082   .     S
C1136  N1160   1.367   .     A
C1136  H1190   1.082   .     S
C1136  C1204   1.416   .     S
C1137  C1139   1.457   .     S
C1137  O1167   1.292   .     A
C1137  O1165   1.294   .     A
C1138  C1140   1.457   .     S
C1138  O1166   1.292   .     A
C1138  O1168   1.293   .     A
C1139  C1143   1.399   .     A
C1139  C1145   1.391   .     A
C1140  C1146   1.394   .     A
C1140  C1144   1.399   .     A
C1141  C1149   1.405   .     A
C1141  H1173   1.084   .     S
C1141  C1143   1.396   .     A
C1142  H1174   1.083   .     S
C1142  C1144   1.392   .     A
C1142  C1150   1.404   .     A
C1143  H1156   1.083   .     S
C1144  H1155   1.083   .     S
C1145  H1172   1.079   .     S
C1145  C1147   1.393   .     A
C1146  H1171   1.077   .     S
C1146  C1148   1.395   .     A
C1147  C1149   1.416   .     A
C1147  C1151   1.416   .     A
C1148  C1150   1.419   .     A
C1148  C1152   1.418   .     A
C1149  C495    1.392   1_556 S
C1151  C522    1.413   1_556 S
N1159  Zn1169  2.010   .     S
N1160  Zn1170  2.010   .     S
O1161  Zn1169  1.993   .     S
O1162  Zn1170  1.993   .     S
O1163  Zn1170  1.996   .     S
O1164  Zn1169  1.996   .     S
O1165  Zn1169  1.967   .     S
O1166  Zn1170  1.967   .     S
O1167  Zn1170  1.916   .     S
O1168  Zn1169  1.916   .     S
O1177  C1178   1.412   .     S
C1178  H1181   1.111   .     S
C1178  H1179   1.109   .     S
C1178  H1180   1.114   .     S
O1182  C1183   1.410   .     S
C1183  H1185   1.114   .     S
C1183  H1186   1.113   .     S
C1183  H1184   1.109   .     S
C1191  C1202   1.416   .     S
C1191  O1231   1.284   .     A
C1191  O1233   1.280   .     A
C1192  O1232   1.282   .     A
C1192  C1201   1.414   .     S
C1192  O1234   1.281   .     A
C1193  C1222   1.418   .     A
C1193  H1245   1.078   .     S
C1193  C1195   1.390   .     A
C1194  H1246   1.079   .     S
C1194  C1221   1.417   .     A
C1194  C1196   1.387   .     A
C1195  H1223   1.084   .     S
C1196  H1224   1.084   .     S
C1196  C590    1.391   1_556 S
C1197  C1202   1.403   .     A
C1197  O1247   1.386   .     S
C1197  C779    1.379   1_565 S
C1198  C1201   1.402   .     A
C1198  O1252   1.383   .     S
C1199  C1201   1.394   .     A
C1199  H1257   1.084   .     S
C1200  H1258   1.085   .     S
C1200  C1202   1.395   .     A
C1200  C778    1.375   1_565 S
C1203  H1227   1.082   .     S
C1203  N1230   1.366   .     A
C1203  C1065   1.417   1_655 S
C1204  H1228   1.082   .     S
C1204  N1229   1.366   .     A
C1205  N1229   1.367   .     A
C1205  H1259   1.082   .     S
C1206  N1230   1.367   .     A
C1206  H1260   1.082   .     S
C1206  C1064   1.416   1_655 S
C1207  C1209   1.457   .     S
C1207  O1237   1.292   .     A
C1207  O1235   1.294   .     A
C1208  C1210   1.457   .     S
C1208  O1236   1.292   .     A
C1208  O1238   1.293   .     A
C1209  C1213   1.399   .     A
C1209  C1215   1.391   .     A
C1210  C1216   1.394   .     A
C1210  C1214   1.399   .     A
C1211  C1219   1.405   .     A
C1211  H1243   1.084   .     S
C1211  C1213   1.396   .     A
C1212  H1244   1.083   .     S
C1212  C1214   1.392   .     A
C1212  C1220   1.404   .     A
C1213  H1226   1.083   .     S
C1214  H1225   1.083   .     S
C1215  H1242   1.079   .     S
C1215  C1217   1.393   .     A
C1216  H1241   1.077   .     S
C1216  C1218   1.395   .     A
C1217  C1219   1.416   .     A
C1217  C1221   1.416   .     A
C1218  C1220   1.419   .     A
C1218  C1222   1.418   .     A
C1219  C565    1.392   1_556 S
C1221  C592    1.413   1_556 S
N1229  Zn1239  2.010   .     S
N1230  Zn1240  2.010   .     S
O1231  Zn1239  1.993   .     S
O1232  Zn1240  1.993   .     S
O1233  Zn1240  1.996   .     S
O1234  Zn1239  1.996   .     S
O1235  Zn1239  1.967   .     S
O1236  Zn1240  1.967   .     S
O1237  Zn1240  1.916   .     S
O1238  Zn1239  1.916   .     S
O1247  C1248   1.412   .     S
C1248  H1251   1.111   .     S
C1248  H1249   1.109   .     S
C1248  H1250   1.114   .     S
O1252  C1253   1.410   .     S
C1253  H1255   1.114   .     S
C1253  H1256   1.113   .     S
C1253  H1254   1.109   .     S
