data_str_m3_o1_o10_pcu_sym.25
_audit_creation_date              2020-01-03
_audit_creation_method            'Materials Studio'
_symmetry_space_group_name_H-M    'P1'
_symmetry_Int_Tables_number       1
_symmetry_cell_setting            triclinic
loop_
_symmetry_equiv_pos_as_xyz
  x,y,z
_cell_length_a                    25.7039
_cell_length_b                    32.1951
_cell_length_c                    29.6498
_cell_angle_alpha                 89.1425
_cell_angle_beta                  97.9302
_cell_angle_gamma                 91.4725
loop_
_atom_site_label
_atom_site_type_symbol
_atom_site_fract_x
_atom_site_fract_y
_atom_site_fract_z
_atom_site_U_iso_or_equiv
_atom_site_adp_type
_atom_site_occupancy
C1     C     0.16897   0.08677   0.16706   0.00000  Uiso   1.00
C2     C     0.15073   0.02136   0.20273   0.00000  Uiso   1.00
C3     C     0.16242   0.29077   0.16599   0.00000  Uiso   1.00
C4     C     0.17090   0.04256   0.16735   0.00000  Uiso   1.00
C5     C     0.20120   0.19167   0.02692   0.00000  Uiso   1.00
C6     C     0.13213   0.14167   0.30641   0.00000  Uiso   1.00
C7     C     0.20099   0.19146   0.31258   0.00000  Uiso   1.00
C8     C     0.13234   0.14188   0.02075   0.00000  Uiso   1.00
C9     C     0.21377   0.04162   0.09445   0.00000  Uiso   1.00
C10    C     0.19008   0.03922   0.04888   0.00000  Uiso   1.00
C11    C     0.21440   0.05813   0.01423   0.00000  Uiso   1.00
C12    C     0.16437   0.24656   0.16627   0.00000  Uiso   1.00
C13    C     0.26260   0.07928   0.02475   0.00000  Uiso   1.00
C14    C     0.28668   0.08141   0.06993   0.00000  Uiso   1.00
C15    C     0.26234   0.06281   0.10477   0.00000  Uiso   1.00
C16    C     0.11946   0.29172   0.23884   0.00000  Uiso   1.00
C17    C     0.07095   0.27046   0.22844   0.00000  Uiso   1.00
C18    C     0.04651   0.25189   0.26324   0.00000  Uiso   1.00
C19    C     0.07043   0.25412   0.30845   0.00000  Uiso   1.00
C20    C     0.11858   0.27533   0.31905   0.00000  Uiso   1.00
C21    C     0.14299   0.29421   0.28444   0.00000  Uiso   1.00
C22    C     0.06716   0.16655   0.15487   0.00000  Uiso   1.00
C23    C     0.26617   0.16678   0.17847   0.00000  Uiso   1.00
C24    C     0.01225   0.16615   0.14847   0.00000  Uiso   1.00
C25    C     0.32108   0.16715   0.18486   0.00000  Uiso   1.00
C26    C     0.18814   0.02119   0.13116   0.00000  Uiso   1.00
C27    C     0.14517   0.31214   0.20217   0.00000  Uiso   1.00
C28    C     0.18259   0.31197   0.13061   0.00000  Uiso   1.00
H29    H     0.32546   0.16490   0.11380   0.00000  Uiso   1.00
H30    H     0.32436   0.09730   0.07788   0.00000  Uiso   1.00
H31    H     0.28137   0.06470   0.13966   0.00000  Uiso   1.00
H32    H     0.05205   0.26848   0.19353   0.00000  Uiso   1.00
H33    H     0.00887   0.23596   0.25522   0.00000  Uiso   1.00
H34    H     0.05157   0.23954   0.00195   0.00000  Uiso   1.00
H35    H     0.13702   0.27706   0.02075   0.00000  Uiso   1.00
H36    H     0.18041   0.31041   0.29307   0.00000  Uiso   1.00
H37    H     0.00787   0.16839   0.21953   0.00000  Uiso   1.00
H38    H     0.19605   0.29538   0.10317   0.00000  Uiso   1.00
H39    H     0.13725   0.03795   0.23016   0.00000  Uiso   1.00
H40    H     0.22822   0.21134   0.29699   0.00000  Uiso   1.00
H41    H     0.10510   0.12200   0.03634   0.00000  Uiso   1.00
H42    H     0.15261   0.02309   0.04032   0.00000  Uiso   1.00
H43    H     0.19583   0.05648   0.31256   0.00000  Uiso   1.00
H44    H     0.28137   0.09389   0.33122   0.00000  Uiso   1.00
I45    I     0.25700   0.23280   0.06267   0.00000  Uiso   1.00
I46    I     0.07634   0.10054   0.27067   0.00000  Uiso   1.00
N47    N     0.16665   0.16666   0.28573   0.00000  Uiso   1.00
N48    N     0.16668   0.16668   0.04760   0.00000  Uiso   1.00
O49    O     0.16666   0.10558   0.20487   0.00000  Uiso   1.00
O50    O     0.16667   0.22775   0.12846   0.00000  Uiso   1.00
O51    O     0.16666   0.10559   0.12843   0.00000  Uiso   1.00
O52    O     0.16667   0.22774   0.20490   0.00000  Uiso   1.00
O53    O     0.09058   0.16666   0.19595   0.00000  Uiso   1.00
O54    O     0.24275   0.16667   0.13739   0.00000  Uiso   1.00
O55    O     0.09058   0.16667   0.11950   0.00000  Uiso   1.00
O56    O     0.24275   0.16666   0.21383   0.00000  Uiso   1.00
Zn57   Zn    0.16667   0.16666   0.21771   0.00000  Uiso   1.00
Zn58   Zn    0.16667   0.16667   0.11563   0.00000  Uiso   1.00
C59    C     0.50230   0.08677   0.16706   0.00000  Uiso   1.00
C60    C     0.48406   0.02136   0.20273   0.00000  Uiso   1.00
C61    C     0.49575   0.29077   0.16599   0.00000  Uiso   1.00
C62    C     0.50423   0.04256   0.16735   0.00000  Uiso   1.00
C63    C     0.53454   0.19167   0.02692   0.00000  Uiso   1.00
C64    C     0.46546   0.14167   0.30641   0.00000  Uiso   1.00
C65    C     0.53432   0.19146   0.31258   0.00000  Uiso   1.00
C66    C     0.46567   0.14188   0.02075   0.00000  Uiso   1.00
C67    C     0.54710   0.04162   0.09445   0.00000  Uiso   1.00
C68    C     0.52341   0.03922   0.04888   0.00000  Uiso   1.00
C69    C     0.54773   0.05813   0.01423   0.00000  Uiso   1.00
C70    C     0.49770   0.24656   0.16627   0.00000  Uiso   1.00
C71    C     0.59594   0.07928   0.02475   0.00000  Uiso   1.00
C72    C     0.62002   0.08141   0.06993   0.00000  Uiso   1.00
C73    C     0.59568   0.06281   0.10477   0.00000  Uiso   1.00
C74    C     0.45280   0.29172   0.23884   0.00000  Uiso   1.00
C75    C     0.40429   0.27046   0.22844   0.00000  Uiso   1.00
C76    C     0.37985   0.25189   0.26324   0.00000  Uiso   1.00
C77    C     0.40376   0.25412   0.30845   0.00000  Uiso   1.00
C78    C     0.45191   0.27533   0.31905   0.00000  Uiso   1.00
C79    C     0.47632   0.29421   0.28444   0.00000  Uiso   1.00
C80    C     0.40050   0.16655   0.15487   0.00000  Uiso   1.00
C81    C     0.59950   0.16678   0.17847   0.00000  Uiso   1.00
C82    C     0.34559   0.16615   0.14847   0.00000  Uiso   1.00
C83    C     0.65441   0.16715   0.18486   0.00000  Uiso   1.00
C84    C     0.52147   0.02119   0.13116   0.00000  Uiso   1.00
C85    C     0.47850   0.31214   0.20217   0.00000  Uiso   1.00
C86    C     0.51592   0.31197   0.13061   0.00000  Uiso   1.00
H87    H     0.65879   0.16490   0.11380   0.00000  Uiso   1.00
H88    H     0.65769   0.09730   0.07788   0.00000  Uiso   1.00
H89    H     0.61470   0.06470   0.13966   0.00000  Uiso   1.00
H90    H     0.38538   0.26848   0.19353   0.00000  Uiso   1.00
H91    H     0.34221   0.23596   0.25522   0.00000  Uiso   1.00
H92    H     0.38490   0.23954   0.00195   0.00000  Uiso   1.00
H93    H     0.47035   0.27706   0.02075   0.00000  Uiso   1.00
H94    H     0.51374   0.31041   0.29307   0.00000  Uiso   1.00
H95    H     0.34121   0.16839   0.21953   0.00000  Uiso   1.00
H96    H     0.52939   0.29538   0.10317   0.00000  Uiso   1.00
H97    H     0.47058   0.03795   0.23016   0.00000  Uiso   1.00
H98    H     0.56156   0.21134   0.29699   0.00000  Uiso   1.00
H99    H     0.43844   0.12200   0.03634   0.00000  Uiso   1.00
H100   H     0.48594   0.02309   0.04032   0.00000  Uiso   1.00
H101   H     0.52916   0.05648   0.31256   0.00000  Uiso   1.00
H102   H     0.61471   0.09389   0.33122   0.00000  Uiso   1.00
I103   I     0.59033   0.23280   0.06267   0.00000  Uiso   1.00
I104   I     0.40967   0.10054   0.27067   0.00000  Uiso   1.00
N105   N     0.49999   0.16666   0.28573   0.00000  Uiso   1.00
N106   N     0.50001   0.16668   0.04760   0.00000  Uiso   1.00
O107   O     0.50000   0.10558   0.20487   0.00000  Uiso   1.00
O108   O     0.50000   0.22775   0.12846   0.00000  Uiso   1.00
O109   O     0.50000   0.10559   0.12843   0.00000  Uiso   1.00
O110   O     0.50000   0.22774   0.20490   0.00000  Uiso   1.00
O111   O     0.42392   0.16666   0.19595   0.00000  Uiso   1.00
O112   O     0.57608   0.16667   0.13739   0.00000  Uiso   1.00
O113   O     0.42392   0.16667   0.11950   0.00000  Uiso   1.00
O114   O     0.57608   0.16666   0.21383   0.00000  Uiso   1.00
Zn115  Zn    0.50000   0.16666   0.21771   0.00000  Uiso   1.00
Zn116  Zn    0.50000   0.16667   0.11563   0.00000  Uiso   1.00
C117   C     0.83563   0.08677   0.16706   0.00000  Uiso   1.00
C118   C     0.81739   0.02136   0.20273   0.00000  Uiso   1.00
C119   C     0.82909   0.29077   0.16599   0.00000  Uiso   1.00
C120   C     0.83757   0.04256   0.16735   0.00000  Uiso   1.00
C121   C     0.86787   0.19167   0.02692   0.00000  Uiso   1.00
C122   C     0.79879   0.14167   0.30641   0.00000  Uiso   1.00
C123   C     0.86765   0.19146   0.31258   0.00000  Uiso   1.00
C124   C     0.79901   0.14188   0.02075   0.00000  Uiso   1.00
C125   C     0.88044   0.04162   0.09445   0.00000  Uiso   1.00
C126   C     0.85675   0.03922   0.04888   0.00000  Uiso   1.00
C127   C     0.88107   0.05813   0.01423   0.00000  Uiso   1.00
C128   C     0.83104   0.24656   0.16627   0.00000  Uiso   1.00
C129   C     0.92927   0.07928   0.02475   0.00000  Uiso   1.00
C130   C     0.95335   0.08141   0.06993   0.00000  Uiso   1.00
C131   C     0.92901   0.06281   0.10477   0.00000  Uiso   1.00
C132   C     0.78613   0.29172   0.23884   0.00000  Uiso   1.00
C133   C     0.73762   0.27046   0.22844   0.00000  Uiso   1.00
C134   C     0.71318   0.25189   0.26324   0.00000  Uiso   1.00
C135   C     0.73710   0.25412   0.30845   0.00000  Uiso   1.00
C136   C     0.78524   0.27533   0.31905   0.00000  Uiso   1.00
C137   C     0.80966   0.29421   0.28444   0.00000  Uiso   1.00
C138   C     0.73383   0.16655   0.15487   0.00000  Uiso   1.00
C139   C     0.93284   0.16678   0.17847   0.00000  Uiso   1.00
C140   C     0.67892   0.16615   0.14847   0.00000  Uiso   1.00
C141   C     0.98775   0.16715   0.18486   0.00000  Uiso   1.00
C142   C     0.85480   0.02119   0.13116   0.00000  Uiso   1.00
C143   C     0.81184   0.31214   0.20217   0.00000  Uiso   1.00
C144   C     0.84925   0.31197   0.13061   0.00000  Uiso   1.00
H145   H     0.99212   0.16490   0.11380   0.00000  Uiso   1.00
H146   H     0.99103   0.09730   0.07788   0.00000  Uiso   1.00
H147   H     0.94803   0.06470   0.13966   0.00000  Uiso   1.00
H148   H     0.71872   0.26848   0.19353   0.00000  Uiso   1.00
H149   H     0.67554   0.23596   0.25522   0.00000  Uiso   1.00
H150   H     0.71823   0.23954   0.00195   0.00000  Uiso   1.00
H151   H     0.80369   0.27706   0.02075   0.00000  Uiso   1.00
H152   H     0.84707   0.31041   0.29307   0.00000  Uiso   1.00
H153   H     0.67454   0.16839   0.21953   0.00000  Uiso   1.00
H154   H     0.86272   0.29538   0.10317   0.00000  Uiso   1.00
H155   H     0.80391   0.03795   0.23016   0.00000  Uiso   1.00
H156   H     0.89489   0.21134   0.29699   0.00000  Uiso   1.00
H157   H     0.77177   0.12200   0.03634   0.00000  Uiso   1.00
H158   H     0.81928   0.02309   0.04032   0.00000  Uiso   1.00
H159   H     0.86250   0.05648   0.31256   0.00000  Uiso   1.00
H160   H     0.94804   0.09389   0.33122   0.00000  Uiso   1.00
I161   I     0.92366   0.23280   0.06267   0.00000  Uiso   1.00
I162   I     0.74300   0.10054   0.27067   0.00000  Uiso   1.00
N163   N     0.83332   0.16666   0.28573   0.00000  Uiso   1.00
N164   N     0.83335   0.16668   0.04760   0.00000  Uiso   1.00
O165   O     0.83333   0.10558   0.20487   0.00000  Uiso   1.00
O166   O     0.83334   0.22775   0.12846   0.00000  Uiso   1.00
O167   O     0.83333   0.10559   0.12843   0.00000  Uiso   1.00
O168   O     0.83334   0.22774   0.20490   0.00000  Uiso   1.00
O169   O     0.75725   0.16666   0.19595   0.00000  Uiso   1.00
O170   O     0.90942   0.16667   0.13739   0.00000  Uiso   1.00
O171   O     0.75725   0.16667   0.11950   0.00000  Uiso   1.00
O172   O     0.90942   0.16666   0.21383   0.00000  Uiso   1.00
Zn173  Zn    0.83333   0.16666   0.21771   0.00000  Uiso   1.00
Zn174  Zn    0.83333   0.16667   0.11563   0.00000  Uiso   1.00
C175   C     0.16897   0.42011   0.16706   0.00000  Uiso   1.00
C176   C     0.15073   0.35469   0.20273   0.00000  Uiso   1.00
C177   C     0.16242   0.62411   0.16599   0.00000  Uiso   1.00
C178   C     0.17090   0.37589   0.16735   0.00000  Uiso   1.00
C179   C     0.20120   0.52500   0.02692   0.00000  Uiso   1.00
C180   C     0.13213   0.47500   0.30641   0.00000  Uiso   1.00
C181   C     0.20099   0.52480   0.31258   0.00000  Uiso   1.00
C182   C     0.13234   0.47521   0.02075   0.00000  Uiso   1.00
C183   C     0.21377   0.37495   0.09445   0.00000  Uiso   1.00
C184   C     0.19008   0.37255   0.04888   0.00000  Uiso   1.00
C185   C     0.21440   0.39147   0.01423   0.00000  Uiso   1.00
C186   C     0.16437   0.57989   0.16627   0.00000  Uiso   1.00
C187   C     0.26260   0.41262   0.02475   0.00000  Uiso   1.00
C188   C     0.28668   0.41475   0.06993   0.00000  Uiso   1.00
C189   C     0.26234   0.39614   0.10477   0.00000  Uiso   1.00
C190   C     0.11946   0.62505   0.23884   0.00000  Uiso   1.00
C191   C     0.07095   0.60379   0.22844   0.00000  Uiso   1.00
C192   C     0.04651   0.58522   0.26324   0.00000  Uiso   1.00
C193   C     0.07043   0.58745   0.30845   0.00000  Uiso   1.00
C194   C     0.11858   0.60866   0.31905   0.00000  Uiso   1.00
C195   C     0.14299   0.62755   0.28444   0.00000  Uiso   1.00
C196   C     0.06716   0.49988   0.15487   0.00000  Uiso   1.00
C197   C     0.26617   0.50011   0.17847   0.00000  Uiso   1.00
C198   C     0.01225   0.49948   0.14847   0.00000  Uiso   1.00
C199   C     0.32108   0.50048   0.18486   0.00000  Uiso   1.00
C200   C     0.18814   0.35452   0.13116   0.00000  Uiso   1.00
C201   C     0.14517   0.64548   0.20217   0.00000  Uiso   1.00
C202   C     0.18259   0.64531   0.13061   0.00000  Uiso   1.00
H203   H     0.32546   0.49824   0.11380   0.00000  Uiso   1.00
H204   H     0.32436   0.43063   0.07788   0.00000  Uiso   1.00
H205   H     0.28137   0.39804   0.13966   0.00000  Uiso   1.00
H206   H     0.05205   0.60182   0.19353   0.00000  Uiso   1.00
H207   H     0.00887   0.56930   0.25522   0.00000  Uiso   1.00
H208   H     0.05157   0.57287   0.00195   0.00000  Uiso   1.00
H209   H     0.13702   0.61039   0.02075   0.00000  Uiso   1.00
H210   H     0.18041   0.64374   0.29307   0.00000  Uiso   1.00
H211   H     0.00787   0.50172   0.21953   0.00000  Uiso   1.00
H212   H     0.19605   0.62871   0.10317   0.00000  Uiso   1.00
H213   H     0.13725   0.37129   0.23016   0.00000  Uiso   1.00
H214   H     0.22822   0.54468   0.29699   0.00000  Uiso   1.00
H215   H     0.10510   0.45533   0.03634   0.00000  Uiso   1.00
H216   H     0.15261   0.35642   0.04032   0.00000  Uiso   1.00
H217   H     0.19583   0.38982   0.31256   0.00000  Uiso   1.00
H218   H     0.28137   0.42723   0.33122   0.00000  Uiso   1.00
I219   I     0.25700   0.56613   0.06267   0.00000  Uiso   1.00
I220   I     0.07634   0.43387   0.27067   0.00000  Uiso   1.00
N221   N     0.16665   0.49999   0.28573   0.00000  Uiso   1.00
N222   N     0.16668   0.50001   0.04760   0.00000  Uiso   1.00
O223   O     0.16666   0.43892   0.20487   0.00000  Uiso   1.00
O224   O     0.16667   0.56108   0.12846   0.00000  Uiso   1.00
O225   O     0.16666   0.43893   0.12843   0.00000  Uiso   1.00
O226   O     0.16667   0.56107   0.20490   0.00000  Uiso   1.00
O227   O     0.09058   0.50000   0.19595   0.00000  Uiso   1.00
O228   O     0.24275   0.50000   0.13739   0.00000  Uiso   1.00
O229   O     0.09058   0.50000   0.11950   0.00000  Uiso   1.00
O230   O     0.24275   0.50000   0.21383   0.00000  Uiso   1.00
Zn231  Zn    0.16667   0.49999   0.21771   0.00000  Uiso   1.00
Zn232  Zn    0.16667   0.50001   0.11563   0.00000  Uiso   1.00
C233   C     0.50230   0.42011   0.16706   0.00000  Uiso   1.00
C234   C     0.48406   0.35469   0.20273   0.00000  Uiso   1.00
C235   C     0.49575   0.62411   0.16599   0.00000  Uiso   1.00
C236   C     0.50423   0.37589   0.16735   0.00000  Uiso   1.00
C237   C     0.53454   0.52500   0.02692   0.00000  Uiso   1.00
C238   C     0.46546   0.47500   0.30641   0.00000  Uiso   1.00
C239   C     0.53432   0.52480   0.31258   0.00000  Uiso   1.00
C240   C     0.46567   0.47521   0.02075   0.00000  Uiso   1.00
C241   C     0.54710   0.37495   0.09445   0.00000  Uiso   1.00
C242   C     0.52341   0.37255   0.04888   0.00000  Uiso   1.00
C243   C     0.54773   0.39147   0.01423   0.00000  Uiso   1.00
C244   C     0.49770   0.57989   0.16627   0.00000  Uiso   1.00
C245   C     0.59594   0.41262   0.02475   0.00000  Uiso   1.00
C246   C     0.62002   0.41475   0.06993   0.00000  Uiso   1.00
C247   C     0.59568   0.39614   0.10477   0.00000  Uiso   1.00
C248   C     0.45280   0.62505   0.23884   0.00000  Uiso   1.00
C249   C     0.40429   0.60379   0.22844   0.00000  Uiso   1.00
C250   C     0.37985   0.58522   0.26324   0.00000  Uiso   1.00
C251   C     0.40376   0.58745   0.30845   0.00000  Uiso   1.00
C252   C     0.45191   0.60866   0.31905   0.00000  Uiso   1.00
C253   C     0.47632   0.62755   0.28444   0.00000  Uiso   1.00
C254   C     0.40050   0.49988   0.15487   0.00000  Uiso   1.00
C255   C     0.59950   0.50011   0.17847   0.00000  Uiso   1.00
C256   C     0.34559   0.49948   0.14847   0.00000  Uiso   1.00
C257   C     0.65441   0.50048   0.18486   0.00000  Uiso   1.00
C258   C     0.52147   0.35452   0.13116   0.00000  Uiso   1.00
C259   C     0.47850   0.64548   0.20217   0.00000  Uiso   1.00
C260   C     0.51592   0.64531   0.13061   0.00000  Uiso   1.00
H261   H     0.65879   0.49824   0.11380   0.00000  Uiso   1.00
H262   H     0.65769   0.43063   0.07788   0.00000  Uiso   1.00
H263   H     0.61470   0.39804   0.13966   0.00000  Uiso   1.00
H264   H     0.38538   0.60182   0.19353   0.00000  Uiso   1.00
H265   H     0.34221   0.56930   0.25522   0.00000  Uiso   1.00
H266   H     0.38490   0.57287   0.00195   0.00000  Uiso   1.00
H267   H     0.47035   0.61039   0.02075   0.00000  Uiso   1.00
H268   H     0.51374   0.64374   0.29307   0.00000  Uiso   1.00
H269   H     0.34121   0.50172   0.21953   0.00000  Uiso   1.00
H270   H     0.52939   0.62871   0.10317   0.00000  Uiso   1.00
H271   H     0.47058   0.37129   0.23016   0.00000  Uiso   1.00
H272   H     0.56156   0.54468   0.29699   0.00000  Uiso   1.00
H273   H     0.43844   0.45533   0.03634   0.00000  Uiso   1.00
H274   H     0.48594   0.35642   0.04032   0.00000  Uiso   1.00
H275   H     0.52916   0.38982   0.31256   0.00000  Uiso   1.00
H276   H     0.61471   0.42723   0.33122   0.00000  Uiso   1.00
I277   I     0.59033   0.56613   0.06267   0.00000  Uiso   1.00
I278   I     0.40967   0.43387   0.27067   0.00000  Uiso   1.00
N279   N     0.49999   0.49999   0.28573   0.00000  Uiso   1.00
N280   N     0.50001   0.50001   0.04760   0.00000  Uiso   1.00
O281   O     0.50000   0.43892   0.20487   0.00000  Uiso   1.00
O282   O     0.50000   0.56108   0.12846   0.00000  Uiso   1.00
O283   O     0.50000   0.43893   0.12843   0.00000  Uiso   1.00
O284   O     0.50000   0.56107   0.20490   0.00000  Uiso   1.00
O285   O     0.42392   0.50000   0.19595   0.00000  Uiso   1.00
O286   O     0.57608   0.50000   0.13739   0.00000  Uiso   1.00
O287   O     0.42392   0.50000   0.11950   0.00000  Uiso   1.00
O288   O     0.57608   0.50000   0.21383   0.00000  Uiso   1.00
Zn289  Zn    0.50000   0.49999   0.21771   0.00000  Uiso   1.00
Zn290  Zn    0.50000   0.50001   0.11563   0.00000  Uiso   1.00
C291   C     0.83563   0.42011   0.16706   0.00000  Uiso   1.00
C292   C     0.81739   0.35469   0.20273   0.00000  Uiso   1.00
C293   C     0.82909   0.62411   0.16599   0.00000  Uiso   1.00
C294   C     0.83757   0.37589   0.16735   0.00000  Uiso   1.00
C295   C     0.86787   0.52500   0.02692   0.00000  Uiso   1.00
C296   C     0.79879   0.47500   0.30641   0.00000  Uiso   1.00
C297   C     0.86765   0.52480   0.31258   0.00000  Uiso   1.00
C298   C     0.79901   0.47521   0.02075   0.00000  Uiso   1.00
C299   C     0.88044   0.37495   0.09445   0.00000  Uiso   1.00
C300   C     0.85675   0.37255   0.04888   0.00000  Uiso   1.00
C301   C     0.88107   0.39147   0.01423   0.00000  Uiso   1.00
C302   C     0.83104   0.57989   0.16627   0.00000  Uiso   1.00
C303   C     0.92927   0.41262   0.02475   0.00000  Uiso   1.00
C304   C     0.95335   0.41475   0.06993   0.00000  Uiso   1.00
C305   C     0.92901   0.39614   0.10477   0.00000  Uiso   1.00
C306   C     0.78613   0.62505   0.23884   0.00000  Uiso   1.00
C307   C     0.73762   0.60379   0.22844   0.00000  Uiso   1.00
C308   C     0.71318   0.58522   0.26324   0.00000  Uiso   1.00
C309   C     0.73710   0.58745   0.30845   0.00000  Uiso   1.00
C310   C     0.78524   0.60866   0.31905   0.00000  Uiso   1.00
C311   C     0.80966   0.62755   0.28444   0.00000  Uiso   1.00
C312   C     0.73383   0.49988   0.15487   0.00000  Uiso   1.00
C313   C     0.93284   0.50011   0.17847   0.00000  Uiso   1.00
C314   C     0.67892   0.49948   0.14847   0.00000  Uiso   1.00
C315   C     0.98775   0.50048   0.18486   0.00000  Uiso   1.00
C316   C     0.85480   0.35452   0.13116   0.00000  Uiso   1.00
C317   C     0.81184   0.64548   0.20217   0.00000  Uiso   1.00
C318   C     0.84925   0.64531   0.13061   0.00000  Uiso   1.00
H319   H     0.99212   0.49824   0.11380   0.00000  Uiso   1.00
H320   H     0.99103   0.43063   0.07788   0.00000  Uiso   1.00
H321   H     0.94803   0.39804   0.13966   0.00000  Uiso   1.00
H322   H     0.71872   0.60182   0.19353   0.00000  Uiso   1.00
H323   H     0.67554   0.56930   0.25522   0.00000  Uiso   1.00
H324   H     0.71823   0.57287   0.00195   0.00000  Uiso   1.00
H325   H     0.80369   0.61039   0.02075   0.00000  Uiso   1.00
H326   H     0.84707   0.64374   0.29307   0.00000  Uiso   1.00
H327   H     0.67454   0.50172   0.21953   0.00000  Uiso   1.00
H328   H     0.86272   0.62871   0.10317   0.00000  Uiso   1.00
H329   H     0.80391   0.37129   0.23016   0.00000  Uiso   1.00
H330   H     0.89489   0.54468   0.29699   0.00000  Uiso   1.00
H331   H     0.77177   0.45533   0.03634   0.00000  Uiso   1.00
H332   H     0.81928   0.35642   0.04032   0.00000  Uiso   1.00
H333   H     0.86250   0.38982   0.31256   0.00000  Uiso   1.00
H334   H     0.94804   0.42723   0.33122   0.00000  Uiso   1.00
I335   I     0.92366   0.56613   0.06267   0.00000  Uiso   1.00
I336   I     0.74300   0.43387   0.27067   0.00000  Uiso   1.00
N337   N     0.83332   0.49999   0.28573   0.00000  Uiso   1.00
N338   N     0.83335   0.50001   0.04760   0.00000  Uiso   1.00
O339   O     0.83333   0.43892   0.20487   0.00000  Uiso   1.00
O340   O     0.83334   0.56108   0.12846   0.00000  Uiso   1.00
O341   O     0.83333   0.43893   0.12843   0.00000  Uiso   1.00
O342   O     0.83334   0.56107   0.20490   0.00000  Uiso   1.00
O343   O     0.75725   0.50000   0.19595   0.00000  Uiso   1.00
O344   O     0.90942   0.50000   0.13739   0.00000  Uiso   1.00
O345   O     0.75725   0.50000   0.11950   0.00000  Uiso   1.00
O346   O     0.90942   0.50000   0.21383   0.00000  Uiso   1.00
Zn347  Zn    0.83333   0.49999   0.21771   0.00000  Uiso   1.00
Zn348  Zn    0.83333   0.50001   0.11563   0.00000  Uiso   1.00
C349   C     0.16897   0.75344   0.16706   0.00000  Uiso   1.00
C350   C     0.15073   0.68803   0.20273   0.00000  Uiso   1.00
C351   C     0.16242   0.95744   0.16599   0.00000  Uiso   1.00
C352   C     0.17090   0.70922   0.16735   0.00000  Uiso   1.00
C353   C     0.20120   0.85833   0.02692   0.00000  Uiso   1.00
C354   C     0.13213   0.80834   0.30641   0.00000  Uiso   1.00
C355   C     0.20099   0.85813   0.31258   0.00000  Uiso   1.00
C356   C     0.13234   0.80854   0.02075   0.00000  Uiso   1.00
C357   C     0.21377   0.70829   0.09445   0.00000  Uiso   1.00
C358   C     0.19008   0.70589   0.04888   0.00000  Uiso   1.00
C359   C     0.21440   0.72480   0.01423   0.00000  Uiso   1.00
C360   C     0.16437   0.91323   0.16627   0.00000  Uiso   1.00
C361   C     0.26260   0.74595   0.02475   0.00000  Uiso   1.00
C362   C     0.28668   0.74808   0.06993   0.00000  Uiso   1.00
C363   C     0.26234   0.72947   0.10477   0.00000  Uiso   1.00
C364   C     0.11946   0.95838   0.23884   0.00000  Uiso   1.00
C365   C     0.07095   0.93712   0.22844   0.00000  Uiso   1.00
C366   C     0.04651   0.91855   0.26324   0.00000  Uiso   1.00
C367   C     0.07043   0.92078   0.30845   0.00000  Uiso   1.00
C368   C     0.11858   0.94199   0.31905   0.00000  Uiso   1.00
C369   C     0.14299   0.96088   0.28444   0.00000  Uiso   1.00
C370   C     0.06716   0.83321   0.15487   0.00000  Uiso   1.00
C371   C     0.26617   0.83344   0.17847   0.00000  Uiso   1.00
C372   C     0.01225   0.83281   0.14847   0.00000  Uiso   1.00
C373   C     0.32108   0.83381   0.18486   0.00000  Uiso   1.00
C374   C     0.18814   0.68785   0.13116   0.00000  Uiso   1.00
C375   C     0.14517   0.97881   0.20217   0.00000  Uiso   1.00
C376   C     0.18259   0.97864   0.13061   0.00000  Uiso   1.00
H377   H     0.32546   0.83157   0.11380   0.00000  Uiso   1.00
H378   H     0.32436   0.76396   0.07788   0.00000  Uiso   1.00
H379   H     0.28137   0.73137   0.13966   0.00000  Uiso   1.00
H380   H     0.05205   0.93515   0.19353   0.00000  Uiso   1.00
H381   H     0.00887   0.90263   0.25522   0.00000  Uiso   1.00
H382   H     0.05157   0.90620   0.00195   0.00000  Uiso   1.00
H383   H     0.13702   0.94372   0.02075   0.00000  Uiso   1.00
H384   H     0.18041   0.97707   0.29307   0.00000  Uiso   1.00
H385   H     0.00787   0.83505   0.21953   0.00000  Uiso   1.00
H386   H     0.19605   0.96205   0.10317   0.00000  Uiso   1.00
H387   H     0.13725   0.70462   0.23016   0.00000  Uiso   1.00
H388   H     0.22822   0.87801   0.29699   0.00000  Uiso   1.00
H389   H     0.10510   0.78867   0.03634   0.00000  Uiso   1.00
H390   H     0.15261   0.68975   0.04032   0.00000  Uiso   1.00
H391   H     0.19583   0.72315   0.31256   0.00000  Uiso   1.00
H392   H     0.28137   0.76056   0.33122   0.00000  Uiso   1.00
I393   I     0.25700   0.89947   0.06267   0.00000  Uiso   1.00
I394   I     0.07634   0.76720   0.27067   0.00000  Uiso   1.00
N395   N     0.16665   0.83332   0.28573   0.00000  Uiso   1.00
N396   N     0.16668   0.83334   0.04760   0.00000  Uiso   1.00
O397   O     0.16666   0.77225   0.20487   0.00000  Uiso   1.00
O398   O     0.16667   0.89442   0.12846   0.00000  Uiso   1.00
O399   O     0.16666   0.77226   0.12843   0.00000  Uiso   1.00
O400   O     0.16667   0.89441   0.20490   0.00000  Uiso   1.00
O401   O     0.09058   0.83333   0.19595   0.00000  Uiso   1.00
O402   O     0.24275   0.83334   0.13739   0.00000  Uiso   1.00
O403   O     0.09058   0.83334   0.11950   0.00000  Uiso   1.00
O404   O     0.24275   0.83333   0.21383   0.00000  Uiso   1.00
Zn405  Zn    0.16667   0.83333   0.21771   0.00000  Uiso   1.00
Zn406  Zn    0.16667   0.83334   0.11563   0.00000  Uiso   1.00
C407   C     0.50230   0.75344   0.16706   0.00000  Uiso   1.00
C408   C     0.48406   0.68803   0.20273   0.00000  Uiso   1.00
C409   C     0.49575   0.95744   0.16599   0.00000  Uiso   1.00
C410   C     0.50423   0.70922   0.16735   0.00000  Uiso   1.00
C411   C     0.53454   0.85833   0.02692   0.00000  Uiso   1.00
C412   C     0.46546   0.80834   0.30641   0.00000  Uiso   1.00
C413   C     0.53432   0.85813   0.31258   0.00000  Uiso   1.00
C414   C     0.46567   0.80854   0.02075   0.00000  Uiso   1.00
C415   C     0.54710   0.70829   0.09445   0.00000  Uiso   1.00
C416   C     0.52341   0.70589   0.04888   0.00000  Uiso   1.00
C417   C     0.54773   0.72480   0.01423   0.00000  Uiso   1.00
C418   C     0.49770   0.91323   0.16627   0.00000  Uiso   1.00
C419   C     0.59594   0.74595   0.02475   0.00000  Uiso   1.00
C420   C     0.62002   0.74808   0.06993   0.00000  Uiso   1.00
C421   C     0.59568   0.72947   0.10477   0.00000  Uiso   1.00
C422   C     0.45280   0.95838   0.23884   0.00000  Uiso   1.00
C423   C     0.40429   0.93712   0.22844   0.00000  Uiso   1.00
C424   C     0.37985   0.91855   0.26324   0.00000  Uiso   1.00
C425   C     0.40376   0.92078   0.30845   0.00000  Uiso   1.00
C426   C     0.45191   0.94199   0.31905   0.00000  Uiso   1.00
C427   C     0.47632   0.96088   0.28444   0.00000  Uiso   1.00
C428   C     0.40050   0.83321   0.15487   0.00000  Uiso   1.00
C429   C     0.59950   0.83344   0.17847   0.00000  Uiso   1.00
C430   C     0.34559   0.83281   0.14847   0.00000  Uiso   1.00
C431   C     0.65441   0.83381   0.18486   0.00000  Uiso   1.00
C432   C     0.52147   0.68785   0.13116   0.00000  Uiso   1.00
C433   C     0.47850   0.97881   0.20217   0.00000  Uiso   1.00
C434   C     0.51592   0.97864   0.13061   0.00000  Uiso   1.00
H435   H     0.65879   0.83157   0.11380   0.00000  Uiso   1.00
H436   H     0.65769   0.76396   0.07788   0.00000  Uiso   1.00
H437   H     0.61470   0.73137   0.13966   0.00000  Uiso   1.00
H438   H     0.38538   0.93515   0.19353   0.00000  Uiso   1.00
H439   H     0.34221   0.90263   0.25522   0.00000  Uiso   1.00
H440   H     0.38490   0.90620   0.00195   0.00000  Uiso   1.00
H441   H     0.47035   0.94372   0.02075   0.00000  Uiso   1.00
H442   H     0.51374   0.97707   0.29307   0.00000  Uiso   1.00
H443   H     0.34121   0.83505   0.21953   0.00000  Uiso   1.00
H444   H     0.52939   0.96205   0.10317   0.00000  Uiso   1.00
H445   H     0.47058   0.70462   0.23016   0.00000  Uiso   1.00
H446   H     0.56156   0.87801   0.29699   0.00000  Uiso   1.00
H447   H     0.43844   0.78867   0.03634   0.00000  Uiso   1.00
H448   H     0.48594   0.68975   0.04032   0.00000  Uiso   1.00
H449   H     0.52916   0.72315   0.31256   0.00000  Uiso   1.00
H450   H     0.61471   0.76056   0.33122   0.00000  Uiso   1.00
I451   I     0.59033   0.89947   0.06267   0.00000  Uiso   1.00
I452   I     0.40967   0.76720   0.27067   0.00000  Uiso   1.00
N453   N     0.49999   0.83332   0.28573   0.00000  Uiso   1.00
N454   N     0.50001   0.83334   0.04760   0.00000  Uiso   1.00
O455   O     0.50000   0.77225   0.20487   0.00000  Uiso   1.00
O456   O     0.50000   0.89442   0.12846   0.00000  Uiso   1.00
O457   O     0.50000   0.77226   0.12843   0.00000  Uiso   1.00
O458   O     0.50000   0.89441   0.20490   0.00000  Uiso   1.00
O459   O     0.42392   0.83333   0.19595   0.00000  Uiso   1.00
O460   O     0.57608   0.83334   0.13739   0.00000  Uiso   1.00
O461   O     0.42392   0.83334   0.11950   0.00000  Uiso   1.00
O462   O     0.57608   0.83333   0.21383   0.00000  Uiso   1.00
Zn463  Zn    0.50000   0.83333   0.21771   0.00000  Uiso   1.00
Zn464  Zn    0.50000   0.83334   0.11563   0.00000  Uiso   1.00
C465   C     0.83563   0.75344   0.16706   0.00000  Uiso   1.00
C466   C     0.81739   0.68803   0.20273   0.00000  Uiso   1.00
C467   C     0.82909   0.95744   0.16599   0.00000  Uiso   1.00
C468   C     0.83757   0.70922   0.16735   0.00000  Uiso   1.00
C469   C     0.86787   0.85833   0.02692   0.00000  Uiso   1.00
C470   C     0.79879   0.80834   0.30641   0.00000  Uiso   1.00
C471   C     0.86765   0.85813   0.31258   0.00000  Uiso   1.00
C472   C     0.79901   0.80854   0.02075   0.00000  Uiso   1.00
C473   C     0.88044   0.70829   0.09445   0.00000  Uiso   1.00
C474   C     0.85675   0.70589   0.04888   0.00000  Uiso   1.00
C475   C     0.88107   0.72480   0.01423   0.00000  Uiso   1.00
C476   C     0.83104   0.91323   0.16627   0.00000  Uiso   1.00
C477   C     0.92927   0.74595   0.02475   0.00000  Uiso   1.00
C478   C     0.95335   0.74808   0.06993   0.00000  Uiso   1.00
C479   C     0.92901   0.72947   0.10477   0.00000  Uiso   1.00
C480   C     0.78613   0.95838   0.23884   0.00000  Uiso   1.00
C481   C     0.73762   0.93712   0.22844   0.00000  Uiso   1.00
C482   C     0.71318   0.91855   0.26324   0.00000  Uiso   1.00
C483   C     0.73710   0.92078   0.30845   0.00000  Uiso   1.00
C484   C     0.78524   0.94199   0.31905   0.00000  Uiso   1.00
C485   C     0.80966   0.96088   0.28444   0.00000  Uiso   1.00
C486   C     0.73383   0.83321   0.15487   0.00000  Uiso   1.00
C487   C     0.93284   0.83344   0.17847   0.00000  Uiso   1.00
C488   C     0.67892   0.83281   0.14847   0.00000  Uiso   1.00
C489   C     0.98775   0.83381   0.18486   0.00000  Uiso   1.00
C490   C     0.85480   0.68785   0.13116   0.00000  Uiso   1.00
C491   C     0.81184   0.97881   0.20217   0.00000  Uiso   1.00
C492   C     0.84925   0.97864   0.13061   0.00000  Uiso   1.00
H493   H     0.99212   0.83157   0.11380   0.00000  Uiso   1.00
H494   H     0.99103   0.76396   0.07788   0.00000  Uiso   1.00
H495   H     0.94803   0.73137   0.13966   0.00000  Uiso   1.00
H496   H     0.71872   0.93515   0.19353   0.00000  Uiso   1.00
H497   H     0.67554   0.90263   0.25522   0.00000  Uiso   1.00
H498   H     0.71823   0.90620   0.00195   0.00000  Uiso   1.00
H499   H     0.80369   0.94372   0.02075   0.00000  Uiso   1.00
H500   H     0.84707   0.97707   0.29307   0.00000  Uiso   1.00
H501   H     0.67454   0.83505   0.21953   0.00000  Uiso   1.00
H502   H     0.86272   0.96205   0.10317   0.00000  Uiso   1.00
H503   H     0.80391   0.70462   0.23016   0.00000  Uiso   1.00
H504   H     0.89489   0.87801   0.29699   0.00000  Uiso   1.00
H505   H     0.77177   0.78867   0.03634   0.00000  Uiso   1.00
H506   H     0.81928   0.68975   0.04032   0.00000  Uiso   1.00
H507   H     0.86250   0.72315   0.31256   0.00000  Uiso   1.00
H508   H     0.94804   0.76056   0.33122   0.00000  Uiso   1.00
I509   I     0.92366   0.89947   0.06267   0.00000  Uiso   1.00
I510   I     0.74300   0.76720   0.27067   0.00000  Uiso   1.00
N511   N     0.83332   0.83332   0.28573   0.00000  Uiso   1.00
N512   N     0.83335   0.83334   0.04760   0.00000  Uiso   1.00
O513   O     0.83333   0.77225   0.20487   0.00000  Uiso   1.00
O514   O     0.83334   0.89442   0.12846   0.00000  Uiso   1.00
O515   O     0.83333   0.77226   0.12843   0.00000  Uiso   1.00
O516   O     0.83334   0.89441   0.20490   0.00000  Uiso   1.00
O517   O     0.75725   0.83333   0.19595   0.00000  Uiso   1.00
O518   O     0.90942   0.83334   0.13739   0.00000  Uiso   1.00
O519   O     0.75725   0.83334   0.11950   0.00000  Uiso   1.00
O520   O     0.90942   0.83333   0.21383   0.00000  Uiso   1.00
Zn521  Zn    0.83333   0.83333   0.21771   0.00000  Uiso   1.00
Zn522  Zn    0.83333   0.83334   0.11563   0.00000  Uiso   1.00
C523   C     0.16897   0.08677   0.50039   0.00000  Uiso   1.00
C524   C     0.15073   0.02136   0.53606   0.00000  Uiso   1.00
C525   C     0.16242   0.29077   0.49932   0.00000  Uiso   1.00
C526   C     0.17090   0.04256   0.50068   0.00000  Uiso   1.00
C527   C     0.20120   0.19167   0.36025   0.00000  Uiso   1.00
C528   C     0.13213   0.14167   0.63974   0.00000  Uiso   1.00
C529   C     0.20099   0.19146   0.64592   0.00000  Uiso   1.00
C530   C     0.13234   0.14188   0.35408   0.00000  Uiso   1.00
C531   C     0.21377   0.04162   0.42778   0.00000  Uiso   1.00
C532   C     0.19008   0.03922   0.38222   0.00000  Uiso   1.00
C533   C     0.21440   0.05813   0.34757   0.00000  Uiso   1.00
C534   C     0.16437   0.24656   0.49961   0.00000  Uiso   1.00
C535   C     0.26260   0.07928   0.35809   0.00000  Uiso   1.00
C536   C     0.28668   0.08141   0.40326   0.00000  Uiso   1.00
C537   C     0.26234   0.06281   0.43810   0.00000  Uiso   1.00
C538   C     0.11946   0.29172   0.57217   0.00000  Uiso   1.00
C539   C     0.07095   0.27046   0.56178   0.00000  Uiso   1.00
C540   C     0.04651   0.25189   0.59657   0.00000  Uiso   1.00
C541   C     0.07043   0.25412   0.64178   0.00000  Uiso   1.00
C542   C     0.11858   0.27533   0.65238   0.00000  Uiso   1.00
C543   C     0.14299   0.29421   0.61777   0.00000  Uiso   1.00
C544   C     0.06716   0.16655   0.48820   0.00000  Uiso   1.00
C545   C     0.26617   0.16678   0.51180   0.00000  Uiso   1.00
C546   C     0.01225   0.16615   0.48180   0.00000  Uiso   1.00
C547   C     0.32108   0.16715   0.51820   0.00000  Uiso   1.00
C548   C     0.18814   0.02119   0.46449   0.00000  Uiso   1.00
C549   C     0.14517   0.31214   0.53551   0.00000  Uiso   1.00
C550   C     0.18259   0.31197   0.46394   0.00000  Uiso   1.00
H551   H     0.32546   0.16490   0.44713   0.00000  Uiso   1.00
H552   H     0.32436   0.09730   0.41122   0.00000  Uiso   1.00
H553   H     0.28137   0.06470   0.47299   0.00000  Uiso   1.00
H554   H     0.05205   0.26848   0.52686   0.00000  Uiso   1.00
H555   H     0.00887   0.23596   0.58855   0.00000  Uiso   1.00
H556   H     0.05157   0.23954   0.33528   0.00000  Uiso   1.00
H557   H     0.13702   0.27706   0.35408   0.00000  Uiso   1.00
H558   H     0.18041   0.31041   0.62640   0.00000  Uiso   1.00
H559   H     0.00787   0.16839   0.55287   0.00000  Uiso   1.00
H560   H     0.19605   0.29538   0.43650   0.00000  Uiso   1.00
H561   H     0.13725   0.03795   0.56349   0.00000  Uiso   1.00
H562   H     0.22822   0.21134   0.63033   0.00000  Uiso   1.00
H563   H     0.10510   0.12200   0.36967   0.00000  Uiso   1.00
H564   H     0.15261   0.02309   0.37366   0.00000  Uiso   1.00
H565   H     0.19583   0.05648   0.64589   0.00000  Uiso   1.00
H566   H     0.28137   0.09389   0.66455   0.00000  Uiso   1.00
I567   I     0.25700   0.23280   0.39601   0.00000  Uiso   1.00
I568   I     0.07634   0.10054   0.60400   0.00000  Uiso   1.00
N569   N     0.16665   0.16666   0.61907   0.00000  Uiso   1.00
N570   N     0.16668   0.16668   0.38093   0.00000  Uiso   1.00
O571   O     0.16666   0.10558   0.53821   0.00000  Uiso   1.00
O572   O     0.16667   0.22775   0.46179   0.00000  Uiso   1.00
O573   O     0.16666   0.10559   0.46176   0.00000  Uiso   1.00
O574   O     0.16667   0.22774   0.53824   0.00000  Uiso   1.00
O575   O     0.09058   0.16666   0.52928   0.00000  Uiso   1.00
O576   O     0.24275   0.16667   0.47072   0.00000  Uiso   1.00
O577   O     0.09058   0.16667   0.45284   0.00000  Uiso   1.00
O578   O     0.24275   0.16666   0.54716   0.00000  Uiso   1.00
Zn579  Zn    0.16667   0.16666   0.55104   0.00000  Uiso   1.00
Zn580  Zn    0.16667   0.16667   0.44896   0.00000  Uiso   1.00
C581   C     0.50230   0.08677   0.50039   0.00000  Uiso   1.00
C582   C     0.48406   0.02136   0.53606   0.00000  Uiso   1.00
C583   C     0.49575   0.29077   0.49932   0.00000  Uiso   1.00
C584   C     0.50423   0.04256   0.50068   0.00000  Uiso   1.00
C585   C     0.53454   0.19167   0.36025   0.00000  Uiso   1.00
C586   C     0.46546   0.14167   0.63974   0.00000  Uiso   1.00
C587   C     0.53432   0.19146   0.64592   0.00000  Uiso   1.00
C588   C     0.46567   0.14188   0.35408   0.00000  Uiso   1.00
C589   C     0.54710   0.04162   0.42778   0.00000  Uiso   1.00
C590   C     0.52341   0.03922   0.38222   0.00000  Uiso   1.00
C591   C     0.54773   0.05813   0.34757   0.00000  Uiso   1.00
C592   C     0.49770   0.24656   0.49961   0.00000  Uiso   1.00
C593   C     0.59594   0.07928   0.35809   0.00000  Uiso   1.00
C594   C     0.62002   0.08141   0.40326   0.00000  Uiso   1.00
C595   C     0.59568   0.06281   0.43810   0.00000  Uiso   1.00
C596   C     0.45280   0.29172   0.57217   0.00000  Uiso   1.00
C597   C     0.40429   0.27046   0.56178   0.00000  Uiso   1.00
C598   C     0.37985   0.25189   0.59657   0.00000  Uiso   1.00
C599   C     0.40376   0.25412   0.64178   0.00000  Uiso   1.00
C600   C     0.45191   0.27533   0.65238   0.00000  Uiso   1.00
C601   C     0.47632   0.29421   0.61777   0.00000  Uiso   1.00
C602   C     0.40050   0.16655   0.48820   0.00000  Uiso   1.00
C603   C     0.59950   0.16678   0.51180   0.00000  Uiso   1.00
C604   C     0.34559   0.16615   0.48180   0.00000  Uiso   1.00
C605   C     0.65441   0.16715   0.51820   0.00000  Uiso   1.00
C606   C     0.52147   0.02119   0.46449   0.00000  Uiso   1.00
C607   C     0.47850   0.31214   0.53551   0.00000  Uiso   1.00
C608   C     0.51592   0.31197   0.46394   0.00000  Uiso   1.00
H609   H     0.65879   0.16490   0.44713   0.00000  Uiso   1.00
H610   H     0.65769   0.09730   0.41122   0.00000  Uiso   1.00
H611   H     0.61470   0.06470   0.47299   0.00000  Uiso   1.00
H612   H     0.38538   0.26848   0.52686   0.00000  Uiso   1.00
H613   H     0.34221   0.23596   0.58855   0.00000  Uiso   1.00
H614   H     0.38490   0.23954   0.33528   0.00000  Uiso   1.00
H615   H     0.47035   0.27706   0.35408   0.00000  Uiso   1.00
H616   H     0.51374   0.31041   0.62640   0.00000  Uiso   1.00
H617   H     0.34121   0.16839   0.55287   0.00000  Uiso   1.00
H618   H     0.52939   0.29538   0.43650   0.00000  Uiso   1.00
H619   H     0.47058   0.03795   0.56349   0.00000  Uiso   1.00
H620   H     0.56156   0.21134   0.63033   0.00000  Uiso   1.00
H621   H     0.43844   0.12200   0.36967   0.00000  Uiso   1.00
H622   H     0.48594   0.02309   0.37366   0.00000  Uiso   1.00
H623   H     0.52916   0.05648   0.64589   0.00000  Uiso   1.00
H624   H     0.61471   0.09389   0.66455   0.00000  Uiso   1.00
I625   I     0.59033   0.23280   0.39601   0.00000  Uiso   1.00
I626   I     0.40967   0.10054   0.60400   0.00000  Uiso   1.00
N627   N     0.49999   0.16666   0.61907   0.00000  Uiso   1.00
N628   N     0.50001   0.16668   0.38093   0.00000  Uiso   1.00
O629   O     0.50000   0.10558   0.53821   0.00000  Uiso   1.00
O630   O     0.50000   0.22775   0.46179   0.00000  Uiso   1.00
O631   O     0.50000   0.10559   0.46176   0.00000  Uiso   1.00
O632   O     0.50000   0.22774   0.53824   0.00000  Uiso   1.00
O633   O     0.42392   0.16666   0.52928   0.00000  Uiso   1.00
O634   O     0.57608   0.16667   0.47072   0.00000  Uiso   1.00
O635   O     0.42392   0.16667   0.45284   0.00000  Uiso   1.00
O636   O     0.57608   0.16666   0.54716   0.00000  Uiso   1.00
Zn637  Zn    0.50000   0.16666   0.55104   0.00000  Uiso   1.00
Zn638  Zn    0.50000   0.16667   0.44896   0.00000  Uiso   1.00
C639   C     0.83563   0.08677   0.50039   0.00000  Uiso   1.00
C640   C     0.81739   0.02136   0.53606   0.00000  Uiso   1.00
C641   C     0.82909   0.29077   0.49932   0.00000  Uiso   1.00
C642   C     0.83757   0.04256   0.50068   0.00000  Uiso   1.00
C643   C     0.86787   0.19167   0.36025   0.00000  Uiso   1.00
C644   C     0.79879   0.14167   0.63974   0.00000  Uiso   1.00
C645   C     0.86765   0.19146   0.64592   0.00000  Uiso   1.00
C646   C     0.79901   0.14188   0.35408   0.00000  Uiso   1.00
C647   C     0.88044   0.04162   0.42778   0.00000  Uiso   1.00
C648   C     0.85675   0.03922   0.38222   0.00000  Uiso   1.00
C649   C     0.88107   0.05813   0.34757   0.00000  Uiso   1.00
C650   C     0.83104   0.24656   0.49961   0.00000  Uiso   1.00
C651   C     0.92927   0.07928   0.35809   0.00000  Uiso   1.00
C652   C     0.95335   0.08141   0.40326   0.00000  Uiso   1.00
C653   C     0.92901   0.06281   0.43810   0.00000  Uiso   1.00
C654   C     0.78613   0.29172   0.57217   0.00000  Uiso   1.00
C655   C     0.73762   0.27046   0.56178   0.00000  Uiso   1.00
C656   C     0.71318   0.25189   0.59657   0.00000  Uiso   1.00
C657   C     0.73710   0.25412   0.64178   0.00000  Uiso   1.00
C658   C     0.78524   0.27533   0.65238   0.00000  Uiso   1.00
C659   C     0.80966   0.29421   0.61777   0.00000  Uiso   1.00
C660   C     0.73383   0.16655   0.48820   0.00000  Uiso   1.00
C661   C     0.93284   0.16678   0.51180   0.00000  Uiso   1.00
C662   C     0.67892   0.16615   0.48180   0.00000  Uiso   1.00
C663   C     0.98775   0.16715   0.51820   0.00000  Uiso   1.00
C664   C     0.85480   0.02119   0.46449   0.00000  Uiso   1.00
C665   C     0.81184   0.31214   0.53551   0.00000  Uiso   1.00
C666   C     0.84925   0.31197   0.46394   0.00000  Uiso   1.00
H667   H     0.99212   0.16490   0.44713   0.00000  Uiso   1.00
H668   H     0.99103   0.09730   0.41122   0.00000  Uiso   1.00
H669   H     0.94803   0.06470   0.47299   0.00000  Uiso   1.00
H670   H     0.71872   0.26848   0.52686   0.00000  Uiso   1.00
H671   H     0.67554   0.23596   0.58855   0.00000  Uiso   1.00
H672   H     0.71823   0.23954   0.33528   0.00000  Uiso   1.00
H673   H     0.80369   0.27706   0.35408   0.00000  Uiso   1.00
H674   H     0.84707   0.31041   0.62640   0.00000  Uiso   1.00
H675   H     0.67454   0.16839   0.55287   0.00000  Uiso   1.00
H676   H     0.86272   0.29538   0.43650   0.00000  Uiso   1.00
H677   H     0.80391   0.03795   0.56349   0.00000  Uiso   1.00
H678   H     0.89489   0.21134   0.63033   0.00000  Uiso   1.00
H679   H     0.77177   0.12200   0.36967   0.00000  Uiso   1.00
H680   H     0.81928   0.02309   0.37366   0.00000  Uiso   1.00
H681   H     0.86250   0.05648   0.64589   0.00000  Uiso   1.00
H682   H     0.94804   0.09389   0.66455   0.00000  Uiso   1.00
I683   I     0.92366   0.23280   0.39601   0.00000  Uiso   1.00
I684   I     0.74300   0.10054   0.60400   0.00000  Uiso   1.00
N685   N     0.83332   0.16666   0.61907   0.00000  Uiso   1.00
N686   N     0.83335   0.16668   0.38093   0.00000  Uiso   1.00
O687   O     0.83333   0.10558   0.53821   0.00000  Uiso   1.00
O688   O     0.83334   0.22775   0.46179   0.00000  Uiso   1.00
O689   O     0.83333   0.10559   0.46176   0.00000  Uiso   1.00
O690   O     0.83334   0.22774   0.53824   0.00000  Uiso   1.00
O691   O     0.75725   0.16666   0.52928   0.00000  Uiso   1.00
O692   O     0.90942   0.16667   0.47072   0.00000  Uiso   1.00
O693   O     0.75725   0.16667   0.45284   0.00000  Uiso   1.00
O694   O     0.90942   0.16666   0.54716   0.00000  Uiso   1.00
Zn695  Zn    0.83333   0.16666   0.55104   0.00000  Uiso   1.00
Zn696  Zn    0.83333   0.16667   0.44896   0.00000  Uiso   1.00
C697   C     0.16897   0.42011   0.50039   0.00000  Uiso   1.00
C698   C     0.15073   0.35469   0.53606   0.00000  Uiso   1.00
C699   C     0.16242   0.62411   0.49932   0.00000  Uiso   1.00
C700   C     0.17090   0.37589   0.50068   0.00000  Uiso   1.00
C701   C     0.20120   0.52500   0.36025   0.00000  Uiso   1.00
C702   C     0.13213   0.47500   0.63974   0.00000  Uiso   1.00
C703   C     0.20099   0.52480   0.64592   0.00000  Uiso   1.00
C704   C     0.13234   0.47521   0.35408   0.00000  Uiso   1.00
C705   C     0.21377   0.37495   0.42778   0.00000  Uiso   1.00
C706   C     0.19008   0.37255   0.38222   0.00000  Uiso   1.00
C707   C     0.21440   0.39147   0.34757   0.00000  Uiso   1.00
C708   C     0.16437   0.57989   0.49961   0.00000  Uiso   1.00
C709   C     0.26260   0.41262   0.35809   0.00000  Uiso   1.00
C710   C     0.28668   0.41475   0.40326   0.00000  Uiso   1.00
C711   C     0.26234   0.39614   0.43810   0.00000  Uiso   1.00
C712   C     0.11946   0.62505   0.57217   0.00000  Uiso   1.00
C713   C     0.07095   0.60379   0.56178   0.00000  Uiso   1.00
C714   C     0.04651   0.58522   0.59657   0.00000  Uiso   1.00
C715   C     0.07043   0.58745   0.64178   0.00000  Uiso   1.00
C716   C     0.11858   0.60866   0.65238   0.00000  Uiso   1.00
C717   C     0.14299   0.62755   0.61777   0.00000  Uiso   1.00
C718   C     0.06716   0.49988   0.48820   0.00000  Uiso   1.00
C719   C     0.26617   0.50011   0.51180   0.00000  Uiso   1.00
C720   C     0.01225   0.49948   0.48180   0.00000  Uiso   1.00
C721   C     0.32108   0.50048   0.51820   0.00000  Uiso   1.00
C722   C     0.18814   0.35452   0.46449   0.00000  Uiso   1.00
C723   C     0.14517   0.64548   0.53551   0.00000  Uiso   1.00
C724   C     0.18259   0.64531   0.46394   0.00000  Uiso   1.00
H725   H     0.32546   0.49824   0.44713   0.00000  Uiso   1.00
H726   H     0.32436   0.43063   0.41122   0.00000  Uiso   1.00
H727   H     0.28137   0.39804   0.47299   0.00000  Uiso   1.00
H728   H     0.05205   0.60182   0.52686   0.00000  Uiso   1.00
H729   H     0.00887   0.56930   0.58855   0.00000  Uiso   1.00
H730   H     0.05157   0.57287   0.33528   0.00000  Uiso   1.00
H731   H     0.13702   0.61039   0.35408   0.00000  Uiso   1.00
H732   H     0.18041   0.64374   0.62640   0.00000  Uiso   1.00
H733   H     0.00787   0.50172   0.55287   0.00000  Uiso   1.00
H734   H     0.19605   0.62871   0.43650   0.00000  Uiso   1.00
H735   H     0.13725   0.37129   0.56349   0.00000  Uiso   1.00
H736   H     0.22822   0.54468   0.63033   0.00000  Uiso   1.00
H737   H     0.10510   0.45533   0.36967   0.00000  Uiso   1.00
H738   H     0.15261   0.35642   0.37366   0.00000  Uiso   1.00
H739   H     0.19583   0.38982   0.64589   0.00000  Uiso   1.00
H740   H     0.28137   0.42723   0.66455   0.00000  Uiso   1.00
I741   I     0.25700   0.56613   0.39601   0.00000  Uiso   1.00
I742   I     0.07634   0.43387   0.60400   0.00000  Uiso   1.00
N743   N     0.16665   0.49999   0.61907   0.00000  Uiso   1.00
N744   N     0.16668   0.50001   0.38093   0.00000  Uiso   1.00
O745   O     0.16666   0.43892   0.53821   0.00000  Uiso   1.00
O746   O     0.16667   0.56108   0.46179   0.00000  Uiso   1.00
O747   O     0.16666   0.43893   0.46176   0.00000  Uiso   1.00
O748   O     0.16667   0.56107   0.53824   0.00000  Uiso   1.00
O749   O     0.09058   0.50000   0.52928   0.00000  Uiso   1.00
O750   O     0.24275   0.50000   0.47072   0.00000  Uiso   1.00
O751   O     0.09058   0.50000   0.45284   0.00000  Uiso   1.00
O752   O     0.24275   0.50000   0.54716   0.00000  Uiso   1.00
Zn753  Zn    0.16667   0.49999   0.55104   0.00000  Uiso   1.00
Zn754  Zn    0.16667   0.50001   0.44896   0.00000  Uiso   1.00
C755   C     0.50230   0.42011   0.50039   0.00000  Uiso   1.00
C756   C     0.48406   0.35469   0.53606   0.00000  Uiso   1.00
C757   C     0.49575   0.62411   0.49932   0.00000  Uiso   1.00
C758   C     0.50423   0.37589   0.50068   0.00000  Uiso   1.00
C759   C     0.53454   0.52500   0.36025   0.00000  Uiso   1.00
C760   C     0.46546   0.47500   0.63974   0.00000  Uiso   1.00
C761   C     0.53432   0.52480   0.64592   0.00000  Uiso   1.00
C762   C     0.46567   0.47521   0.35408   0.00000  Uiso   1.00
C763   C     0.54710   0.37495   0.42778   0.00000  Uiso   1.00
C764   C     0.52341   0.37255   0.38222   0.00000  Uiso   1.00
C765   C     0.54773   0.39147   0.34757   0.00000  Uiso   1.00
C766   C     0.49770   0.57989   0.49961   0.00000  Uiso   1.00
C767   C     0.59594   0.41262   0.35809   0.00000  Uiso   1.00
C768   C     0.62002   0.41475   0.40326   0.00000  Uiso   1.00
C769   C     0.59568   0.39614   0.43810   0.00000  Uiso   1.00
C770   C     0.45280   0.62505   0.57217   0.00000  Uiso   1.00
C771   C     0.40429   0.60379   0.56178   0.00000  Uiso   1.00
C772   C     0.37985   0.58522   0.59657   0.00000  Uiso   1.00
C773   C     0.40376   0.58745   0.64178   0.00000  Uiso   1.00
C774   C     0.45191   0.60866   0.65238   0.00000  Uiso   1.00
C775   C     0.47632   0.62755   0.61777   0.00000  Uiso   1.00
C776   C     0.40050   0.49988   0.48820   0.00000  Uiso   1.00
C777   C     0.59950   0.50011   0.51180   0.00000  Uiso   1.00
C778   C     0.34559   0.49948   0.48180   0.00000  Uiso   1.00
C779   C     0.65441   0.50048   0.51820   0.00000  Uiso   1.00
C780   C     0.52147   0.35452   0.46449   0.00000  Uiso   1.00
C781   C     0.47850   0.64548   0.53551   0.00000  Uiso   1.00
C782   C     0.51592   0.64531   0.46394   0.00000  Uiso   1.00
H783   H     0.65879   0.49824   0.44713   0.00000  Uiso   1.00
H784   H     0.65769   0.43063   0.41122   0.00000  Uiso   1.00
H785   H     0.61470   0.39804   0.47299   0.00000  Uiso   1.00
H786   H     0.38538   0.60182   0.52686   0.00000  Uiso   1.00
H787   H     0.34221   0.56930   0.58855   0.00000  Uiso   1.00
H788   H     0.38490   0.57287   0.33528   0.00000  Uiso   1.00
H789   H     0.47035   0.61039   0.35408   0.00000  Uiso   1.00
H790   H     0.51374   0.64374   0.62640   0.00000  Uiso   1.00
H791   H     0.34121   0.50172   0.55287   0.00000  Uiso   1.00
H792   H     0.52939   0.62871   0.43650   0.00000  Uiso   1.00
H793   H     0.47058   0.37129   0.56349   0.00000  Uiso   1.00
H794   H     0.56156   0.54468   0.63033   0.00000  Uiso   1.00
H795   H     0.43844   0.45533   0.36967   0.00000  Uiso   1.00
H796   H     0.48594   0.35642   0.37366   0.00000  Uiso   1.00
H797   H     0.52916   0.38982   0.64589   0.00000  Uiso   1.00
H798   H     0.61471   0.42723   0.66455   0.00000  Uiso   1.00
I799   I     0.59033   0.56613   0.39601   0.00000  Uiso   1.00
I800   I     0.40967   0.43387   0.60400   0.00000  Uiso   1.00
N801   N     0.49999   0.49999   0.61907   0.00000  Uiso   1.00
N802   N     0.50001   0.50001   0.38093   0.00000  Uiso   1.00
O803   O     0.50000   0.43892   0.53821   0.00000  Uiso   1.00
O804   O     0.50000   0.56108   0.46179   0.00000  Uiso   1.00
O805   O     0.50000   0.43893   0.46176   0.00000  Uiso   1.00
O806   O     0.50000   0.56107   0.53824   0.00000  Uiso   1.00
O807   O     0.42392   0.50000   0.52928   0.00000  Uiso   1.00
O808   O     0.57608   0.50000   0.47072   0.00000  Uiso   1.00
O809   O     0.42392   0.50000   0.45284   0.00000  Uiso   1.00
O810   O     0.57608   0.50000   0.54716   0.00000  Uiso   1.00
Zn811  Zn    0.50000   0.49999   0.55104   0.00000  Uiso   1.00
Zn812  Zn    0.50000   0.50001   0.44896   0.00000  Uiso   1.00
C813   C     0.83563   0.42011   0.50039   0.00000  Uiso   1.00
C814   C     0.81739   0.35469   0.53606   0.00000  Uiso   1.00
C815   C     0.82909   0.62411   0.49932   0.00000  Uiso   1.00
C816   C     0.83757   0.37589   0.50068   0.00000  Uiso   1.00
C817   C     0.86787   0.52500   0.36025   0.00000  Uiso   1.00
C818   C     0.79879   0.47500   0.63974   0.00000  Uiso   1.00
C819   C     0.86765   0.52480   0.64592   0.00000  Uiso   1.00
C820   C     0.79901   0.47521   0.35408   0.00000  Uiso   1.00
C821   C     0.88044   0.37495   0.42778   0.00000  Uiso   1.00
C822   C     0.85675   0.37255   0.38222   0.00000  Uiso   1.00
C823   C     0.88107   0.39147   0.34757   0.00000  Uiso   1.00
C824   C     0.83104   0.57989   0.49961   0.00000  Uiso   1.00
C825   C     0.92927   0.41262   0.35809   0.00000  Uiso   1.00
C826   C     0.95335   0.41475   0.40326   0.00000  Uiso   1.00
C827   C     0.92901   0.39614   0.43810   0.00000  Uiso   1.00
C828   C     0.78613   0.62505   0.57217   0.00000  Uiso   1.00
C829   C     0.73762   0.60379   0.56178   0.00000  Uiso   1.00
C830   C     0.71318   0.58522   0.59657   0.00000  Uiso   1.00
C831   C     0.73710   0.58745   0.64178   0.00000  Uiso   1.00
C832   C     0.78524   0.60866   0.65238   0.00000  Uiso   1.00
C833   C     0.80966   0.62755   0.61777   0.00000  Uiso   1.00
C834   C     0.73383   0.49988   0.48820   0.00000  Uiso   1.00
C835   C     0.93284   0.50011   0.51180   0.00000  Uiso   1.00
C836   C     0.67892   0.49948   0.48180   0.00000  Uiso   1.00
C837   C     0.98775   0.50048   0.51820   0.00000  Uiso   1.00
C838   C     0.85480   0.35452   0.46449   0.00000  Uiso   1.00
C839   C     0.81184   0.64548   0.53551   0.00000  Uiso   1.00
C840   C     0.84925   0.64531   0.46394   0.00000  Uiso   1.00
H841   H     0.99212   0.49824   0.44713   0.00000  Uiso   1.00
H842   H     0.99103   0.43063   0.41122   0.00000  Uiso   1.00
H843   H     0.94803   0.39804   0.47299   0.00000  Uiso   1.00
H844   H     0.71872   0.60182   0.52686   0.00000  Uiso   1.00
H845   H     0.67554   0.56930   0.58855   0.00000  Uiso   1.00
H846   H     0.71823   0.57287   0.33528   0.00000  Uiso   1.00
H847   H     0.80369   0.61039   0.35408   0.00000  Uiso   1.00
H848   H     0.84707   0.64374   0.62640   0.00000  Uiso   1.00
H849   H     0.67454   0.50172   0.55287   0.00000  Uiso   1.00
H850   H     0.86272   0.62871   0.43650   0.00000  Uiso   1.00
H851   H     0.80391   0.37129   0.56349   0.00000  Uiso   1.00
H852   H     0.89489   0.54468   0.63033   0.00000  Uiso   1.00
H853   H     0.77177   0.45533   0.36967   0.00000  Uiso   1.00
H854   H     0.81928   0.35642   0.37366   0.00000  Uiso   1.00
H855   H     0.86250   0.38982   0.64589   0.00000  Uiso   1.00
H856   H     0.94804   0.42723   0.66455   0.00000  Uiso   1.00
I857   I     0.92366   0.56613   0.39601   0.00000  Uiso   1.00
I858   I     0.74300   0.43387   0.60400   0.00000  Uiso   1.00
N859   N     0.83332   0.49999   0.61907   0.00000  Uiso   1.00
N860   N     0.83335   0.50001   0.38093   0.00000  Uiso   1.00
O861   O     0.83333   0.43892   0.53821   0.00000  Uiso   1.00
O862   O     0.83334   0.56108   0.46179   0.00000  Uiso   1.00
O863   O     0.83333   0.43893   0.46176   0.00000  Uiso   1.00
O864   O     0.83334   0.56107   0.53824   0.00000  Uiso   1.00
O865   O     0.75725   0.50000   0.52928   0.00000  Uiso   1.00
O866   O     0.90942   0.50000   0.47072   0.00000  Uiso   1.00
O867   O     0.75725   0.50000   0.45284   0.00000  Uiso   1.00
O868   O     0.90942   0.50000   0.54716   0.00000  Uiso   1.00
Zn869  Zn    0.83333   0.49999   0.55104   0.00000  Uiso   1.00
Zn870  Zn    0.83333   0.50001   0.44896   0.00000  Uiso   1.00
C871   C     0.16897   0.75344   0.50039   0.00000  Uiso   1.00
C872   C     0.15073   0.68803   0.53606   0.00000  Uiso   1.00
C873   C     0.16242   0.95744   0.49932   0.00000  Uiso   1.00
C874   C     0.17090   0.70922   0.50068   0.00000  Uiso   1.00
C875   C     0.20120   0.85833   0.36025   0.00000  Uiso   1.00
C876   C     0.13213   0.80834   0.63974   0.00000  Uiso   1.00
C877   C     0.20099   0.85813   0.64592   0.00000  Uiso   1.00
C878   C     0.13234   0.80854   0.35408   0.00000  Uiso   1.00
C879   C     0.21377   0.70829   0.42778   0.00000  Uiso   1.00
C880   C     0.19008   0.70589   0.38222   0.00000  Uiso   1.00
C881   C     0.21440   0.72480   0.34757   0.00000  Uiso   1.00
C882   C     0.16437   0.91323   0.49961   0.00000  Uiso   1.00
C883   C     0.26260   0.74595   0.35809   0.00000  Uiso   1.00
C884   C     0.28668   0.74808   0.40326   0.00000  Uiso   1.00
C885   C     0.26234   0.72947   0.43810   0.00000  Uiso   1.00
C886   C     0.11946   0.95838   0.57217   0.00000  Uiso   1.00
C887   C     0.07095   0.93712   0.56178   0.00000  Uiso   1.00
C888   C     0.04651   0.91855   0.59657   0.00000  Uiso   1.00
C889   C     0.07043   0.92078   0.64178   0.00000  Uiso   1.00
C890   C     0.11858   0.94199   0.65238   0.00000  Uiso   1.00
C891   C     0.14299   0.96088   0.61777   0.00000  Uiso   1.00
C892   C     0.06716   0.83321   0.48820   0.00000  Uiso   1.00
C893   C     0.26617   0.83344   0.51180   0.00000  Uiso   1.00
C894   C     0.01225   0.83281   0.48180   0.00000  Uiso   1.00
C895   C     0.32108   0.83381   0.51820   0.00000  Uiso   1.00
C896   C     0.18814   0.68785   0.46449   0.00000  Uiso   1.00
C897   C     0.14517   0.97881   0.53551   0.00000  Uiso   1.00
C898   C     0.18259   0.97864   0.46394   0.00000  Uiso   1.00
H899   H     0.32546   0.83157   0.44713   0.00000  Uiso   1.00
H900   H     0.32436   0.76396   0.41122   0.00000  Uiso   1.00
H901   H     0.28137   0.73137   0.47299   0.00000  Uiso   1.00
H902   H     0.05205   0.93515   0.52686   0.00000  Uiso   1.00
H903   H     0.00887   0.90263   0.58855   0.00000  Uiso   1.00
H904   H     0.05157   0.90620   0.33528   0.00000  Uiso   1.00
H905   H     0.13702   0.94372   0.35408   0.00000  Uiso   1.00
H906   H     0.18041   0.97707   0.62640   0.00000  Uiso   1.00
H907   H     0.00787   0.83505   0.55287   0.00000  Uiso   1.00
H908   H     0.19605   0.96205   0.43650   0.00000  Uiso   1.00
H909   H     0.13725   0.70462   0.56349   0.00000  Uiso   1.00
H910   H     0.22822   0.87801   0.63033   0.00000  Uiso   1.00
H911   H     0.10510   0.78867   0.36967   0.00000  Uiso   1.00
H912   H     0.15261   0.68975   0.37366   0.00000  Uiso   1.00
H913   H     0.19583   0.72315   0.64589   0.00000  Uiso   1.00
H914   H     0.28137   0.76056   0.66455   0.00000  Uiso   1.00
I915   I     0.25700   0.89947   0.39601   0.00000  Uiso   1.00
I916   I     0.07634   0.76720   0.60400   0.00000  Uiso   1.00
N917   N     0.16665   0.83332   0.61907   0.00000  Uiso   1.00
N918   N     0.16668   0.83334   0.38093   0.00000  Uiso   1.00
O919   O     0.16666   0.77225   0.53821   0.00000  Uiso   1.00
O920   O     0.16667   0.89442   0.46179   0.00000  Uiso   1.00
O921   O     0.16666   0.77226   0.46176   0.00000  Uiso   1.00
O922   O     0.16667   0.89441   0.53824   0.00000  Uiso   1.00
O923   O     0.09058   0.83333   0.52928   0.00000  Uiso   1.00
O924   O     0.24275   0.83334   0.47072   0.00000  Uiso   1.00
O925   O     0.09058   0.83334   0.45284   0.00000  Uiso   1.00
O926   O     0.24275   0.83333   0.54716   0.00000  Uiso   1.00
Zn927  Zn    0.16667   0.83333   0.55104   0.00000  Uiso   1.00
Zn928  Zn    0.16667   0.83334   0.44896   0.00000  Uiso   1.00
C929   C     0.50230   0.75344   0.50039   0.00000  Uiso   1.00
C930   C     0.48406   0.68803   0.53606   0.00000  Uiso   1.00
C931   C     0.49575   0.95744   0.49932   0.00000  Uiso   1.00
C932   C     0.50423   0.70922   0.50068   0.00000  Uiso   1.00
C933   C     0.53454   0.85833   0.36025   0.00000  Uiso   1.00
C934   C     0.46546   0.80834   0.63974   0.00000  Uiso   1.00
C935   C     0.53432   0.85813   0.64592   0.00000  Uiso   1.00
C936   C     0.46567   0.80854   0.35408   0.00000  Uiso   1.00
C937   C     0.54710   0.70829   0.42778   0.00000  Uiso   1.00
C938   C     0.52341   0.70589   0.38222   0.00000  Uiso   1.00
C939   C     0.54773   0.72480   0.34757   0.00000  Uiso   1.00
C940   C     0.49770   0.91323   0.49961   0.00000  Uiso   1.00
C941   C     0.59594   0.74595   0.35809   0.00000  Uiso   1.00
C942   C     0.62002   0.74808   0.40326   0.00000  Uiso   1.00
C943   C     0.59568   0.72947   0.43810   0.00000  Uiso   1.00
C944   C     0.45280   0.95838   0.57217   0.00000  Uiso   1.00
C945   C     0.40429   0.93712   0.56178   0.00000  Uiso   1.00
C946   C     0.37985   0.91855   0.59657   0.00000  Uiso   1.00
C947   C     0.40376   0.92078   0.64178   0.00000  Uiso   1.00
C948   C     0.45191   0.94199   0.65238   0.00000  Uiso   1.00
C949   C     0.47632   0.96088   0.61777   0.00000  Uiso   1.00
C950   C     0.40050   0.83321   0.48820   0.00000  Uiso   1.00
C951   C     0.59950   0.83344   0.51180   0.00000  Uiso   1.00
C952   C     0.34559   0.83281   0.48180   0.00000  Uiso   1.00
C953   C     0.65441   0.83381   0.51820   0.00000  Uiso   1.00
C954   C     0.52147   0.68785   0.46449   0.00000  Uiso   1.00
C955   C     0.47850   0.97881   0.53551   0.00000  Uiso   1.00
C956   C     0.51592   0.97864   0.46394   0.00000  Uiso   1.00
H957   H     0.65879   0.83157   0.44713   0.00000  Uiso   1.00
H958   H     0.65769   0.76396   0.41122   0.00000  Uiso   1.00
H959   H     0.61470   0.73137   0.47299   0.00000  Uiso   1.00
H960   H     0.38538   0.93515   0.52686   0.00000  Uiso   1.00
H961   H     0.34221   0.90263   0.58855   0.00000  Uiso   1.00
H962   H     0.38490   0.90620   0.33528   0.00000  Uiso   1.00
H963   H     0.47035   0.94372   0.35408   0.00000  Uiso   1.00
H964   H     0.51374   0.97707   0.62640   0.00000  Uiso   1.00
H965   H     0.34121   0.83505   0.55287   0.00000  Uiso   1.00
H966   H     0.52939   0.96205   0.43650   0.00000  Uiso   1.00
H967   H     0.47058   0.70462   0.56349   0.00000  Uiso   1.00
H968   H     0.56156   0.87801   0.63033   0.00000  Uiso   1.00
H969   H     0.43844   0.78867   0.36967   0.00000  Uiso   1.00
H970   H     0.48594   0.68975   0.37366   0.00000  Uiso   1.00
H971   H     0.52916   0.72315   0.64589   0.00000  Uiso   1.00
H972   H     0.61471   0.76056   0.66455   0.00000  Uiso   1.00
I973   I     0.59033   0.89947   0.39601   0.00000  Uiso   1.00
I974   I     0.40967   0.76720   0.60400   0.00000  Uiso   1.00
N975   N     0.49999   0.83332   0.61907   0.00000  Uiso   1.00
N976   N     0.50001   0.83334   0.38093   0.00000  Uiso   1.00
O977   O     0.50000   0.77225   0.53821   0.00000  Uiso   1.00
O978   O     0.50000   0.89442   0.46179   0.00000  Uiso   1.00
O979   O     0.50000   0.77226   0.46176   0.00000  Uiso   1.00
O980   O     0.50000   0.89441   0.53824   0.00000  Uiso   1.00
O981   O     0.42392   0.83333   0.52928   0.00000  Uiso   1.00
O982   O     0.57608   0.83334   0.47072   0.00000  Uiso   1.00
O983   O     0.42392   0.83334   0.45284   0.00000  Uiso   1.00
O984   O     0.57608   0.83333   0.54716   0.00000  Uiso   1.00
Zn985  Zn    0.50000   0.83333   0.55104   0.00000  Uiso   1.00
Zn986  Zn    0.50000   0.83334   0.44896   0.00000  Uiso   1.00
C987   C     0.83563   0.75344   0.50039   0.00000  Uiso   1.00
C988   C     0.81739   0.68803   0.53606   0.00000  Uiso   1.00
C989   C     0.82909   0.95744   0.49932   0.00000  Uiso   1.00
C990   C     0.83757   0.70922   0.50068   0.00000  Uiso   1.00
C991   C     0.86787   0.85833   0.36025   0.00000  Uiso   1.00
C992   C     0.79879   0.80834   0.63974   0.00000  Uiso   1.00
C993   C     0.86765   0.85813   0.64592   0.00000  Uiso   1.00
C994   C     0.79901   0.80854   0.35408   0.00000  Uiso   1.00
C995   C     0.88044   0.70829   0.42778   0.00000  Uiso   1.00
C996   C     0.85675   0.70589   0.38222   0.00000  Uiso   1.00
C997   C     0.88107   0.72480   0.34757   0.00000  Uiso   1.00
C998   C     0.83104   0.91323   0.49961   0.00000  Uiso   1.00
C999   C     0.92927   0.74595   0.35809   0.00000  Uiso   1.00
C1000  C     0.95335   0.74808   0.40326   0.00000  Uiso   1.00
C1001  C     0.92901   0.72947   0.43810   0.00000  Uiso   1.00
C1002  C     0.78613   0.95838   0.57217   0.00000  Uiso   1.00
C1003  C     0.73762   0.93712   0.56178   0.00000  Uiso   1.00
C1004  C     0.71318   0.91855   0.59657   0.00000  Uiso   1.00
C1005  C     0.73710   0.92078   0.64178   0.00000  Uiso   1.00
C1006  C     0.78524   0.94199   0.65238   0.00000  Uiso   1.00
C1007  C     0.80966   0.96088   0.61777   0.00000  Uiso   1.00
C1008  C     0.73383   0.83321   0.48820   0.00000  Uiso   1.00
C1009  C     0.93284   0.83344   0.51180   0.00000  Uiso   1.00
C1010  C     0.67892   0.83281   0.48180   0.00000  Uiso   1.00
C1011  C     0.98775   0.83381   0.51820   0.00000  Uiso   1.00
C1012  C     0.85480   0.68785   0.46449   0.00000  Uiso   1.00
C1013  C     0.81184   0.97881   0.53551   0.00000  Uiso   1.00
C1014  C     0.84925   0.97864   0.46394   0.00000  Uiso   1.00
H1015  H     0.99212   0.83157   0.44713   0.00000  Uiso   1.00
H1016  H     0.99103   0.76396   0.41122   0.00000  Uiso   1.00
H1017  H     0.94803   0.73137   0.47299   0.00000  Uiso   1.00
H1018  H     0.71872   0.93515   0.52686   0.00000  Uiso   1.00
H1019  H     0.67554   0.90263   0.58855   0.00000  Uiso   1.00
H1020  H     0.71823   0.90620   0.33528   0.00000  Uiso   1.00
H1021  H     0.80369   0.94372   0.35408   0.00000  Uiso   1.00
H1022  H     0.84707   0.97707   0.62640   0.00000  Uiso   1.00
H1023  H     0.67454   0.83505   0.55287   0.00000  Uiso   1.00
H1024  H     0.86272   0.96205   0.43650   0.00000  Uiso   1.00
H1025  H     0.80391   0.70462   0.56349   0.00000  Uiso   1.00
H1026  H     0.89489   0.87801   0.63033   0.00000  Uiso   1.00
H1027  H     0.77177   0.78867   0.36967   0.00000  Uiso   1.00
H1028  H     0.81928   0.68975   0.37366   0.00000  Uiso   1.00
H1029  H     0.86250   0.72315   0.64589   0.00000  Uiso   1.00
H1030  H     0.94804   0.76056   0.66455   0.00000  Uiso   1.00
I1031  I     0.92366   0.89947   0.39601   0.00000  Uiso   1.00
I1032  I     0.74300   0.76720   0.60400   0.00000  Uiso   1.00
N1033  N     0.83332   0.83332   0.61907   0.00000  Uiso   1.00
N1034  N     0.83335   0.83334   0.38093   0.00000  Uiso   1.00
O1035  O     0.83333   0.77225   0.53821   0.00000  Uiso   1.00
O1036  O     0.83334   0.89442   0.46179   0.00000  Uiso   1.00
O1037  O     0.83333   0.77226   0.46176   0.00000  Uiso   1.00
O1038  O     0.83334   0.89441   0.53824   0.00000  Uiso   1.00
O1039  O     0.75725   0.83333   0.52928   0.00000  Uiso   1.00
O1040  O     0.90942   0.83334   0.47072   0.00000  Uiso   1.00
O1041  O     0.75725   0.83334   0.45284   0.00000  Uiso   1.00
O1042  O     0.90942   0.83333   0.54716   0.00000  Uiso   1.00
Zn1043 Zn    0.83333   0.83333   0.55104   0.00000  Uiso   1.00
Zn1044 Zn    0.83333   0.83334   0.44896   0.00000  Uiso   1.00
C1045  C     0.16897   0.08677   0.83373   0.00000  Uiso   1.00
C1046  C     0.15073   0.02136   0.86940   0.00000  Uiso   1.00
C1047  C     0.16242   0.29077   0.83265   0.00000  Uiso   1.00
C1048  C     0.17090   0.04256   0.83401   0.00000  Uiso   1.00
C1049  C     0.20120   0.19167   0.69359   0.00000  Uiso   1.00
C1050  C     0.13213   0.14167   0.97308   0.00000  Uiso   1.00
C1051  C     0.20099   0.19146   0.97925   0.00000  Uiso   1.00
C1052  C     0.13234   0.14188   0.68742   0.00000  Uiso   1.00
C1053  C     0.21377   0.04162   0.76112   0.00000  Uiso   1.00
C1054  C     0.19008   0.03922   0.71555   0.00000  Uiso   1.00
C1055  C     0.21440   0.05813   0.68090   0.00000  Uiso   1.00
C1056  C     0.16437   0.24656   0.83294   0.00000  Uiso   1.00
C1057  C     0.26260   0.07928   0.69142   0.00000  Uiso   1.00
C1058  C     0.28668   0.08141   0.73660   0.00000  Uiso   1.00
C1059  C     0.26234   0.06281   0.77143   0.00000  Uiso   1.00
C1060  C     0.11946   0.29172   0.90551   0.00000  Uiso   1.00
C1061  C     0.07095   0.27046   0.89511   0.00000  Uiso   1.00
C1062  C     0.04651   0.25189   0.92990   0.00000  Uiso   1.00
C1063  C     0.07043   0.25412   0.97512   0.00000  Uiso   1.00
C1064  C     0.11858   0.27533   0.98572   0.00000  Uiso   1.00
C1065  C     0.14299   0.29421   0.95111   0.00000  Uiso   1.00
C1066  C     0.06716   0.16655   0.82153   0.00000  Uiso   1.00
C1067  C     0.26617   0.16678   0.84513   0.00000  Uiso   1.00
C1068  C     0.01225   0.16615   0.81514   0.00000  Uiso   1.00
C1069  C     0.32108   0.16715   0.85153   0.00000  Uiso   1.00
C1070  C     0.18814   0.02119   0.79782   0.00000  Uiso   1.00
C1071  C     0.14517   0.31214   0.86884   0.00000  Uiso   1.00
C1072  C     0.18259   0.31197   0.79727   0.00000  Uiso   1.00
H1073  H     0.32546   0.16490   0.78046   0.00000  Uiso   1.00
H1074  H     0.32436   0.09730   0.74455   0.00000  Uiso   1.00
H1075  H     0.28137   0.06470   0.80632   0.00000  Uiso   1.00
H1076  H     0.05205   0.26848   0.86019   0.00000  Uiso   1.00
H1077  H     0.00887   0.23596   0.92188   0.00000  Uiso   1.00
H1078  H     0.05157   0.23954   0.66862   0.00000  Uiso   1.00
H1079  H     0.13702   0.27706   0.68742   0.00000  Uiso   1.00
H1080  H     0.18041   0.31041   0.95973   0.00000  Uiso   1.00
H1081  H     0.00787   0.16839   0.88620   0.00000  Uiso   1.00
H1082  H     0.19605   0.29538   0.76983   0.00000  Uiso   1.00
H1083  H     0.13725   0.03795   0.89683   0.00000  Uiso   1.00
H1084  H     0.22822   0.21134   0.96366   0.00000  Uiso   1.00
H1085  H     0.10510   0.12200   0.70300   0.00000  Uiso   1.00
H1086  H     0.15261   0.02309   0.70699   0.00000  Uiso   1.00
H1087  H     0.19583   0.05648   0.97922   0.00000  Uiso   1.00
H1088  H     0.28137   0.09389   0.99788   0.00000  Uiso   1.00
I1089  I     0.25700   0.23280   0.72934   0.00000  Uiso   1.00
I1090  I     0.07634   0.10054   0.93733   0.00000  Uiso   1.00
N1091  N     0.16665   0.16666   0.95240   0.00000  Uiso   1.00
N1092  N     0.16668   0.16668   0.71427   0.00000  Uiso   1.00
O1093  O     0.16666   0.10558   0.87154   0.00000  Uiso   1.00
O1094  O     0.16667   0.22775   0.79513   0.00000  Uiso   1.00
O1095  O     0.16666   0.10559   0.79510   0.00000  Uiso   1.00
O1096  O     0.16667   0.22774   0.87157   0.00000  Uiso   1.00
O1097  O     0.09058   0.16666   0.86261   0.00000  Uiso   1.00
O1098  O     0.24275   0.16667   0.80405   0.00000  Uiso   1.00
O1099  O     0.09058   0.16667   0.78617   0.00000  Uiso   1.00
O1100  O     0.24275   0.16666   0.88050   0.00000  Uiso   1.00
Zn1101 Zn    0.16667   0.16666   0.88437   0.00000  Uiso   1.00
Zn1102 Zn    0.16667   0.16667   0.78229   0.00000  Uiso   1.00
C1103  C     0.50230   0.08677   0.83373   0.00000  Uiso   1.00
C1104  C     0.48406   0.02136   0.86940   0.00000  Uiso   1.00
C1105  C     0.49575   0.29077   0.83265   0.00000  Uiso   1.00
C1106  C     0.50423   0.04256   0.83401   0.00000  Uiso   1.00
C1107  C     0.53454   0.19167   0.69359   0.00000  Uiso   1.00
C1108  C     0.46546   0.14167   0.97308   0.00000  Uiso   1.00
C1109  C     0.53432   0.19146   0.97925   0.00000  Uiso   1.00
C1110  C     0.46567   0.14188   0.68742   0.00000  Uiso   1.00
C1111  C     0.54710   0.04162   0.76112   0.00000  Uiso   1.00
C1112  C     0.52341   0.03922   0.71555   0.00000  Uiso   1.00
C1113  C     0.54773   0.05813   0.68090   0.00000  Uiso   1.00
C1114  C     0.49770   0.24656   0.83294   0.00000  Uiso   1.00
C1115  C     0.59594   0.07928   0.69142   0.00000  Uiso   1.00
C1116  C     0.62002   0.08141   0.73660   0.00000  Uiso   1.00
C1117  C     0.59568   0.06281   0.77143   0.00000  Uiso   1.00
C1118  C     0.45280   0.29172   0.90551   0.00000  Uiso   1.00
C1119  C     0.40429   0.27046   0.89511   0.00000  Uiso   1.00
C1120  C     0.37985   0.25189   0.92990   0.00000  Uiso   1.00
C1121  C     0.40376   0.25412   0.97512   0.00000  Uiso   1.00
C1122  C     0.45191   0.27533   0.98572   0.00000  Uiso   1.00
C1123  C     0.47632   0.29421   0.95111   0.00000  Uiso   1.00
C1124  C     0.40050   0.16655   0.82153   0.00000  Uiso   1.00
C1125  C     0.59950   0.16678   0.84513   0.00000  Uiso   1.00
C1126  C     0.34559   0.16615   0.81514   0.00000  Uiso   1.00
C1127  C     0.65441   0.16715   0.85153   0.00000  Uiso   1.00
C1128  C     0.52147   0.02119   0.79782   0.00000  Uiso   1.00
C1129  C     0.47850   0.31214   0.86884   0.00000  Uiso   1.00
C1130  C     0.51592   0.31197   0.79727   0.00000  Uiso   1.00
H1131  H     0.65879   0.16490   0.78046   0.00000  Uiso   1.00
H1132  H     0.65769   0.09730   0.74455   0.00000  Uiso   1.00
H1133  H     0.61470   0.06470   0.80632   0.00000  Uiso   1.00
H1134  H     0.38538   0.26848   0.86019   0.00000  Uiso   1.00
H1135  H     0.34221   0.23596   0.92188   0.00000  Uiso   1.00
H1136  H     0.38490   0.23954   0.66862   0.00000  Uiso   1.00
H1137  H     0.47035   0.27706   0.68742   0.00000  Uiso   1.00
H1138  H     0.51374   0.31041   0.95973   0.00000  Uiso   1.00
H1139  H     0.34121   0.16839   0.88620   0.00000  Uiso   1.00
H1140  H     0.52939   0.29538   0.76983   0.00000  Uiso   1.00
H1141  H     0.47058   0.03795   0.89683   0.00000  Uiso   1.00
H1142  H     0.56156   0.21134   0.96366   0.00000  Uiso   1.00
H1143  H     0.43844   0.12200   0.70300   0.00000  Uiso   1.00
H1144  H     0.48594   0.02309   0.70699   0.00000  Uiso   1.00
H1145  H     0.52916   0.05648   0.97922   0.00000  Uiso   1.00
H1146  H     0.61471   0.09389   0.99788   0.00000  Uiso   1.00
I1147  I     0.59033   0.23280   0.72934   0.00000  Uiso   1.00
I1148  I     0.40967   0.10054   0.93733   0.00000  Uiso   1.00
N1149  N     0.49999   0.16666   0.95240   0.00000  Uiso   1.00
N1150  N     0.50001   0.16668   0.71427   0.00000  Uiso   1.00
O1151  O     0.50000   0.10558   0.87154   0.00000  Uiso   1.00
O1152  O     0.50000   0.22775   0.79513   0.00000  Uiso   1.00
O1153  O     0.50000   0.10559   0.79510   0.00000  Uiso   1.00
O1154  O     0.50000   0.22774   0.87157   0.00000  Uiso   1.00
O1155  O     0.42392   0.16666   0.86261   0.00000  Uiso   1.00
O1156  O     0.57608   0.16667   0.80405   0.00000  Uiso   1.00
O1157  O     0.42392   0.16667   0.78617   0.00000  Uiso   1.00
O1158  O     0.57608   0.16666   0.88050   0.00000  Uiso   1.00
Zn1159 Zn    0.50000   0.16666   0.88437   0.00000  Uiso   1.00
Zn1160 Zn    0.50000   0.16667   0.78229   0.00000  Uiso   1.00
C1161  C     0.83563   0.08677   0.83373   0.00000  Uiso   1.00
C1162  C     0.81739   0.02136   0.86940   0.00000  Uiso   1.00
C1163  C     0.82909   0.29077   0.83265   0.00000  Uiso   1.00
C1164  C     0.83757   0.04256   0.83401   0.00000  Uiso   1.00
C1165  C     0.86787   0.19167   0.69359   0.00000  Uiso   1.00
C1166  C     0.79879   0.14167   0.97308   0.00000  Uiso   1.00
C1167  C     0.86765   0.19146   0.97925   0.00000  Uiso   1.00
C1168  C     0.79901   0.14188   0.68742   0.00000  Uiso   1.00
C1169  C     0.88044   0.04162   0.76112   0.00000  Uiso   1.00
C1170  C     0.85675   0.03922   0.71555   0.00000  Uiso   1.00
C1171  C     0.88107   0.05813   0.68090   0.00000  Uiso   1.00
C1172  C     0.83104   0.24656   0.83294   0.00000  Uiso   1.00
C1173  C     0.92927   0.07928   0.69142   0.00000  Uiso   1.00
C1174  C     0.95335   0.08141   0.73660   0.00000  Uiso   1.00
C1175  C     0.92901   0.06281   0.77143   0.00000  Uiso   1.00
C1176  C     0.78613   0.29172   0.90551   0.00000  Uiso   1.00
C1177  C     0.73762   0.27046   0.89511   0.00000  Uiso   1.00
C1178  C     0.71318   0.25189   0.92990   0.00000  Uiso   1.00
C1179  C     0.73710   0.25412   0.97512   0.00000  Uiso   1.00
C1180  C     0.78524   0.27533   0.98572   0.00000  Uiso   1.00
C1181  C     0.80966   0.29421   0.95111   0.00000  Uiso   1.00
C1182  C     0.73383   0.16655   0.82153   0.00000  Uiso   1.00
C1183  C     0.93284   0.16678   0.84513   0.00000  Uiso   1.00
C1184  C     0.67892   0.16615   0.81514   0.00000  Uiso   1.00
C1185  C     0.98775   0.16715   0.85153   0.00000  Uiso   1.00
C1186  C     0.85480   0.02119   0.79782   0.00000  Uiso   1.00
C1187  C     0.81184   0.31214   0.86884   0.00000  Uiso   1.00
C1188  C     0.84925   0.31197   0.79727   0.00000  Uiso   1.00
H1189  H     0.99212   0.16490   0.78046   0.00000  Uiso   1.00
H1190  H     0.99103   0.09730   0.74455   0.00000  Uiso   1.00
H1191  H     0.94803   0.06470   0.80632   0.00000  Uiso   1.00
H1192  H     0.71872   0.26848   0.86019   0.00000  Uiso   1.00
H1193  H     0.67554   0.23596   0.92188   0.00000  Uiso   1.00
H1194  H     0.71823   0.23954   0.66862   0.00000  Uiso   1.00
H1195  H     0.80369   0.27706   0.68742   0.00000  Uiso   1.00
H1196  H     0.84707   0.31041   0.95973   0.00000  Uiso   1.00
H1197  H     0.67454   0.16839   0.88620   0.00000  Uiso   1.00
H1198  H     0.86272   0.29538   0.76983   0.00000  Uiso   1.00
H1199  H     0.80391   0.03795   0.89683   0.00000  Uiso   1.00
H1200  H     0.89489   0.21134   0.96366   0.00000  Uiso   1.00
H1201  H     0.77177   0.12200   0.70300   0.00000  Uiso   1.00
H1202  H     0.81928   0.02309   0.70699   0.00000  Uiso   1.00
H1203  H     0.86250   0.05648   0.97922   0.00000  Uiso   1.00
H1204  H     0.94804   0.09389   0.99788   0.00000  Uiso   1.00
I1205  I     0.92366   0.23280   0.72934   0.00000  Uiso   1.00
I1206  I     0.74300   0.10054   0.93733   0.00000  Uiso   1.00
N1207  N     0.83332   0.16666   0.95240   0.00000  Uiso   1.00
N1208  N     0.83335   0.16668   0.71427   0.00000  Uiso   1.00
O1209  O     0.83333   0.10558   0.87154   0.00000  Uiso   1.00
O1210  O     0.83334   0.22775   0.79513   0.00000  Uiso   1.00
O1211  O     0.83333   0.10559   0.79510   0.00000  Uiso   1.00
O1212  O     0.83334   0.22774   0.87157   0.00000  Uiso   1.00
O1213  O     0.75725   0.16666   0.86261   0.00000  Uiso   1.00
O1214  O     0.90942   0.16667   0.80405   0.00000  Uiso   1.00
O1215  O     0.75725   0.16667   0.78617   0.00000  Uiso   1.00
O1216  O     0.90942   0.16666   0.88050   0.00000  Uiso   1.00
Zn1217 Zn    0.83333   0.16666   0.88437   0.00000  Uiso   1.00
Zn1218 Zn    0.83333   0.16667   0.78229   0.00000  Uiso   1.00
C1219  C     0.16897   0.42011   0.83373   0.00000  Uiso   1.00
C1220  C     0.15073   0.35469   0.86940   0.00000  Uiso   1.00
C1221  C     0.16242   0.62411   0.83265   0.00000  Uiso   1.00
C1222  C     0.17090   0.37589   0.83401   0.00000  Uiso   1.00
C1223  C     0.20120   0.52500   0.69359   0.00000  Uiso   1.00
C1224  C     0.13213   0.47500   0.97308   0.00000  Uiso   1.00
C1225  C     0.20099   0.52480   0.97925   0.00000  Uiso   1.00
C1226  C     0.13234   0.47521   0.68742   0.00000  Uiso   1.00
C1227  C     0.21377   0.37495   0.76112   0.00000  Uiso   1.00
C1228  C     0.19008   0.37255   0.71555   0.00000  Uiso   1.00
C1229  C     0.21440   0.39147   0.68090   0.00000  Uiso   1.00
C1230  C     0.16437   0.57989   0.83294   0.00000  Uiso   1.00
C1231  C     0.26260   0.41262   0.69142   0.00000  Uiso   1.00
C1232  C     0.28668   0.41475   0.73660   0.00000  Uiso   1.00
C1233  C     0.26234   0.39614   0.77143   0.00000  Uiso   1.00
C1234  C     0.11946   0.62505   0.90551   0.00000  Uiso   1.00
C1235  C     0.07095   0.60379   0.89511   0.00000  Uiso   1.00
C1236  C     0.04651   0.58522   0.92990   0.00000  Uiso   1.00
C1237  C     0.07043   0.58745   0.97512   0.00000  Uiso   1.00
C1238  C     0.11858   0.60866   0.98572   0.00000  Uiso   1.00
C1239  C     0.14299   0.62755   0.95111   0.00000  Uiso   1.00
C1240  C     0.06716   0.49988   0.82153   0.00000  Uiso   1.00
C1241  C     0.26617   0.50011   0.84513   0.00000  Uiso   1.00
C1242  C     0.01225   0.49948   0.81514   0.00000  Uiso   1.00
C1243  C     0.32108   0.50048   0.85153   0.00000  Uiso   1.00
C1244  C     0.18814   0.35452   0.79782   0.00000  Uiso   1.00
C1245  C     0.14517   0.64548   0.86884   0.00000  Uiso   1.00
C1246  C     0.18259   0.64531   0.79727   0.00000  Uiso   1.00
H1247  H     0.32546   0.49824   0.78046   0.00000  Uiso   1.00
H1248  H     0.32436   0.43063   0.74455   0.00000  Uiso   1.00
H1249  H     0.28137   0.39804   0.80632   0.00000  Uiso   1.00
H1250  H     0.05205   0.60182   0.86019   0.00000  Uiso   1.00
H1251  H     0.00887   0.56930   0.92188   0.00000  Uiso   1.00
H1252  H     0.05157   0.57287   0.66862   0.00000  Uiso   1.00
H1253  H     0.13702   0.61039   0.68742   0.00000  Uiso   1.00
H1254  H     0.18041   0.64374   0.95973   0.00000  Uiso   1.00
H1255  H     0.00787   0.50172   0.88620   0.00000  Uiso   1.00
H1256  H     0.19605   0.62871   0.76983   0.00000  Uiso   1.00
H1257  H     0.13725   0.37129   0.89683   0.00000  Uiso   1.00
H1258  H     0.22822   0.54468   0.96366   0.00000  Uiso   1.00
H1259  H     0.10510   0.45533   0.70300   0.00000  Uiso   1.00
H1260  H     0.15261   0.35642   0.70699   0.00000  Uiso   1.00
H1261  H     0.19583   0.38982   0.97922   0.00000  Uiso   1.00
H1262  H     0.28137   0.42723   0.99788   0.00000  Uiso   1.00
I1263  I     0.25700   0.56613   0.72934   0.00000  Uiso   1.00
I1264  I     0.07634   0.43387   0.93733   0.00000  Uiso   1.00
N1265  N     0.16665   0.49999   0.95240   0.00000  Uiso   1.00
N1266  N     0.16668   0.50001   0.71427   0.00000  Uiso   1.00
O1267  O     0.16666   0.43892   0.87154   0.00000  Uiso   1.00
O1268  O     0.16667   0.56108   0.79513   0.00000  Uiso   1.00
O1269  O     0.16666   0.43893   0.79510   0.00000  Uiso   1.00
O1270  O     0.16667   0.56107   0.87157   0.00000  Uiso   1.00
O1271  O     0.09058   0.50000   0.86261   0.00000  Uiso   1.00
O1272  O     0.24275   0.50000   0.80405   0.00000  Uiso   1.00
O1273  O     0.09058   0.50000   0.78617   0.00000  Uiso   1.00
O1274  O     0.24275   0.50000   0.88050   0.00000  Uiso   1.00
Zn1275 Zn    0.16667   0.49999   0.88437   0.00000  Uiso   1.00
Zn1276 Zn    0.16667   0.50001   0.78229   0.00000  Uiso   1.00
C1277  C     0.50230   0.42011   0.83373   0.00000  Uiso   1.00
C1278  C     0.48406   0.35469   0.86940   0.00000  Uiso   1.00
C1279  C     0.49575   0.62411   0.83265   0.00000  Uiso   1.00
C1280  C     0.50423   0.37589   0.83401   0.00000  Uiso   1.00
C1281  C     0.53454   0.52500   0.69359   0.00000  Uiso   1.00
C1282  C     0.46546   0.47500   0.97308   0.00000  Uiso   1.00
C1283  C     0.53432   0.52480   0.97925   0.00000  Uiso   1.00
C1284  C     0.46567   0.47521   0.68742   0.00000  Uiso   1.00
C1285  C     0.54710   0.37495   0.76112   0.00000  Uiso   1.00
C1286  C     0.52341   0.37255   0.71555   0.00000  Uiso   1.00
C1287  C     0.54773   0.39147   0.68090   0.00000  Uiso   1.00
C1288  C     0.49770   0.57989   0.83294   0.00000  Uiso   1.00
C1289  C     0.59594   0.41262   0.69142   0.00000  Uiso   1.00
C1290  C     0.62002   0.41475   0.73660   0.00000  Uiso   1.00
C1291  C     0.59568   0.39614   0.77143   0.00000  Uiso   1.00
C1292  C     0.45280   0.62505   0.90551   0.00000  Uiso   1.00
C1293  C     0.40429   0.60379   0.89511   0.00000  Uiso   1.00
C1294  C     0.37985   0.58522   0.92990   0.00000  Uiso   1.00
C1295  C     0.40376   0.58745   0.97512   0.00000  Uiso   1.00
C1296  C     0.45191   0.60866   0.98572   0.00000  Uiso   1.00
C1297  C     0.47632   0.62755   0.95111   0.00000  Uiso   1.00
C1298  C     0.40050   0.49988   0.82153   0.00000  Uiso   1.00
C1299  C     0.59950   0.50011   0.84513   0.00000  Uiso   1.00
C1300  C     0.34559   0.49948   0.81514   0.00000  Uiso   1.00
C1301  C     0.65441   0.50048   0.85153   0.00000  Uiso   1.00
C1302  C     0.52147   0.35452   0.79782   0.00000  Uiso   1.00
C1303  C     0.47850   0.64548   0.86884   0.00000  Uiso   1.00
C1304  C     0.51592   0.64531   0.79727   0.00000  Uiso   1.00
H1305  H     0.65879   0.49824   0.78046   0.00000  Uiso   1.00
H1306  H     0.65769   0.43063   0.74455   0.00000  Uiso   1.00
H1307  H     0.61470   0.39804   0.80632   0.00000  Uiso   1.00
H1308  H     0.38538   0.60182   0.86019   0.00000  Uiso   1.00
H1309  H     0.34221   0.56930   0.92188   0.00000  Uiso   1.00
H1310  H     0.38490   0.57287   0.66862   0.00000  Uiso   1.00
H1311  H     0.47035   0.61039   0.68742   0.00000  Uiso   1.00
H1312  H     0.51374   0.64374   0.95973   0.00000  Uiso   1.00
H1313  H     0.34121   0.50172   0.88620   0.00000  Uiso   1.00
H1314  H     0.52939   0.62871   0.76983   0.00000  Uiso   1.00
H1315  H     0.47058   0.37129   0.89683   0.00000  Uiso   1.00
H1316  H     0.56156   0.54468   0.96366   0.00000  Uiso   1.00
H1317  H     0.43844   0.45533   0.70300   0.00000  Uiso   1.00
H1318  H     0.48594   0.35642   0.70699   0.00000  Uiso   1.00
H1319  H     0.52916   0.38982   0.97922   0.00000  Uiso   1.00
H1320  H     0.61471   0.42723   0.99788   0.00000  Uiso   1.00
I1321  I     0.59033   0.56613   0.72934   0.00000  Uiso   1.00
I1322  I     0.40967   0.43387   0.93733   0.00000  Uiso   1.00
N1323  N     0.49999   0.49999   0.95240   0.00000  Uiso   1.00
N1324  N     0.50001   0.50001   0.71427   0.00000  Uiso   1.00
O1325  O     0.50000   0.43892   0.87154   0.00000  Uiso   1.00
O1326  O     0.50000   0.56108   0.79513   0.00000  Uiso   1.00
O1327  O     0.50000   0.43893   0.79510   0.00000  Uiso   1.00
O1328  O     0.50000   0.56107   0.87157   0.00000  Uiso   1.00
O1329  O     0.42392   0.50000   0.86261   0.00000  Uiso   1.00
O1330  O     0.57608   0.50000   0.80405   0.00000  Uiso   1.00
O1331  O     0.42392   0.50000   0.78617   0.00000  Uiso   1.00
O1332  O     0.57608   0.50000   0.88050   0.00000  Uiso   1.00
Zn1333 Zn    0.50000   0.49999   0.88437   0.00000  Uiso   1.00
Zn1334 Zn    0.50000   0.50001   0.78229   0.00000  Uiso   1.00
C1335  C     0.83563   0.42011   0.83373   0.00000  Uiso   1.00
C1336  C     0.81739   0.35469   0.86940   0.00000  Uiso   1.00
C1337  C     0.82909   0.62411   0.83265   0.00000  Uiso   1.00
C1338  C     0.83757   0.37589   0.83401   0.00000  Uiso   1.00
C1339  C     0.86787   0.52500   0.69359   0.00000  Uiso   1.00
C1340  C     0.79879   0.47500   0.97308   0.00000  Uiso   1.00
C1341  C     0.86765   0.52480   0.97925   0.00000  Uiso   1.00
C1342  C     0.79901   0.47521   0.68742   0.00000  Uiso   1.00
C1343  C     0.88044   0.37495   0.76112   0.00000  Uiso   1.00
C1344  C     0.85675   0.37255   0.71555   0.00000  Uiso   1.00
C1345  C     0.88107   0.39147   0.68090   0.00000  Uiso   1.00
C1346  C     0.83104   0.57989   0.83294   0.00000  Uiso   1.00
C1347  C     0.92927   0.41262   0.69142   0.00000  Uiso   1.00
C1348  C     0.95335   0.41475   0.73660   0.00000  Uiso   1.00
C1349  C     0.92901   0.39614   0.77143   0.00000  Uiso   1.00
C1350  C     0.78613   0.62505   0.90551   0.00000  Uiso   1.00
C1351  C     0.73762   0.60379   0.89511   0.00000  Uiso   1.00
C1352  C     0.71318   0.58522   0.92990   0.00000  Uiso   1.00
C1353  C     0.73710   0.58745   0.97512   0.00000  Uiso   1.00
C1354  C     0.78524   0.60866   0.98572   0.00000  Uiso   1.00
C1355  C     0.80966   0.62755   0.95111   0.00000  Uiso   1.00
C1356  C     0.73383   0.49988   0.82153   0.00000  Uiso   1.00
C1357  C     0.93284   0.50011   0.84513   0.00000  Uiso   1.00
C1358  C     0.67892   0.49948   0.81514   0.00000  Uiso   1.00
C1359  C     0.98775   0.50048   0.85153   0.00000  Uiso   1.00
C1360  C     0.85480   0.35452   0.79782   0.00000  Uiso   1.00
C1361  C     0.81184   0.64548   0.86884   0.00000  Uiso   1.00
C1362  C     0.84925   0.64531   0.79727   0.00000  Uiso   1.00
H1363  H     0.99212   0.49824   0.78046   0.00000  Uiso   1.00
H1364  H     0.99103   0.43063   0.74455   0.00000  Uiso   1.00
H1365  H     0.94803   0.39804   0.80632   0.00000  Uiso   1.00
H1366  H     0.71872   0.60182   0.86019   0.00000  Uiso   1.00
H1367  H     0.67554   0.56930   0.92188   0.00000  Uiso   1.00
H1368  H     0.71823   0.57287   0.66862   0.00000  Uiso   1.00
H1369  H     0.80369   0.61039   0.68742   0.00000  Uiso   1.00
H1370  H     0.84707   0.64374   0.95973   0.00000  Uiso   1.00
H1371  H     0.67454   0.50172   0.88620   0.00000  Uiso   1.00
H1372  H     0.86272   0.62871   0.76983   0.00000  Uiso   1.00
H1373  H     0.80391   0.37129   0.89683   0.00000  Uiso   1.00
H1374  H     0.89489   0.54468   0.96366   0.00000  Uiso   1.00
H1375  H     0.77177   0.45533   0.70300   0.00000  Uiso   1.00
H1376  H     0.81928   0.35642   0.70699   0.00000  Uiso   1.00
H1377  H     0.86250   0.38982   0.97922   0.00000  Uiso   1.00
H1378  H     0.94804   0.42723   0.99788   0.00000  Uiso   1.00
I1379  I     0.92366   0.56613   0.72934   0.00000  Uiso   1.00
I1380  I     0.74300   0.43387   0.93733   0.00000  Uiso   1.00
N1381  N     0.83332   0.49999   0.95240   0.00000  Uiso   1.00
N1382  N     0.83335   0.50001   0.71427   0.00000  Uiso   1.00
O1383  O     0.83333   0.43892   0.87154   0.00000  Uiso   1.00
O1384  O     0.83334   0.56108   0.79513   0.00000  Uiso   1.00
O1385  O     0.83333   0.43893   0.79510   0.00000  Uiso   1.00
O1386  O     0.83334   0.56107   0.87157   0.00000  Uiso   1.00
O1387  O     0.75725   0.50000   0.86261   0.00000  Uiso   1.00
O1388  O     0.90942   0.50000   0.80405   0.00000  Uiso   1.00
O1389  O     0.75725   0.50000   0.78617   0.00000  Uiso   1.00
O1390  O     0.90942   0.50000   0.88050   0.00000  Uiso   1.00
Zn1391 Zn    0.83333   0.49999   0.88437   0.00000  Uiso   1.00
Zn1392 Zn    0.83333   0.50001   0.78229   0.00000  Uiso   1.00
C1393  C     0.16897   0.75344   0.83373   0.00000  Uiso   1.00
C1394  C     0.15073   0.68803   0.86940   0.00000  Uiso   1.00
C1395  C     0.16242   0.95744   0.83265   0.00000  Uiso   1.00
C1396  C     0.17090   0.70922   0.83401   0.00000  Uiso   1.00
C1397  C     0.20120   0.85833   0.69359   0.00000  Uiso   1.00
C1398  C     0.13213   0.80834   0.97308   0.00000  Uiso   1.00
C1399  C     0.20099   0.85813   0.97925   0.00000  Uiso   1.00
C1400  C     0.13234   0.80854   0.68742   0.00000  Uiso   1.00
C1401  C     0.21377   0.70829   0.76112   0.00000  Uiso   1.00
C1402  C     0.19008   0.70589   0.71555   0.00000  Uiso   1.00
C1403  C     0.21440   0.72480   0.68090   0.00000  Uiso   1.00
C1404  C     0.16437   0.91323   0.83294   0.00000  Uiso   1.00
C1405  C     0.26260   0.74595   0.69142   0.00000  Uiso   1.00
C1406  C     0.28668   0.74808   0.73660   0.00000  Uiso   1.00
C1407  C     0.26234   0.72947   0.77143   0.00000  Uiso   1.00
C1408  C     0.11946   0.95838   0.90551   0.00000  Uiso   1.00
C1409  C     0.07095   0.93712   0.89511   0.00000  Uiso   1.00
C1410  C     0.04651   0.91855   0.92990   0.00000  Uiso   1.00
C1411  C     0.07043   0.92078   0.97512   0.00000  Uiso   1.00
C1412  C     0.11858   0.94199   0.98572   0.00000  Uiso   1.00
C1413  C     0.14299   0.96088   0.95111   0.00000  Uiso   1.00
C1414  C     0.06716   0.83321   0.82153   0.00000  Uiso   1.00
C1415  C     0.26617   0.83344   0.84513   0.00000  Uiso   1.00
C1416  C     0.01225   0.83281   0.81514   0.00000  Uiso   1.00
C1417  C     0.32108   0.83381   0.85153   0.00000  Uiso   1.00
C1418  C     0.18814   0.68785   0.79782   0.00000  Uiso   1.00
C1419  C     0.14517   0.97881   0.86884   0.00000  Uiso   1.00
C1420  C     0.18259   0.97864   0.79727   0.00000  Uiso   1.00
H1421  H     0.32546   0.83157   0.78046   0.00000  Uiso   1.00
H1422  H     0.32436   0.76396   0.74455   0.00000  Uiso   1.00
H1423  H     0.28137   0.73137   0.80632   0.00000  Uiso   1.00
H1424  H     0.05205   0.93515   0.86019   0.00000  Uiso   1.00
H1425  H     0.00887   0.90263   0.92188   0.00000  Uiso   1.00
H1426  H     0.05157   0.90620   0.66862   0.00000  Uiso   1.00
H1427  H     0.13702   0.94372   0.68742   0.00000  Uiso   1.00
H1428  H     0.18041   0.97707   0.95973   0.00000  Uiso   1.00
H1429  H     0.00787   0.83505   0.88620   0.00000  Uiso   1.00
H1430  H     0.19605   0.96205   0.76983   0.00000  Uiso   1.00
H1431  H     0.13725   0.70462   0.89683   0.00000  Uiso   1.00
H1432  H     0.22822   0.87801   0.96366   0.00000  Uiso   1.00
H1433  H     0.10510   0.78867   0.70300   0.00000  Uiso   1.00
H1434  H     0.15261   0.68975   0.70699   0.00000  Uiso   1.00
H1435  H     0.19583   0.72315   0.97922   0.00000  Uiso   1.00
H1436  H     0.28137   0.76056   0.99788   0.00000  Uiso   1.00
I1437  I     0.25700   0.89947   0.72934   0.00000  Uiso   1.00
I1438  I     0.07634   0.76720   0.93733   0.00000  Uiso   1.00
N1439  N     0.16665   0.83332   0.95240   0.00000  Uiso   1.00
N1440  N     0.16668   0.83334   0.71427   0.00000  Uiso   1.00
O1441  O     0.16666   0.77225   0.87154   0.00000  Uiso   1.00
O1442  O     0.16667   0.89442   0.79513   0.00000  Uiso   1.00
O1443  O     0.16666   0.77226   0.79510   0.00000  Uiso   1.00
O1444  O     0.16667   0.89441   0.87157   0.00000  Uiso   1.00
O1445  O     0.09058   0.83333   0.86261   0.00000  Uiso   1.00
O1446  O     0.24275   0.83334   0.80405   0.00000  Uiso   1.00
O1447  O     0.09058   0.83334   0.78617   0.00000  Uiso   1.00
O1448  O     0.24275   0.83333   0.88050   0.00000  Uiso   1.00
Zn1449 Zn    0.16667   0.83333   0.88437   0.00000  Uiso   1.00
Zn1450 Zn    0.16667   0.83334   0.78229   0.00000  Uiso   1.00
C1451  C     0.50230   0.75344   0.83373   0.00000  Uiso   1.00
C1452  C     0.48406   0.68803   0.86940   0.00000  Uiso   1.00
C1453  C     0.49575   0.95744   0.83265   0.00000  Uiso   1.00
C1454  C     0.50423   0.70922   0.83401   0.00000  Uiso   1.00
C1455  C     0.53454   0.85833   0.69359   0.00000  Uiso   1.00
C1456  C     0.46546   0.80834   0.97308   0.00000  Uiso   1.00
C1457  C     0.53432   0.85813   0.97925   0.00000  Uiso   1.00
C1458  C     0.46567   0.80854   0.68742   0.00000  Uiso   1.00
C1459  C     0.54710   0.70829   0.76112   0.00000  Uiso   1.00
C1460  C     0.52341   0.70589   0.71555   0.00000  Uiso   1.00
C1461  C     0.54773   0.72480   0.68090   0.00000  Uiso   1.00
C1462  C     0.49770   0.91323   0.83294   0.00000  Uiso   1.00
C1463  C     0.59594   0.74595   0.69142   0.00000  Uiso   1.00
C1464  C     0.62002   0.74808   0.73660   0.00000  Uiso   1.00
C1465  C     0.59568   0.72947   0.77143   0.00000  Uiso   1.00
C1466  C     0.45280   0.95838   0.90551   0.00000  Uiso   1.00
C1467  C     0.40429   0.93712   0.89511   0.00000  Uiso   1.00
C1468  C     0.37985   0.91855   0.92990   0.00000  Uiso   1.00
C1469  C     0.40376   0.92078   0.97512   0.00000  Uiso   1.00
C1470  C     0.45191   0.94199   0.98572   0.00000  Uiso   1.00
C1471  C     0.47632   0.96088   0.95111   0.00000  Uiso   1.00
C1472  C     0.40050   0.83321   0.82153   0.00000  Uiso   1.00
C1473  C     0.59950   0.83344   0.84513   0.00000  Uiso   1.00
C1474  C     0.34559   0.83281   0.81514   0.00000  Uiso   1.00
C1475  C     0.65441   0.83381   0.85153   0.00000  Uiso   1.00
C1476  C     0.52147   0.68785   0.79782   0.00000  Uiso   1.00
C1477  C     0.47850   0.97881   0.86884   0.00000  Uiso   1.00
C1478  C     0.51592   0.97864   0.79727   0.00000  Uiso   1.00
H1479  H     0.65879   0.83157   0.78046   0.00000  Uiso   1.00
H1480  H     0.65769   0.76396   0.74455   0.00000  Uiso   1.00
H1481  H     0.61470   0.73137   0.80632   0.00000  Uiso   1.00
H1482  H     0.38538   0.93515   0.86019   0.00000  Uiso   1.00
H1483  H     0.34221   0.90263   0.92188   0.00000  Uiso   1.00
H1484  H     0.38490   0.90620   0.66862   0.00000  Uiso   1.00
H1485  H     0.47035   0.94372   0.68742   0.00000  Uiso   1.00
H1486  H     0.51374   0.97707   0.95973   0.00000  Uiso   1.00
H1487  H     0.34121   0.83505   0.88620   0.00000  Uiso   1.00
H1488  H     0.52939   0.96205   0.76983   0.00000  Uiso   1.00
H1489  H     0.47058   0.70462   0.89683   0.00000  Uiso   1.00
H1490  H     0.56156   0.87801   0.96366   0.00000  Uiso   1.00
H1491  H     0.43844   0.78867   0.70300   0.00000  Uiso   1.00
H1492  H     0.48594   0.68975   0.70699   0.00000  Uiso   1.00
H1493  H     0.52916   0.72315   0.97922   0.00000  Uiso   1.00
H1494  H     0.61471   0.76056   0.99788   0.00000  Uiso   1.00
I1495  I     0.59033   0.89947   0.72934   0.00000  Uiso   1.00
I1496  I     0.40967   0.76720   0.93733   0.00000  Uiso   1.00
N1497  N     0.49999   0.83332   0.95240   0.00000  Uiso   1.00
N1498  N     0.50001   0.83334   0.71427   0.00000  Uiso   1.00
O1499  O     0.50000   0.77225   0.87154   0.00000  Uiso   1.00
O1500  O     0.50000   0.89442   0.79513   0.00000  Uiso   1.00
O1501  O     0.50000   0.77226   0.79510   0.00000  Uiso   1.00
O1502  O     0.50000   0.89441   0.87157   0.00000  Uiso   1.00
O1503  O     0.42392   0.83333   0.86261   0.00000  Uiso   1.00
O1504  O     0.57608   0.83334   0.80405   0.00000  Uiso   1.00
O1505  O     0.42392   0.83334   0.78617   0.00000  Uiso   1.00
O1506  O     0.57608   0.83333   0.88050   0.00000  Uiso   1.00
Zn1507 Zn    0.50000   0.83333   0.88437   0.00000  Uiso   1.00
Zn1508 Zn    0.50000   0.83334   0.78229   0.00000  Uiso   1.00
C1509  C     0.83563   0.75344   0.83373   0.00000  Uiso   1.00
C1510  C     0.81739   0.68803   0.86940   0.00000  Uiso   1.00
C1511  C     0.82909   0.95744   0.83265   0.00000  Uiso   1.00
C1512  C     0.83757   0.70922   0.83401   0.00000  Uiso   1.00
C1513  C     0.86787   0.85833   0.69359   0.00000  Uiso   1.00
C1514  C     0.79879   0.80834   0.97308   0.00000  Uiso   1.00
C1515  C     0.86765   0.85813   0.97925   0.00000  Uiso   1.00
C1516  C     0.79901   0.80854   0.68742   0.00000  Uiso   1.00
C1517  C     0.88044   0.70829   0.76112   0.00000  Uiso   1.00
C1518  C     0.85675   0.70589   0.71555   0.00000  Uiso   1.00
C1519  C     0.88107   0.72480   0.68090   0.00000  Uiso   1.00
C1520  C     0.83104   0.91323   0.83294   0.00000  Uiso   1.00
C1521  C     0.92927   0.74595   0.69142   0.00000  Uiso   1.00
C1522  C     0.95335   0.74808   0.73660   0.00000  Uiso   1.00
C1523  C     0.92901   0.72947   0.77143   0.00000  Uiso   1.00
C1524  C     0.78613   0.95838   0.90551   0.00000  Uiso   1.00
C1525  C     0.73762   0.93712   0.89511   0.00000  Uiso   1.00
C1526  C     0.71318   0.91855   0.92990   0.00000  Uiso   1.00
C1527  C     0.73710   0.92078   0.97512   0.00000  Uiso   1.00
C1528  C     0.78524   0.94199   0.98572   0.00000  Uiso   1.00
C1529  C     0.80966   0.96088   0.95111   0.00000  Uiso   1.00
C1530  C     0.73383   0.83321   0.82153   0.00000  Uiso   1.00
C1531  C     0.93284   0.83344   0.84513   0.00000  Uiso   1.00
C1532  C     0.67892   0.83281   0.81514   0.00000  Uiso   1.00
C1533  C     0.98775   0.83381   0.85153   0.00000  Uiso   1.00
C1534  C     0.85480   0.68785   0.79782   0.00000  Uiso   1.00
C1535  C     0.81184   0.97881   0.86884   0.00000  Uiso   1.00
C1536  C     0.84925   0.97864   0.79727   0.00000  Uiso   1.00
H1537  H     0.99212   0.83157   0.78046   0.00000  Uiso   1.00
H1538  H     0.99103   0.76396   0.74455   0.00000  Uiso   1.00
H1539  H     0.94803   0.73137   0.80632   0.00000  Uiso   1.00
H1540  H     0.71872   0.93515   0.86019   0.00000  Uiso   1.00
H1541  H     0.67554   0.90263   0.92188   0.00000  Uiso   1.00
H1542  H     0.71823   0.90620   0.66862   0.00000  Uiso   1.00
H1543  H     0.80369   0.94372   0.68742   0.00000  Uiso   1.00
H1544  H     0.84707   0.97707   0.95973   0.00000  Uiso   1.00
H1545  H     0.67454   0.83505   0.88620   0.00000  Uiso   1.00
H1546  H     0.86272   0.96205   0.76983   0.00000  Uiso   1.00
H1547  H     0.80391   0.70462   0.89683   0.00000  Uiso   1.00
H1548  H     0.89489   0.87801   0.96366   0.00000  Uiso   1.00
H1549  H     0.77177   0.78867   0.70300   0.00000  Uiso   1.00
H1550  H     0.81928   0.68975   0.70699   0.00000  Uiso   1.00
H1551  H     0.86250   0.72315   0.97922   0.00000  Uiso   1.00
H1552  H     0.94804   0.76056   0.99788   0.00000  Uiso   1.00
I1553  I     0.92366   0.89947   0.72934   0.00000  Uiso   1.00
I1554  I     0.74300   0.76720   0.93733   0.00000  Uiso   1.00
N1555  N     0.83332   0.83332   0.95240   0.00000  Uiso   1.00
N1556  N     0.83335   0.83334   0.71427   0.00000  Uiso   1.00
O1557  O     0.83333   0.77225   0.87154   0.00000  Uiso   1.00
O1558  O     0.83334   0.89442   0.79513   0.00000  Uiso   1.00
O1559  O     0.83333   0.77226   0.79510   0.00000  Uiso   1.00
O1560  O     0.83334   0.89441   0.87157   0.00000  Uiso   1.00
O1561  O     0.75725   0.83333   0.86261   0.00000  Uiso   1.00
O1562  O     0.90942   0.83334   0.80405   0.00000  Uiso   1.00
O1563  O     0.75725   0.83334   0.78617   0.00000  Uiso   1.00
O1564  O     0.90942   0.83333   0.88050   0.00000  Uiso   1.00
Zn1565 Zn    0.83333   0.83333   0.88437   0.00000  Uiso   1.00
Zn1566 Zn    0.83333   0.83334   0.78229   0.00000  Uiso   1.00
loop_
_geom_bond_atom_site_label_1
_geom_bond_atom_site_label_2
_geom_bond_distance
_geom_bond_site_symmetry_2
_ccdc_geom_bond_type
C1     C4      1.426   .     S
C1     O51     1.283   .     A
C1     O49     1.291   .     A
C2     C4      1.395   .     A
C2     H39     1.080   .     S
C2     C375    1.374   1_545 S
C3     C27     1.411   .     A
C3     C28     1.395   .     A
C3     C12     1.426   .     S
C4     C26     1.411   .     A
C5     N48     1.382   .     A
C5     I45     2.112   .     S
C5     C1051   1.413   1_554 S
C6     N47     1.382   .     A
C6     I46     2.112   .     S
C6     C530    1.413   .     S
C7     H40     1.082   .     S
C7     N47     1.356   .     A
C7     C527    1.413   .     S
C8     N48     1.356   .     A
C8     H41     1.082   .     S
C8     C1050   1.413   1_554 S
C9     C10     1.406   .     A
C9     C15     1.405   .     A
C9     C26     1.485   .     S
C10    H42     1.083   .     S
C10    C11     1.399   .     A
C11    C13     1.397   .     A
C11    H1087   1.082   1_554 S
C12    O52     1.283   .     A
C12    O50     1.291   .     A
C13    C14     1.398   .     A
C13    H1088   1.083   1_554 S
C14    H30     1.082   .     S
C14    C15     1.399   .     A
C15    H31     1.083   .     S
C16    C21     1.405   .     A
C16    C27     1.485   .     S
C16    C17     1.405   .     A
C17    C18     1.399   .     A
C17    H32     1.083   .     S
C18    H33     1.082   .     S
C18    C19     1.398   .     A
C19    C20     1.397   .     A
C19    H556    1.083   .     S
C20    C21     1.399   .     A
C20    H557    1.082   .     S
C21    H36     1.083   .     S
C22    O55     1.279   .     A
C22    O53     1.282   .     A
C22    C24     1.398   .     S
C23    O56     1.279   .     A
C23    C25     1.398   .     S
C23    O54     1.282   .     A
C24    C141    1.324   1_455 S
C24    H145    1.086   1_455 S
C25    C82     1.324   .     S
C25    H95     1.086   .     S
C26    C376    1.374   1_545 S
C27    C176    1.374   .     S
C28    H38     1.080   .     S
C28    C200    1.374   .     S
H29    C82     1.086   .     S
H34    C1063   1.083   1_554 S
H35    C1064   1.082   1_554 S
H37    C141    1.086   1_455 S
H43    C533    1.082   .     S
H44    C535    1.083   .     S
N47    Zn57    2.017   .     S
N48    Zn58    2.017   .     S
O49    Zn57    2.008   .     S
O50    Zn58    2.008   .     S
O51    Zn58    1.997   .     S
O52    Zn57    1.997   .     S
O53    Zn57    1.973   .     S
O54    Zn58    1.973   .     S
O55    Zn58    1.975   .     S
O56    Zn57    1.975   .     S
C59    C62     1.426   .     S
C59    O109    1.283   .     A
C59    O107    1.291   .     A
C60    C62     1.395   .     A
C60    H97     1.080   .     S
C60    C433    1.374   1_545 S
C61    C85     1.411   .     A
C61    C86     1.395   .     A
C61    C70     1.426   .     S
C62    C84     1.411   .     A
C63    N106    1.382   .     A
C63    I103    2.112   .     S
C63    C1109   1.413   1_554 S
C64    N105    1.382   .     A
C64    I104    2.112   .     S
C64    C588    1.413   .     S
C65    H98     1.082   .     S
C65    N105    1.356   .     A
C65    C585    1.413   .     S
C66    N106    1.356   .     A
C66    H99     1.082   .     S
C66    C1108   1.413   1_554 S
C67    C68     1.406   .     A
C67    C73     1.405   .     A
C67    C84     1.485   .     S
C68    H100    1.083   .     S
C68    C69     1.399   .     A
C69    C71     1.397   .     A
C69    H1145   1.082   1_554 S
C70    O110    1.283   .     A
C70    O108    1.291   .     A
C71    C72     1.398   .     A
C71    H1146   1.083   1_554 S
C72    H88     1.082   .     S
C72    C73     1.399   .     A
C73    H89     1.083   .     S
C74    C79     1.405   .     A
C74    C85     1.485   .     S
C74    C75     1.405   .     A
C75    C76     1.399   .     A
C75    H90     1.083   .     S
C76    H91     1.082   .     S
C76    C77     1.398   .     A
C77    C78     1.397   .     A
C77    H614    1.083   .     S
C78    C79     1.399   .     A
C78    H615    1.082   .     S
C79    H94     1.083   .     S
C80    O113    1.279   .     A
C80    O111    1.282   .     A
C80    C82     1.398   .     S
C81    O114    1.279   .     A
C81    C83     1.398   .     S
C81    O112    1.282   .     A
C83    C140    1.324   .     S
C83    H153    1.086   .     S
C84    C434    1.374   1_545 S
C85    C234    1.374   .     S
C86    H96     1.080   .     S
C86    C258    1.374   .     S
H87    C140    1.086   .     S
H92    C1121   1.083   1_554 S
H93    C1122   1.082   1_554 S
H101   C591    1.082   .     S
H102   C593    1.083   .     S
N105   Zn115   2.017   .     S
N106   Zn116   2.017   .     S
O107   Zn115   2.008   .     S
O108   Zn116   2.008   .     S
O109   Zn116   1.997   .     S
O110   Zn115   1.997   .     S
O111   Zn115   1.973   .     S
O112   Zn116   1.973   .     S
O113   Zn116   1.975   .     S
O114   Zn115   1.975   .     S
C117   C120    1.426   .     S
C117   O167    1.283   .     A
C117   O165    1.291   .     A
C118   C120    1.395   .     A
C118   H155    1.080   .     S
C118   C491    1.374   1_545 S
C119   C143    1.411   .     A
C119   C144    1.395   .     A
C119   C128    1.426   .     S
C120   C142    1.411   .     A
C121   N164    1.382   .     A
C121   I161    2.112   .     S
C121   C1167   1.413   1_554 S
C122   N163    1.382   .     A
C122   I162    2.112   .     S
C122   C646    1.413   .     S
C123   H156    1.082   .     S
C123   N163    1.356   .     A
C123   C643    1.413   .     S
C124   N164    1.356   .     A
C124   H157    1.082   .     S
C124   C1166   1.413   1_554 S
C125   C126    1.406   .     A
C125   C131    1.405   .     A
C125   C142    1.485   .     S
C126   H158    1.083   .     S
C126   C127    1.399   .     A
C127   C129    1.397   .     A
C127   H1203   1.082   1_554 S
C128   O168    1.283   .     A
C128   O166    1.291   .     A
C129   C130    1.398   .     A
C129   H1204   1.083   1_554 S
C130   H146    1.082   .     S
C130   C131    1.399   .     A
C131   H147    1.083   .     S
C132   C137    1.405   .     A
C132   C143    1.485   .     S
C132   C133    1.405   .     A
C133   C134    1.399   .     A
C133   H148    1.083   .     S
C134   H149    1.082   .     S
C134   C135    1.398   .     A
C135   C136    1.397   .     A
C135   H672    1.083   .     S
C136   C137    1.399   .     A
C136   H673    1.082   .     S
C137   H152    1.083   .     S
C138   O171    1.279   .     A
C138   O169    1.282   .     A
C138   C140    1.398   .     S
C139   O172    1.279   .     A
C139   C141    1.398   .     S
C139   O170    1.282   .     A
C141   C24     1.324   1_655 S
C141   H37     1.086   1_655 S
C142   C492    1.374   1_545 S
C143   C292    1.374   .     S
C144   H154    1.080   .     S
C144   C316    1.374   .     S
H145   C24     1.086   1_655 S
H150   C1179   1.083   1_554 S
H151   C1180   1.082   1_554 S
H159   C649    1.082   .     S
H160   C651    1.083   .     S
N163   Zn173   2.017   .     S
N164   Zn174   2.017   .     S
O165   Zn173   2.008   .     S
O166   Zn174   2.008   .     S
O167   Zn174   1.997   .     S
O168   Zn173   1.997   .     S
O169   Zn173   1.973   .     S
O170   Zn174   1.973   .     S
O171   Zn174   1.975   .     S
O172   Zn173   1.975   .     S
C175   C178    1.426   .     S
C175   O225    1.283   .     A
C175   O223    1.291   .     A
C176   C178    1.395   .     A
C176   H213    1.080   .     S
C177   C201    1.411   .     A
C177   C202    1.395   .     A
C177   C186    1.426   .     S
C178   C200    1.411   .     A
C179   N222    1.382   .     A
C179   I219    2.112   .     S
C179   C1225   1.413   1_554 S
C180   N221    1.382   .     A
C180   I220    2.112   .     S
C180   C704    1.413   .     S
C181   H214    1.082   .     S
C181   N221    1.356   .     A
C181   C701    1.413   .     S
C182   N222    1.356   .     A
C182   H215    1.082   .     S
C182   C1224   1.413   1_554 S
C183   C184    1.406   .     A
C183   C189    1.405   .     A
C183   C200    1.485   .     S
C184   H216    1.083   .     S
C184   C185    1.399   .     A
C185   C187    1.397   .     A
C185   H1261   1.082   1_554 S
C186   O226    1.283   .     A
C186   O224    1.291   .     A
C187   C188    1.398   .     A
C187   H1262   1.083   1_554 S
C188   H204    1.082   .     S
C188   C189    1.399   .     A
C189   H205    1.083   .     S
C190   C195    1.405   .     A
C190   C201    1.485   .     S
C190   C191    1.405   .     A
C191   C192    1.399   .     A
C191   H206    1.083   .     S
C192   H207    1.082   .     S
C192   C193    1.398   .     A
C193   C194    1.397   .     A
C193   H730    1.083   .     S
C194   C195    1.399   .     A
C194   H731    1.082   .     S
C195   H210    1.083   .     S
C196   O229    1.279   .     A
C196   O227    1.282   .     A
C196   C198    1.398   .     S
C197   O230    1.279   .     A
C197   C199    1.398   .     S
C197   O228    1.282   .     A
C198   C315    1.324   1_455 S
C198   H319    1.086   1_455 S
C199   C256    1.324   .     S
C199   H269    1.086   .     S
C201   C350    1.374   .     S
C202   H212    1.080   .     S
C202   C374    1.374   .     S
H203   C256    1.086   .     S
H208   C1237   1.083   1_554 S
H209   C1238   1.082   1_554 S
H211   C315    1.086   1_455 S
H217   C707    1.082   .     S
H218   C709    1.083   .     S
N221   Zn231   2.017   .     S
N222   Zn232   2.017   .     S
O223   Zn231   2.008   .     S
O224   Zn232   2.008   .     S
O225   Zn232   1.997   .     S
O226   Zn231   1.997   .     S
O227   Zn231   1.973   .     S
O228   Zn232   1.973   .     S
O229   Zn232   1.975   .     S
O230   Zn231   1.975   .     S
C233   C236    1.426   .     S
C233   O283    1.283   .     A
C233   O281    1.291   .     A
C234   C236    1.395   .     A
C234   H271    1.080   .     S
C235   C259    1.411   .     A
C235   C260    1.395   .     A
C235   C244    1.426   .     S
C236   C258    1.411   .     A
C237   N280    1.382   .     A
C237   I277    2.112   .     S
C237   C1283   1.413   1_554 S
C238   N279    1.382   .     A
C238   I278    2.112   .     S
C238   C762    1.413   .     S
C239   H272    1.082   .     S
C239   N279    1.356   .     A
C239   C759    1.413   .     S
C240   N280    1.356   .     A
C240   H273    1.082   .     S
C240   C1282   1.413   1_554 S
C241   C242    1.406   .     A
C241   C247    1.405   .     A
C241   C258    1.485   .     S
C242   H274    1.083   .     S
C242   C243    1.399   .     A
C243   C245    1.397   .     A
C243   H1319   1.082   1_554 S
C244   O284    1.283   .     A
C244   O282    1.291   .     A
C245   C246    1.398   .     A
C245   H1320   1.083   1_554 S
C246   H262    1.082   .     S
C246   C247    1.399   .     A
C247   H263    1.083   .     S
C248   C253    1.405   .     A
C248   C259    1.485   .     S
C248   C249    1.405   .     A
C249   C250    1.399   .     A
C249   H264    1.083   .     S
C250   H265    1.082   .     S
C250   C251    1.398   .     A
C251   C252    1.397   .     A
C251   H788    1.083   .     S
C252   C253    1.399   .     A
C252   H789    1.082   .     S
C253   H268    1.083   .     S
C254   O287    1.279   .     A
C254   O285    1.282   .     A
C254   C256    1.398   .     S
C255   O288    1.279   .     A
C255   C257    1.398   .     S
C255   O286    1.282   .     A
C257   C314    1.324   .     S
C257   H327    1.086   .     S
C259   C408    1.374   .     S
C260   H270    1.080   .     S
C260   C432    1.374   .     S
H261   C314    1.086   .     S
H266   C1295   1.083   1_554 S
H267   C1296   1.082   1_554 S
H275   C765    1.082   .     S
H276   C767    1.083   .     S
N279   Zn289   2.017   .     S
N280   Zn290   2.017   .     S
O281   Zn289   2.008   .     S
O282   Zn290   2.008   .     S
O283   Zn290   1.997   .     S
O284   Zn289   1.997   .     S
O285   Zn289   1.973   .     S
O286   Zn290   1.973   .     S
O287   Zn290   1.975   .     S
O288   Zn289   1.975   .     S
C291   C294    1.426   .     S
C291   O341    1.283   .     A
C291   O339    1.291   .     A
C292   C294    1.395   .     A
C292   H329    1.080   .     S
C293   C317    1.411   .     A
C293   C318    1.395   .     A
C293   C302    1.426   .     S
C294   C316    1.411   .     A
C295   N338    1.382   .     A
C295   I335    2.112   .     S
C295   C1341   1.413   1_554 S
C296   N337    1.382   .     A
C296   I336    2.112   .     S
C296   C820    1.413   .     S
C297   H330    1.082   .     S
C297   N337    1.356   .     A
C297   C817    1.413   .     S
C298   N338    1.356   .     A
C298   H331    1.082   .     S
C298   C1340   1.413   1_554 S
C299   C300    1.406   .     A
C299   C305    1.405   .     A
C299   C316    1.485   .     S
C300   H332    1.083   .     S
C300   C301    1.399   .     A
C301   C303    1.397   .     A
C301   H1377   1.082   1_554 S
C302   O342    1.283   .     A
C302   O340    1.291   .     A
C303   C304    1.398   .     A
C303   H1378   1.083   1_554 S
C304   H320    1.082   .     S
C304   C305    1.399   .     A
C305   H321    1.083   .     S
C306   C311    1.405   .     A
C306   C317    1.485   .     S
C306   C307    1.405   .     A
C307   C308    1.399   .     A
C307   H322    1.083   .     S
C308   H323    1.082   .     S
C308   C309    1.398   .     A
C309   C310    1.397   .     A
C309   H846    1.083   .     S
C310   C311    1.399   .     A
C310   H847    1.082   .     S
C311   H326    1.083   .     S
C312   O345    1.279   .     A
C312   O343    1.282   .     A
C312   C314    1.398   .     S
C313   O346    1.279   .     A
C313   C315    1.398   .     S
C313   O344    1.282   .     A
C315   C198    1.324   1_655 S
C315   H211    1.086   1_655 S
C317   C466    1.374   .     S
C318   H328    1.080   .     S
C318   C490    1.374   .     S
H319   C198    1.086   1_655 S
H324   C1353   1.083   1_554 S
H325   C1354   1.082   1_554 S
H333   C823    1.082   .     S
H334   C825    1.083   .     S
N337   Zn347   2.017   .     S
N338   Zn348   2.017   .     S
O339   Zn347   2.008   .     S
O340   Zn348   2.008   .     S
O341   Zn348   1.997   .     S
O342   Zn347   1.997   .     S
O343   Zn347   1.973   .     S
O344   Zn348   1.973   .     S
O345   Zn348   1.975   .     S
O346   Zn347   1.975   .     S
C349   C352    1.426   .     S
C349   O399    1.283   .     A
C349   O397    1.291   .     A
C350   C352    1.395   .     A
C350   H387    1.080   .     S
C351   C375    1.411   .     A
C351   C376    1.395   .     A
C351   C360    1.426   .     S
C352   C374    1.411   .     A
C353   N396    1.382   .     A
C353   I393    2.112   .     S
C353   C1399   1.413   1_554 S
C354   N395    1.382   .     A
C354   I394    2.112   .     S
C354   C878    1.413   .     S
C355   H388    1.082   .     S
C355   N395    1.356   .     A
C355   C875    1.413   .     S
C356   N396    1.356   .     A
C356   H389    1.082   .     S
C356   C1398   1.413   1_554 S
C357   C358    1.406   .     A
C357   C363    1.405   .     A
C357   C374    1.485   .     S
C358   H390    1.083   .     S
C358   C359    1.399   .     A
C359   C361    1.397   .     A
C359   H1435   1.082   1_554 S
C360   O400    1.283   .     A
C360   O398    1.291   .     A
C361   C362    1.398   .     A
C361   H1436   1.083   1_554 S
C362   H378    1.082   .     S
C362   C363    1.399   .     A
C363   H379    1.083   .     S
C364   C369    1.405   .     A
C364   C375    1.485   .     S
C364   C365    1.405   .     A
C365   C366    1.399   .     A
C365   H380    1.083   .     S
C366   H381    1.082   .     S
C366   C367    1.398   .     A
C367   C368    1.397   .     A
C367   H904    1.083   .     S
C368   C369    1.399   .     A
C368   H905    1.082   .     S
C369   H384    1.083   .     S
C370   O403    1.279   .     A
C370   O401    1.282   .     A
C370   C372    1.398   .     S
C371   O404    1.279   .     A
C371   C373    1.398   .     S
C371   O402    1.282   .     A
C372   C489    1.324   1_455 S
C372   H493    1.086   1_455 S
C373   C430    1.324   .     S
C373   H443    1.086   .     S
C375   C2      1.374   1_565 S
C376   H386    1.080   .     S
C376   C26     1.374   1_565 S
H377   C430    1.086   .     S
H382   C1411   1.083   1_554 S
H383   C1412   1.082   1_554 S
H385   C489    1.086   1_455 S
H391   C881    1.082   .     S
H392   C883    1.083   .     S
N395   Zn405   2.017   .     S
N396   Zn406   2.017   .     S
O397   Zn405   2.008   .     S
O398   Zn406   2.008   .     S
O399   Zn406   1.997   .     S
O400   Zn405   1.997   .     S
O401   Zn405   1.973   .     S
O402   Zn406   1.973   .     S
O403   Zn406   1.975   .     S
O404   Zn405   1.975   .     S
C407   C410    1.426   .     S
C407   O457    1.283   .     A
C407   O455    1.291   .     A
C408   C410    1.395   .     A
C408   H445    1.080   .     S
C409   C433    1.411   .     A
C409   C434    1.395   .     A
C409   C418    1.426   .     S
C410   C432    1.411   .     A
C411   N454    1.382   .     A
C411   I451    2.112   .     S
C411   C1457   1.413   1_554 S
C412   N453    1.382   .     A
C412   I452    2.112   .     S
C412   C936    1.413   .     S
C413   H446    1.082   .     S
C413   N453    1.356   .     A
C413   C933    1.413   .     S
C414   N454    1.356   .     A
C414   H447    1.082   .     S
C414   C1456   1.413   1_554 S
C415   C416    1.406   .     A
C415   C421    1.405   .     A
C415   C432    1.485   .     S
C416   H448    1.083   .     S
C416   C417    1.399   .     A
C417   C419    1.397   .     A
C417   H1493   1.082   1_554 S
C418   O458    1.283   .     A
C418   O456    1.291   .     A
C419   C420    1.398   .     A
C419   H1494   1.083   1_554 S
C420   H436    1.082   .     S
C420   C421    1.399   .     A
C421   H437    1.083   .     S
C422   C427    1.405   .     A
C422   C433    1.485   .     S
C422   C423    1.405   .     A
C423   C424    1.399   .     A
C423   H438    1.083   .     S
C424   H439    1.082   .     S
C424   C425    1.398   .     A
C425   C426    1.397   .     A
C425   H962    1.083   .     S
C426   C427    1.399   .     A
C426   H963    1.082   .     S
C427   H442    1.083   .     S
C428   O461    1.279   .     A
C428   O459    1.282   .     A
C428   C430    1.398   .     S
C429   O462    1.279   .     A
C429   C431    1.398   .     S
C429   O460    1.282   .     A
C431   C488    1.324   .     S
C431   H501    1.086   .     S
C433   C60     1.374   1_565 S
C434   H444    1.080   .     S
C434   C84     1.374   1_565 S
H435   C488    1.086   .     S
H440   C1469   1.083   1_554 S
H441   C1470   1.082   1_554 S
H449   C939    1.082   .     S
H450   C941    1.083   .     S
N453   Zn463   2.017   .     S
N454   Zn464   2.017   .     S
O455   Zn463   2.008   .     S
O456   Zn464   2.008   .     S
O457   Zn464   1.997   .     S
O458   Zn463   1.997   .     S
O459   Zn463   1.973   .     S
O460   Zn464   1.973   .     S
O461   Zn464   1.975   .     S
O462   Zn463   1.975   .     S
C465   C468    1.426   .     S
C465   O515    1.283   .     A
C465   O513    1.291   .     A
C466   C468    1.395   .     A
C466   H503    1.080   .     S
C467   C491    1.411   .     A
C467   C492    1.395   .     A
C467   C476    1.426   .     S
C468   C490    1.411   .     A
C469   N512    1.382   .     A
C469   I509    2.112   .     S
C469   C1515   1.413   1_554 S
C470   N511    1.382   .     A
C470   I510    2.112   .     S
C470   C994    1.413   .     S
C471   H504    1.082   .     S
C471   N511    1.356   .     A
C471   C991    1.413   .     S
C472   N512    1.356   .     A
C472   H505    1.082   .     S
C472   C1514   1.413   1_554 S
C473   C474    1.406   .     A
C473   C479    1.405   .     A
C473   C490    1.485   .     S
C474   H506    1.083   .     S
C474   C475    1.399   .     A
C475   C477    1.397   .     A
C475   H1551   1.082   1_554 S
C476   O516    1.283   .     A
C476   O514    1.291   .     A
C477   C478    1.398   .     A
C477   H1552   1.083   1_554 S
C478   H494    1.082   .     S
C478   C479    1.399   .     A
C479   H495    1.083   .     S
C480   C485    1.405   .     A
C480   C491    1.485   .     S
C480   C481    1.405   .     A
C481   C482    1.399   .     A
C481   H496    1.083   .     S
C482   H497    1.082   .     S
C482   C483    1.398   .     A
C483   C484    1.397   .     A
C483   H1020   1.083   .     S
C484   C485    1.399   .     A
C484   H1021   1.082   .     S
C485   H500    1.083   .     S
C486   O519    1.279   .     A
C486   O517    1.282   .     A
C486   C488    1.398   .     S
C487   O520    1.279   .     A
C487   C489    1.398   .     S
C487   O518    1.282   .     A
C489   C372    1.324   1_655 S
C489   H385    1.086   1_655 S
C491   C118    1.374   1_565 S
C492   H502    1.080   .     S
C492   C142    1.374   1_565 S
H493   C372    1.086   1_655 S
H498   C1527   1.083   1_554 S
H499   C1528   1.082   1_554 S
H507   C997    1.082   .     S
H508   C999    1.083   .     S
N511   Zn521   2.017   .     S
N512   Zn522   2.017   .     S
O513   Zn521   2.008   .     S
O514   Zn522   2.008   .     S
O515   Zn522   1.997   .     S
O516   Zn521   1.997   .     S
O517   Zn521   1.973   .     S
O518   Zn522   1.973   .     S
O519   Zn522   1.975   .     S
O520   Zn521   1.975   .     S
C523   C526    1.426   .     S
C523   O573    1.283   .     A
C523   O571    1.291   .     A
C524   C526    1.395   .     A
C524   H561    1.080   .     S
C524   C897    1.374   1_545 S
C525   C549    1.411   .     A
C525   C550    1.395   .     A
C525   C534    1.426   .     S
C526   C548    1.411   .     A
C527   N570    1.382   .     A
C527   I567    2.112   .     S
C528   N569    1.382   .     A
C528   I568    2.112   .     S
C528   C1052   1.413   .     S
C529   H562    1.082   .     S
C529   N569    1.356   .     A
C529   C1049   1.413   .     S
C530   N570    1.356   .     A
C530   H563    1.082   .     S
C531   C532    1.406   .     A
C531   C537    1.405   .     A
C531   C548    1.485   .     S
C532   H564    1.083   .     S
C532   C533    1.399   .     A
C533   C535    1.397   .     A
C534   O574    1.283   .     A
C534   O572    1.291   .     A
C535   C536    1.398   .     A
C536   H552    1.082   .     S
C536   C537    1.399   .     A
C537   H553    1.083   .     S
C538   C543    1.405   .     A
C538   C549    1.485   .     S
C538   C539    1.405   .     A
C539   C540    1.399   .     A
C539   H554    1.083   .     S
C540   H555    1.082   .     S
C540   C541    1.398   .     A
C541   C542    1.397   .     A
C541   H1078   1.083   .     S
C542   C543    1.399   .     A
C542   H1079   1.082   .     S
C543   H558    1.083   .     S
C544   O577    1.279   .     A
C544   O575    1.282   .     A
C544   C546    1.398   .     S
C545   O578    1.279   .     A
C545   C547    1.398   .     S
C545   O576    1.282   .     A
C546   C663    1.324   1_455 S
C546   H667    1.086   1_455 S
C547   C604    1.324   .     S
C547   H617    1.086   .     S
C548   C898    1.374   1_545 S
C549   C698    1.374   .     S
C550   H560    1.080   .     S
C550   C722    1.374   .     S
H551   C604    1.086   .     S
H559   C663    1.086   1_455 S
H565   C1055   1.082   .     S
H566   C1057   1.083   .     S
N569   Zn579   2.017   .     S
N570   Zn580   2.017   .     S
O571   Zn579   2.008   .     S
O572   Zn580   2.008   .     S
O573   Zn580   1.997   .     S
O574   Zn579   1.997   .     S
O575   Zn579   1.973   .     S
O576   Zn580   1.973   .     S
O577   Zn580   1.975   .     S
O578   Zn579   1.975   .     S
C581   C584    1.426   .     S
C581   O631    1.283   .     A
C581   O629    1.291   .     A
C582   C584    1.395   .     A
C582   H619    1.080   .     S
C582   C955    1.374   1_545 S
C583   C607    1.411   .     A
C583   C608    1.395   .     A
C583   C592    1.426   .     S
C584   C606    1.411   .     A
C585   N628    1.382   .     A
C585   I625    2.112   .     S
C586   N627    1.382   .     A
C586   I626    2.112   .     S
C586   C1110   1.413   .     S
C587   H620    1.082   .     S
C587   N627    1.356   .     A
C587   C1107   1.413   .     S
C588   N628    1.356   .     A
C588   H621    1.082   .     S
C589   C590    1.406   .     A
C589   C595    1.405   .     A
C589   C606    1.485   .     S
C590   H622    1.083   .     S
C590   C591    1.399   .     A
C591   C593    1.397   .     A
C592   O632    1.283   .     A
C592   O630    1.291   .     A
C593   C594    1.398   .     A
C594   H610    1.082   .     S
C594   C595    1.399   .     A
C595   H611    1.083   .     S
C596   C601    1.405   .     A
C596   C607    1.485   .     S
C596   C597    1.405   .     A
C597   C598    1.399   .     A
C597   H612    1.083   .     S
C598   H613    1.082   .     S
C598   C599    1.398   .     A
C599   C600    1.397   .     A
C599   H1136   1.083   .     S
C600   C601    1.399   .     A
C600   H1137   1.082   .     S
C601   H616    1.083   .     S
C602   O635    1.279   .     A
C602   O633    1.282   .     A
C602   C604    1.398   .     S
C603   O636    1.279   .     A
C603   C605    1.398   .     S
C603   O634    1.282   .     A
C605   C662    1.324   .     S
C605   H675    1.086   .     S
C606   C956    1.374   1_545 S
C607   C756    1.374   .     S
C608   H618    1.080   .     S
C608   C780    1.374   .     S
H609   C662    1.086   .     S
H623   C1113   1.082   .     S
H624   C1115   1.083   .     S
N627   Zn637   2.017   .     S
N628   Zn638   2.017   .     S
O629   Zn637   2.008   .     S
O630   Zn638   2.008   .     S
O631   Zn638   1.997   .     S
O632   Zn637   1.997   .     S
O633   Zn637   1.973   .     S
O634   Zn638   1.973   .     S
O635   Zn638   1.975   .     S
O636   Zn637   1.975   .     S
C639   C642    1.426   .     S
C639   O689    1.283   .     A
C639   O687    1.291   .     A
C640   C642    1.395   .     A
C640   H677    1.080   .     S
C640   C1013   1.374   1_545 S
C641   C665    1.411   .     A
C641   C666    1.395   .     A
C641   C650    1.426   .     S
C642   C664    1.411   .     A
C643   N686    1.382   .     A
C643   I683    2.112   .     S
C644   N685    1.382   .     A
C644   I684    2.112   .     S
C644   C1168   1.413   .     S
C645   H678    1.082   .     S
C645   N685    1.356   .     A
C645   C1165   1.413   .     S
C646   N686    1.356   .     A
C646   H679    1.082   .     S
C647   C648    1.406   .     A
C647   C653    1.405   .     A
C647   C664    1.485   .     S
C648   H680    1.083   .     S
C648   C649    1.399   .     A
C649   C651    1.397   .     A
C650   O690    1.283   .     A
C650   O688    1.291   .     A
C651   C652    1.398   .     A
C652   H668    1.082   .     S
C652   C653    1.399   .     A
C653   H669    1.083   .     S
C654   C659    1.405   .     A
C654   C665    1.485   .     S
C654   C655    1.405   .     A
C655   C656    1.399   .     A
C655   H670    1.083   .     S
C656   H671    1.082   .     S
C656   C657    1.398   .     A
C657   C658    1.397   .     A
C657   H1194   1.083   .     S
C658   C659    1.399   .     A
C658   H1195   1.082   .     S
C659   H674    1.083   .     S
C660   O693    1.279   .     A
C660   O691    1.282   .     A
C660   C662    1.398   .     S
C661   O694    1.279   .     A
C661   C663    1.398   .     S
C661   O692    1.282   .     A
C663   C546    1.324   1_655 S
C663   H559    1.086   1_655 S
C664   C1014   1.374   1_545 S
C665   C814    1.374   .     S
C666   H676    1.080   .     S
C666   C838    1.374   .     S
H667   C546    1.086   1_655 S
H681   C1171   1.082   .     S
H682   C1173   1.083   .     S
N685   Zn695   2.017   .     S
N686   Zn696   2.017   .     S
O687   Zn695   2.008   .     S
O688   Zn696   2.008   .     S
O689   Zn696   1.997   .     S
O690   Zn695   1.997   .     S
O691   Zn695   1.973   .     S
O692   Zn696   1.973   .     S
O693   Zn696   1.975   .     S
O694   Zn695   1.975   .     S
C697   C700    1.426   .     S
C697   O747    1.283   .     A
C697   O745    1.291   .     A
C698   C700    1.395   .     A
C698   H735    1.080   .     S
C699   C723    1.411   .     A
C699   C724    1.395   .     A
C699   C708    1.426   .     S
C700   C722    1.411   .     A
C701   N744    1.382   .     A
C701   I741    2.112   .     S
C702   N743    1.382   .     A
C702   I742    2.112   .     S
C702   C1226   1.413   .     S
C703   H736    1.082   .     S
C703   N743    1.356   .     A
C703   C1223   1.413   .     S
C704   N744    1.356   .     A
C704   H737    1.082   .     S
C705   C706    1.406   .     A
C705   C711    1.405   .     A
C705   C722    1.485   .     S
C706   H738    1.083   .     S
C706   C707    1.399   .     A
C707   C709    1.397   .     A
C708   O748    1.283   .     A
C708   O746    1.291   .     A
C709   C710    1.398   .     A
C710   H726    1.082   .     S
C710   C711    1.399   .     A
C711   H727    1.083   .     S
C712   C717    1.405   .     A
C712   C723    1.485   .     S
C712   C713    1.405   .     A
C713   C714    1.399   .     A
C713   H728    1.083   .     S
C714   H729    1.082   .     S
C714   C715    1.398   .     A
C715   C716    1.397   .     A
C715   H1252   1.083   .     S
C716   C717    1.399   .     A
C716   H1253   1.082   .     S
C717   H732    1.083   .     S
C718   O751    1.279   .     A
C718   O749    1.282   .     A
C718   C720    1.398   .     S
C719   O752    1.279   .     A
C719   C721    1.398   .     S
C719   O750    1.282   .     A
C720   C837    1.324   1_455 S
C720   H841    1.086   1_455 S
C721   C778    1.324   .     S
C721   H791    1.086   .     S
C723   C872    1.374   .     S
C724   H734    1.080   .     S
C724   C896    1.374   .     S
H725   C778    1.086   .     S
H733   C837    1.086   1_455 S
H739   C1229   1.082   .     S
H740   C1231   1.083   .     S
N743   Zn753   2.017   .     S
N744   Zn754   2.017   .     S
O745   Zn753   2.008   .     S
O746   Zn754   2.008   .     S
O747   Zn754   1.997   .     S
O748   Zn753   1.997   .     S
O749   Zn753   1.973   .     S
O750   Zn754   1.973   .     S
O751   Zn754   1.975   .     S
O752   Zn753   1.975   .     S
C755   C758    1.426   .     S
C755   O805    1.283   .     A
C755   O803    1.291   .     A
C756   C758    1.395   .     A
C756   H793    1.080   .     S
C757   C781    1.411   .     A
C757   C782    1.395   .     A
C757   C766    1.426   .     S
C758   C780    1.411   .     A
C759   N802    1.382   .     A
C759   I799    2.112   .     S
C760   N801    1.382   .     A
C760   I800    2.112   .     S
C760   C1284   1.413   .     S
C761   H794    1.082   .     S
C761   N801    1.356   .     A
C761   C1281   1.413   .     S
C762   N802    1.356   .     A
C762   H795    1.082   .     S
C763   C764    1.406   .     A
C763   C769    1.405   .     A
C763   C780    1.485   .     S
C764   H796    1.083   .     S
C764   C765    1.399   .     A
C765   C767    1.397   .     A
C766   O806    1.283   .     A
C766   O804    1.291   .     A
C767   C768    1.398   .     A
C768   H784    1.082   .     S
C768   C769    1.399   .     A
C769   H785    1.083   .     S
C770   C775    1.405   .     A
C770   C781    1.485   .     S
C770   C771    1.405   .     A
C771   C772    1.399   .     A
C771   H786    1.083   .     S
C772   H787    1.082   .     S
C772   C773    1.398   .     A
C773   C774    1.397   .     A
C773   H1310   1.083   .     S
C774   C775    1.399   .     A
C774   H1311   1.082   .     S
C775   H790    1.083   .     S
C776   O809    1.279   .     A
C776   O807    1.282   .     A
C776   C778    1.398   .     S
C777   O810    1.279   .     A
C777   C779    1.398   .     S
C777   O808    1.282   .     A
C779   C836    1.324   .     S
C779   H849    1.086   .     S
C781   C930    1.374   .     S
C782   H792    1.080   .     S
C782   C954    1.374   .     S
H783   C836    1.086   .     S
H797   C1287   1.082   .     S
H798   C1289   1.083   .     S
N801   Zn811   2.017   .     S
N802   Zn812   2.017   .     S
O803   Zn811   2.008   .     S
O804   Zn812   2.008   .     S
O805   Zn812   1.997   .     S
O806   Zn811   1.997   .     S
O807   Zn811   1.973   .     S
O808   Zn812   1.973   .     S
O809   Zn812   1.975   .     S
O810   Zn811   1.975   .     S
C813   C816    1.426   .     S
C813   O863    1.283   .     A
C813   O861    1.291   .     A
C814   C816    1.395   .     A
C814   H851    1.080   .     S
C815   C839    1.411   .     A
C815   C840    1.395   .     A
C815   C824    1.426   .     S
C816   C838    1.411   .     A
C817   N860    1.382   .     A
C817   I857    2.112   .     S
C818   N859    1.382   .     A
C818   I858    2.112   .     S
C818   C1342   1.413   .     S
C819   H852    1.082   .     S
C819   N859    1.356   .     A
C819   C1339   1.413   .     S
C820   N860    1.356   .     A
C820   H853    1.082   .     S
C821   C822    1.406   .     A
C821   C827    1.405   .     A
C821   C838    1.485   .     S
C822   H854    1.083   .     S
C822   C823    1.399   .     A
C823   C825    1.397   .     A
C824   O864    1.283   .     A
C824   O862    1.291   .     A
C825   C826    1.398   .     A
C826   H842    1.082   .     S
C826   C827    1.399   .     A
C827   H843    1.083   .     S
C828   C833    1.405   .     A
C828   C839    1.485   .     S
C828   C829    1.405   .     A
C829   C830    1.399   .     A
C829   H844    1.083   .     S
C830   H845    1.082   .     S
C830   C831    1.398   .     A
C831   C832    1.397   .     A
C831   H1368   1.083   .     S
C832   C833    1.399   .     A
C832   H1369   1.082   .     S
C833   H848    1.083   .     S
C834   O867    1.279   .     A
C834   O865    1.282   .     A
C834   C836    1.398   .     S
C835   O868    1.279   .     A
C835   C837    1.398   .     S
C835   O866    1.282   .     A
C837   C720    1.324   1_655 S
C837   H733    1.086   1_655 S
C839   C988    1.374   .     S
C840   H850    1.080   .     S
C840   C1012   1.374   .     S
H841   C720    1.086   1_655 S
H855   C1345   1.082   .     S
H856   C1347   1.083   .     S
N859   Zn869   2.017   .     S
N860   Zn870   2.017   .     S
O861   Zn869   2.008   .     S
O862   Zn870   2.008   .     S
O863   Zn870   1.997   .     S
O864   Zn869   1.997   .     S
O865   Zn869   1.973   .     S
O866   Zn870   1.973   .     S
O867   Zn870   1.975   .     S
O868   Zn869   1.975   .     S
C871   C874    1.426   .     S
C871   O921    1.283   .     A
C871   O919    1.291   .     A
C872   C874    1.395   .     A
C872   H909    1.080   .     S
C873   C897    1.411   .     A
C873   C898    1.395   .     A
C873   C882    1.426   .     S
C874   C896    1.411   .     A
C875   N918    1.382   .     A
C875   I915    2.112   .     S
C876   N917    1.382   .     A
C876   I916    2.112   .     S
C876   C1400   1.413   .     S
C877   H910    1.082   .     S
C877   N917    1.356   .     A
C877   C1397   1.413   .     S
C878   N918    1.356   .     A
C878   H911    1.082   .     S
C879   C880    1.406   .     A
C879   C885    1.405   .     A
C879   C896    1.485   .     S
C880   H912    1.083   .     S
C880   C881    1.399   .     A
C881   C883    1.397   .     A
C882   O922    1.283   .     A
C882   O920    1.291   .     A
C883   C884    1.398   .     A
C884   H900    1.082   .     S
C884   C885    1.399   .     A
C885   H901    1.083   .     S
C886   C891    1.405   .     A
C886   C897    1.485   .     S
C886   C887    1.405   .     A
C887   C888    1.399   .     A
C887   H902    1.083   .     S
C888   H903    1.082   .     S
C888   C889    1.398   .     A
C889   C890    1.397   .     A
C889   H1426   1.083   .     S
C890   C891    1.399   .     A
C890   H1427   1.082   .     S
C891   H906    1.083   .     S
C892   O925    1.279   .     A
C892   O923    1.282   .     A
C892   C894    1.398   .     S
C893   O926    1.279   .     A
C893   C895    1.398   .     S
C893   O924    1.282   .     A
C894   C1011   1.324   1_455 S
C894   H1015   1.086   1_455 S
C895   C952    1.324   .     S
C895   H965    1.086   .     S
C897   C524    1.374   1_565 S
C898   H908    1.080   .     S
C898   C548    1.374   1_565 S
H899   C952    1.086   .     S
H907   C1011   1.086   1_455 S
H913   C1403   1.082   .     S
H914   C1405   1.083   .     S
N917   Zn927   2.017   .     S
N918   Zn928   2.017   .     S
O919   Zn927   2.008   .     S
O920   Zn928   2.008   .     S
O921   Zn928   1.997   .     S
O922   Zn927   1.997   .     S
O923   Zn927   1.973   .     S
O924   Zn928   1.973   .     S
O925   Zn928   1.975   .     S
O926   Zn927   1.975   .     S
C929   C932    1.426   .     S
C929   O979    1.283   .     A
C929   O977    1.291   .     A
C930   C932    1.395   .     A
C930   H967    1.080   .     S
C931   C955    1.411   .     A
C931   C956    1.395   .     A
C931   C940    1.426   .     S
C932   C954    1.411   .     A
C933   N976    1.382   .     A
C933   I973    2.112   .     S
C934   N975    1.382   .     A
C934   I974    2.112   .     S
C934   C1458   1.413   .     S
C935   H968    1.082   .     S
C935   N975    1.356   .     A
C935   C1455   1.413   .     S
C936   N976    1.356   .     A
C936   H969    1.082   .     S
C937   C938    1.406   .     A
C937   C943    1.405   .     A
C937   C954    1.485   .     S
C938   H970    1.083   .     S
C938   C939    1.399   .     A
C939   C941    1.397   .     A
C940   O980    1.283   .     A
C940   O978    1.291   .     A
C941   C942    1.398   .     A
C942   H958    1.082   .     S
C942   C943    1.399   .     A
C943   H959    1.083   .     S
C944   C949    1.405   .     A
C944   C955    1.485   .     S
C944   C945    1.405   .     A
C945   C946    1.399   .     A
C945   H960    1.083   .     S
C946   H961    1.082   .     S
C946   C947    1.398   .     A
C947   C948    1.397   .     A
C947   H1484   1.083   .     S
C948   C949    1.399   .     A
C948   H1485   1.082   .     S
C949   H964    1.083   .     S
C950   O983    1.279   .     A
C950   O981    1.282   .     A
C950   C952    1.398   .     S
C951   O984    1.279   .     A
C951   C953    1.398   .     S
C951   O982    1.282   .     A
C953   C1010   1.324   .     S
C953   H1023   1.086   .     S
C955   C582    1.374   1_565 S
C956   H966    1.080   .     S
C956   C606    1.374   1_565 S
H957   C1010   1.086   .     S
H971   C1461   1.082   .     S
H972   C1463   1.083   .     S
N975   Zn985   2.017   .     S
N976   Zn986   2.017   .     S
O977   Zn985   2.008   .     S
O978   Zn986   2.008   .     S
O979   Zn986   1.997   .     S
O980   Zn985   1.997   .     S
O981   Zn985   1.973   .     S
O982   Zn986   1.973   .     S
O983   Zn986   1.975   .     S
O984   Zn985   1.975   .     S
C987   C990    1.426   .     S
C987   O1037   1.283   .     A
C987   O1035   1.291   .     A
C988   C990    1.395   .     A
C988   H1025   1.080   .     S
C989   C1013   1.411   .     A
C989   C1014   1.395   .     A
C989   C998    1.426   .     S
C990   C1012   1.411   .     A
C991   N1034   1.382   .     A
C991   I1031   2.112   .     S
C992   N1033   1.382   .     A
C992   I1032   2.112   .     S
C992   C1516   1.413   .     S
C993   H1026   1.082   .     S
C993   N1033   1.356   .     A
C993   C1513   1.413   .     S
C994   N1034   1.356   .     A
C994   H1027   1.082   .     S
C995   C996    1.406   .     A
C995   C1001   1.405   .     A
C995   C1012   1.485   .     S
C996   H1028   1.083   .     S
C996   C997    1.399   .     A
C997   C999    1.397   .     A
C998   O1038   1.283   .     A
C998   O1036   1.291   .     A
C999   C1000   1.398   .     A
C1000  H1016   1.082   .     S
C1000  C1001   1.399   .     A
C1001  H1017   1.083   .     S
C1002  C1007   1.405   .     A
C1002  C1013   1.485   .     S
C1002  C1003   1.405   .     A
C1003  C1004   1.399   .     A
C1003  H1018   1.083   .     S
C1004  H1019   1.082   .     S
C1004  C1005   1.398   .     A
C1005  C1006   1.397   .     A
C1005  H1542   1.083   .     S
C1006  C1007   1.399   .     A
C1006  H1543   1.082   .     S
C1007  H1022   1.083   .     S
C1008  O1041   1.279   .     A
C1008  O1039   1.282   .     A
C1008  C1010   1.398   .     S
C1009  O1042   1.279   .     A
C1009  C1011   1.398   .     S
C1009  O1040   1.282   .     A
C1011  C894    1.324   1_655 S
C1011  H907    1.086   1_655 S
C1013  C640    1.374   1_565 S
C1014  H1024   1.080   .     S
C1014  C664    1.374   1_565 S
H1015  C894    1.086   1_655 S
H1029  C1519   1.082   .     S
H1030  C1521   1.083   .     S
N1033  Zn1043  2.017   .     S
N1034  Zn1044  2.017   .     S
O1035  Zn1043  2.008   .     S
O1036  Zn1044  2.008   .     S
O1037  Zn1044  1.997   .     S
O1038  Zn1043  1.997   .     S
O1039  Zn1043  1.973   .     S
O1040  Zn1044  1.973   .     S
O1041  Zn1044  1.975   .     S
O1042  Zn1043  1.975   .     S
C1045  C1048   1.426   .     S
C1045  O1095   1.283   .     A
C1045  O1093   1.291   .     A
C1046  C1048   1.395   .     A
C1046  H1083   1.080   .     S
C1046  C1419   1.374   1_545 S
C1047  C1071   1.411   .     A
C1047  C1072   1.395   .     A
C1047  C1056   1.426   .     S
C1048  C1070   1.411   .     A
C1049  N1092   1.382   .     A
C1049  I1089   2.112   .     S
C1050  N1091   1.382   .     A
C1050  I1090   2.112   .     S
C1050  C8      1.413   1_556 S
C1051  H1084   1.082   .     S
C1051  N1091   1.356   .     A
C1051  C5      1.413   1_556 S
C1052  N1092   1.356   .     A
C1052  H1085   1.082   .     S
C1053  C1054   1.406   .     A
C1053  C1059   1.405   .     A
C1053  C1070   1.485   .     S
C1054  H1086   1.083   .     S
C1054  C1055   1.399   .     A
C1055  C1057   1.397   .     A
C1056  O1096   1.283   .     A
C1056  O1094   1.291   .     A
C1057  C1058   1.398   .     A
C1058  H1074   1.082   .     S
C1058  C1059   1.399   .     A
C1059  H1075   1.083   .     S
C1060  C1065   1.405   .     A
C1060  C1071   1.485   .     S
C1060  C1061   1.405   .     A
C1061  C1062   1.399   .     A
C1061  H1076   1.083   .     S
C1062  H1077   1.082   .     S
C1062  C1063   1.398   .     A
C1063  C1064   1.397   .     A
C1063  H34     1.083   1_556 S
C1064  C1065   1.399   .     A
C1064  H35     1.082   1_556 S
C1065  H1080   1.083   .     S
C1066  O1099   1.279   .     A
C1066  O1097   1.282   .     A
C1066  C1068   1.398   .     S
C1067  O1100   1.279   .     A
C1067  C1069   1.398   .     S
C1067  O1098   1.282   .     A
C1068  C1185   1.324   1_455 S
C1068  H1189   1.086   1_455 S
C1069  C1126   1.324   .     S
C1069  H1139   1.086   .     S
C1070  C1420   1.374   1_545 S
C1071  C1220   1.374   .     S
C1072  H1082   1.080   .     S
C1072  C1244   1.374   .     S
H1073  C1126   1.086   .     S
H1081  C1185   1.086   1_455 S
H1087  C11     1.082   1_556 S
H1088  C13     1.083   1_556 S
N1091  Zn1101  2.017   .     S
N1092  Zn1102  2.017   .     S
O1093  Zn1101  2.008   .     S
O1094  Zn1102  2.008   .     S
O1095  Zn1102  1.997   .     S
O1096  Zn1101  1.997   .     S
O1097  Zn1101  1.973   .     S
O1098  Zn1102  1.973   .     S
O1099  Zn1102  1.975   .     S
O1100  Zn1101  1.975   .     S
C1103  C1106   1.426   .     S
C1103  O1153   1.283   .     A
C1103  O1151   1.291   .     A
C1104  C1106   1.395   .     A
C1104  H1141   1.080   .     S
C1104  C1477   1.374   1_545 S
C1105  C1129   1.411   .     A
C1105  C1130   1.395   .     A
C1105  C1114   1.426   .     S
C1106  C1128   1.411   .     A
C1107  N1150   1.382   .     A
C1107  I1147   2.112   .     S
C1108  N1149   1.382   .     A
C1108  I1148   2.112   .     S
C1108  C66     1.413   1_556 S
C1109  H1142   1.082   .     S
C1109  N1149   1.356   .     A
C1109  C63     1.413   1_556 S
C1110  N1150   1.356   .     A
C1110  H1143   1.082   .     S
C1111  C1112   1.406   .     A
C1111  C1117   1.405   .     A
C1111  C1128   1.485   .     S
C1112  H1144   1.083   .     S
C1112  C1113   1.399   .     A
C1113  C1115   1.397   .     A
C1114  O1154   1.283   .     A
C1114  O1152   1.291   .     A
C1115  C1116   1.398   .     A
C1116  H1132   1.082   .     S
C1116  C1117   1.399   .     A
C1117  H1133   1.083   .     S
C1118  C1123   1.405   .     A
C1118  C1129   1.485   .     S
C1118  C1119   1.405   .     A
C1119  C1120   1.399   .     A
C1119  H1134   1.083   .     S
C1120  H1135   1.082   .     S
C1120  C1121   1.398   .     A
C1121  C1122   1.397   .     A
C1121  H92     1.083   1_556 S
C1122  C1123   1.399   .     A
C1122  H93     1.082   1_556 S
C1123  H1138   1.083   .     S
C1124  O1157   1.279   .     A
C1124  O1155   1.282   .     A
C1124  C1126   1.398   .     S
C1125  O1158   1.279   .     A
C1125  C1127   1.398   .     S
C1125  O1156   1.282   .     A
C1127  C1184   1.324   .     S
C1127  H1197   1.086   .     S
C1128  C1478   1.374   1_545 S
C1129  C1278   1.374   .     S
C1130  H1140   1.080   .     S
C1130  C1302   1.374   .     S
H1131  C1184   1.086   .     S
H1145  C69     1.082   1_556 S
H1146  C71     1.083   1_556 S
N1149  Zn1159  2.017   .     S
N1150  Zn1160  2.017   .     S
O1151  Zn1159  2.008   .     S
O1152  Zn1160  2.008   .     S
O1153  Zn1160  1.997   .     S
O1154  Zn1159  1.997   .     S
O1155  Zn1159  1.973   .     S
O1156  Zn1160  1.973   .     S
O1157  Zn1160  1.975   .     S
O1158  Zn1159  1.975   .     S
C1161  C1164   1.426   .     S
C1161  O1211   1.283   .     A
C1161  O1209   1.291   .     A
C1162  C1164   1.395   .     A
C1162  H1199   1.080   .     S
C1162  C1535   1.374   1_545 S
C1163  C1187   1.411   .     A
C1163  C1188   1.395   .     A
C1163  C1172   1.426   .     S
C1164  C1186   1.411   .     A
C1165  N1208   1.382   .     A
C1165  I1205   2.112   .     S
C1166  N1207   1.382   .     A
C1166  I1206   2.112   .     S
C1166  C124    1.413   1_556 S
C1167  H1200   1.082   .     S
C1167  N1207   1.356   .     A
C1167  C121    1.413   1_556 S
C1168  N1208   1.356   .     A
C1168  H1201   1.082   .     S
C1169  C1170   1.406   .     A
C1169  C1175   1.405   .     A
C1169  C1186   1.485   .     S
C1170  H1202   1.083   .     S
C1170  C1171   1.399   .     A
C1171  C1173   1.397   .     A
C1172  O1212   1.283   .     A
C1172  O1210   1.291   .     A
C1173  C1174   1.398   .     A
C1174  H1190   1.082   .     S
C1174  C1175   1.399   .     A
C1175  H1191   1.083   .     S
C1176  C1181   1.405   .     A
C1176  C1187   1.485   .     S
C1176  C1177   1.405   .     A
C1177  C1178   1.399   .     A
C1177  H1192   1.083   .     S
C1178  H1193   1.082   .     S
C1178  C1179   1.398   .     A
C1179  C1180   1.397   .     A
C1179  H150    1.083   1_556 S
C1180  C1181   1.399   .     A
C1180  H151    1.082   1_556 S
C1181  H1196   1.083   .     S
C1182  O1215   1.279   .     A
C1182  O1213   1.282   .     A
C1182  C1184   1.398   .     S
C1183  O1216   1.279   .     A
C1183  C1185   1.398   .     S
C1183  O1214   1.282   .     A
C1185  C1068   1.324   1_655 S
C1185  H1081   1.086   1_655 S
C1186  C1536   1.374   1_545 S
C1187  C1336   1.374   .     S
C1188  H1198   1.080   .     S
C1188  C1360   1.374   .     S
H1189  C1068   1.086   1_655 S
H1203  C127    1.082   1_556 S
H1204  C129    1.083   1_556 S
N1207  Zn1217  2.017   .     S
N1208  Zn1218  2.017   .     S
O1209  Zn1217  2.008   .     S
O1210  Zn1218  2.008   .     S
O1211  Zn1218  1.997   .     S
O1212  Zn1217  1.997   .     S
O1213  Zn1217  1.973   .     S
O1214  Zn1218  1.973   .     S
O1215  Zn1218  1.975   .     S
O1216  Zn1217  1.975   .     S
C1219  C1222   1.426   .     S
C1219  O1269   1.283   .     A
C1219  O1267   1.291   .     A
C1220  C1222   1.395   .     A
C1220  H1257   1.080   .     S
C1221  C1245   1.411   .     A
C1221  C1246   1.395   .     A
C1221  C1230   1.426   .     S
C1222  C1244   1.411   .     A
C1223  N1266   1.382   .     A
C1223  I1263   2.112   .     S
C1224  N1265   1.382   .     A
C1224  I1264   2.112   .     S
C1224  C182    1.413   1_556 S
C1225  H1258   1.082   .     S
C1225  N1265   1.356   .     A
C1225  C179    1.413   1_556 S
C1226  N1266   1.356   .     A
C1226  H1259   1.082   .     S
C1227  C1228   1.406   .     A
C1227  C1233   1.405   .     A
C1227  C1244   1.485   .     S
C1228  H1260   1.083   .     S
C1228  C1229   1.399   .     A
C1229  C1231   1.397   .     A
C1230  O1270   1.283   .     A
C1230  O1268   1.291   .     A
C1231  C1232   1.398   .     A
C1232  H1248   1.082   .     S
C1232  C1233   1.399   .     A
C1233  H1249   1.083   .     S
C1234  C1239   1.405   .     A
C1234  C1245   1.485   .     S
C1234  C1235   1.405   .     A
C1235  C1236   1.399   .     A
C1235  H1250   1.083   .     S
C1236  H1251   1.082   .     S
C1236  C1237   1.398   .     A
C1237  C1238   1.397   .     A
C1237  H208    1.083   1_556 S
C1238  C1239   1.399   .     A
C1238  H209    1.082   1_556 S
C1239  H1254   1.083   .     S
C1240  O1273   1.279   .     A
C1240  O1271   1.282   .     A
C1240  C1242   1.398   .     S
C1241  O1274   1.279   .     A
C1241  C1243   1.398   .     S
C1241  O1272   1.282   .     A
C1242  C1359   1.324   1_455 S
C1242  H1363   1.086   1_455 S
C1243  C1300   1.324   .     S
C1243  H1313   1.086   .     S
C1245  C1394   1.374   .     S
C1246  H1256   1.080   .     S
C1246  C1418   1.374   .     S
H1247  C1300   1.086   .     S
H1255  C1359   1.086   1_455 S
H1261  C185    1.082   1_556 S
H1262  C187    1.083   1_556 S
N1265  Zn1275  2.017   .     S
N1266  Zn1276  2.017   .     S
O1267  Zn1275  2.008   .     S
O1268  Zn1276  2.008   .     S
O1269  Zn1276  1.997   .     S
O1270  Zn1275  1.997   .     S
O1271  Zn1275  1.973   .     S
O1272  Zn1276  1.973   .     S
O1273  Zn1276  1.975   .     S
O1274  Zn1275  1.975   .     S
C1277  C1280   1.426   .     S
C1277  O1327   1.283   .     A
C1277  O1325   1.291   .     A
C1278  C1280   1.395   .     A
C1278  H1315   1.080   .     S
C1279  C1303   1.411   .     A
C1279  C1304   1.395   .     A
C1279  C1288   1.426   .     S
C1280  C1302   1.411   .     A
C1281  N1324   1.382   .     A
C1281  I1321   2.112   .     S
C1282  N1323   1.382   .     A
C1282  I1322   2.112   .     S
C1282  C240    1.413   1_556 S
C1283  H1316   1.082   .     S
C1283  N1323   1.356   .     A
C1283  C237    1.413   1_556 S
C1284  N1324   1.356   .     A
C1284  H1317   1.082   .     S
C1285  C1286   1.406   .     A
C1285  C1291   1.405   .     A
C1285  C1302   1.485   .     S
C1286  H1318   1.083   .     S
C1286  C1287   1.399   .     A
C1287  C1289   1.397   .     A
C1288  O1328   1.283   .     A
C1288  O1326   1.291   .     A
C1289  C1290   1.398   .     A
C1290  H1306   1.082   .     S
C1290  C1291   1.399   .     A
C1291  H1307   1.083   .     S
C1292  C1297   1.405   .     A
C1292  C1303   1.485   .     S
C1292  C1293   1.405   .     A
C1293  C1294   1.399   .     A
C1293  H1308   1.083   .     S
C1294  H1309   1.082   .     S
C1294  C1295   1.398   .     A
C1295  C1296   1.397   .     A
C1295  H266    1.083   1_556 S
C1296  C1297   1.399   .     A
C1296  H267    1.082   1_556 S
C1297  H1312   1.083   .     S
C1298  O1331   1.279   .     A
C1298  O1329   1.282   .     A
C1298  C1300   1.398   .     S
C1299  O1332   1.279   .     A
C1299  C1301   1.398   .     S
C1299  O1330   1.282   .     A
C1301  C1358   1.324   .     S
C1301  H1371   1.086   .     S
C1303  C1452   1.374   .     S
C1304  H1314   1.080   .     S
C1304  C1476   1.374   .     S
H1305  C1358   1.086   .     S
H1319  C243    1.082   1_556 S
H1320  C245    1.083   1_556 S
N1323  Zn1333  2.017   .     S
N1324  Zn1334  2.017   .     S
O1325  Zn1333  2.008   .     S
O1326  Zn1334  2.008   .     S
O1327  Zn1334  1.997   .     S
O1328  Zn1333  1.997   .     S
O1329  Zn1333  1.973   .     S
O1330  Zn1334  1.973   .     S
O1331  Zn1334  1.975   .     S
O1332  Zn1333  1.975   .     S
C1335  C1338   1.426   .     S
C1335  O1385   1.283   .     A
C1335  O1383   1.291   .     A
C1336  C1338   1.395   .     A
C1336  H1373   1.080   .     S
C1337  C1361   1.411   .     A
C1337  C1362   1.395   .     A
C1337  C1346   1.426   .     S
C1338  C1360   1.411   .     A
C1339  N1382   1.382   .     A
C1339  I1379   2.112   .     S
C1340  N1381   1.382   .     A
C1340  I1380   2.112   .     S
C1340  C298    1.413   1_556 S
C1341  H1374   1.082   .     S
C1341  N1381   1.356   .     A
C1341  C295    1.413   1_556 S
C1342  N1382   1.356   .     A
C1342  H1375   1.082   .     S
C1343  C1344   1.406   .     A
C1343  C1349   1.405   .     A
C1343  C1360   1.485   .     S
C1344  H1376   1.083   .     S
C1344  C1345   1.399   .     A
C1345  C1347   1.397   .     A
C1346  O1386   1.283   .     A
C1346  O1384   1.291   .     A
C1347  C1348   1.398   .     A
C1348  H1364   1.082   .     S
C1348  C1349   1.399   .     A
C1349  H1365   1.083   .     S
C1350  C1355   1.405   .     A
C1350  C1361   1.485   .     S
C1350  C1351   1.405   .     A
C1351  C1352   1.399   .     A
C1351  H1366   1.083   .     S
C1352  H1367   1.082   .     S
C1352  C1353   1.398   .     A
C1353  C1354   1.397   .     A
C1353  H324    1.083   1_556 S
C1354  C1355   1.399   .     A
C1354  H325    1.082   1_556 S
C1355  H1370   1.083   .     S
C1356  O1389   1.279   .     A
C1356  O1387   1.282   .     A
C1356  C1358   1.398   .     S
C1357  O1390   1.279   .     A
C1357  C1359   1.398   .     S
C1357  O1388   1.282   .     A
C1359  C1242   1.324   1_655 S
C1359  H1255   1.086   1_655 S
C1361  C1510   1.374   .     S
C1362  H1372   1.080   .     S
C1362  C1534   1.374   .     S
H1363  C1242   1.086   1_655 S
H1377  C301    1.082   1_556 S
H1378  C303    1.083   1_556 S
N1381  Zn1391  2.017   .     S
N1382  Zn1392  2.017   .     S
O1383  Zn1391  2.008   .     S
O1384  Zn1392  2.008   .     S
O1385  Zn1392  1.997   .     S
O1386  Zn1391  1.997   .     S
O1387  Zn1391  1.973   .     S
O1388  Zn1392  1.973   .     S
O1389  Zn1392  1.975   .     S
O1390  Zn1391  1.975   .     S
C1393  C1396   1.426   .     S
C1393  O1443   1.283   .     A
C1393  O1441   1.291   .     A
C1394  C1396   1.395   .     A
C1394  H1431   1.080   .     S
C1395  C1419   1.411   .     A
C1395  C1420   1.395   .     A
C1395  C1404   1.426   .     S
C1396  C1418   1.411   .     A
C1397  N1440   1.382   .     A
C1397  I1437   2.112   .     S
C1398  N1439   1.382   .     A
C1398  I1438   2.112   .     S
C1398  C356    1.413   1_556 S
C1399  H1432   1.082   .     S
C1399  N1439   1.356   .     A
C1399  C353    1.413   1_556 S
C1400  N1440   1.356   .     A
C1400  H1433   1.082   .     S
C1401  C1402   1.406   .     A
C1401  C1407   1.405   .     A
C1401  C1418   1.485   .     S
C1402  H1434   1.083   .     S
C1402  C1403   1.399   .     A
C1403  C1405   1.397   .     A
C1404  O1444   1.283   .     A
C1404  O1442   1.291   .     A
C1405  C1406   1.398   .     A
C1406  H1422   1.082   .     S
C1406  C1407   1.399   .     A
C1407  H1423   1.083   .     S
C1408  C1413   1.405   .     A
C1408  C1419   1.485   .     S
C1408  C1409   1.405   .     A
C1409  C1410   1.399   .     A
C1409  H1424   1.083   .     S
C1410  H1425   1.082   .     S
C1410  C1411   1.398   .     A
C1411  C1412   1.397   .     A
C1411  H382    1.083   1_556 S
C1412  C1413   1.399   .     A
C1412  H383    1.082   1_556 S
C1413  H1428   1.083   .     S
C1414  O1447   1.279   .     A
C1414  O1445   1.282   .     A
C1414  C1416   1.398   .     S
C1415  O1448   1.279   .     A
C1415  C1417   1.398   .     S
C1415  O1446   1.282   .     A
C1416  C1533   1.324   1_455 S
C1416  H1537   1.086   1_455 S
C1417  C1474   1.324   .     S
C1417  H1487   1.086   .     S
C1419  C1046   1.374   1_565 S
C1420  H1430   1.080   .     S
C1420  C1070   1.374   1_565 S
H1421  C1474   1.086   .     S
H1429  C1533   1.086   1_455 S
H1435  C359    1.082   1_556 S
H1436  C361    1.083   1_556 S
N1439  Zn1449  2.017   .     S
N1440  Zn1450  2.017   .     S
O1441  Zn1449  2.008   .     S
O1442  Zn1450  2.008   .     S
O1443  Zn1450  1.997   .     S
O1444  Zn1449  1.997   .     S
O1445  Zn1449  1.973   .     S
O1446  Zn1450  1.973   .     S
O1447  Zn1450  1.975   .     S
O1448  Zn1449  1.975   .     S
C1451  C1454   1.426   .     S
C1451  O1501   1.283   .     A
C1451  O1499   1.291   .     A
C1452  C1454   1.395   .     A
C1452  H1489   1.080   .     S
C1453  C1477   1.411   .     A
C1453  C1478   1.395   .     A
C1453  C1462   1.426   .     S
C1454  C1476   1.411   .     A
C1455  N1498   1.382   .     A
C1455  I1495   2.112   .     S
C1456  N1497   1.382   .     A
C1456  I1496   2.112   .     S
C1456  C414    1.413   1_556 S
C1457  H1490   1.082   .     S
C1457  N1497   1.356   .     A
C1457  C411    1.413   1_556 S
C1458  N1498   1.356   .     A
C1458  H1491   1.082   .     S
C1459  C1460   1.406   .     A
C1459  C1465   1.405   .     A
C1459  C1476   1.485   .     S
C1460  H1492   1.083   .     S
C1460  C1461   1.399   .     A
C1461  C1463   1.397   .     A
C1462  O1502   1.283   .     A
C1462  O1500   1.291   .     A
C1463  C1464   1.398   .     A
C1464  H1480   1.082   .     S
C1464  C1465   1.399   .     A
C1465  H1481   1.083   .     S
C1466  C1471   1.405   .     A
C1466  C1477   1.485   .     S
C1466  C1467   1.405   .     A
C1467  C1468   1.399   .     A
C1467  H1482   1.083   .     S
C1468  H1483   1.082   .     S
C1468  C1469   1.398   .     A
C1469  C1470   1.397   .     A
C1469  H440    1.083   1_556 S
C1470  C1471   1.399   .     A
C1470  H441    1.082   1_556 S
C1471  H1486   1.083   .     S
C1472  O1505   1.279   .     A
C1472  O1503   1.282   .     A
C1472  C1474   1.398   .     S
C1473  O1506   1.279   .     A
C1473  C1475   1.398   .     S
C1473  O1504   1.282   .     A
C1475  C1532   1.324   .     S
C1475  H1545   1.086   .     S
C1477  C1104   1.374   1_565 S
C1478  H1488   1.080   .     S
C1478  C1128   1.374   1_565 S
H1479  C1532   1.086   .     S
H1493  C417    1.082   1_556 S
H1494  C419    1.083   1_556 S
N1497  Zn1507  2.017   .     S
N1498  Zn1508  2.017   .     S
O1499  Zn1507  2.008   .     S
O1500  Zn1508  2.008   .     S
O1501  Zn1508  1.997   .     S
O1502  Zn1507  1.997   .     S
O1503  Zn1507  1.973   .     S
O1504  Zn1508  1.973   .     S
O1505  Zn1508  1.975   .     S
O1506  Zn1507  1.975   .     S
C1509  C1512   1.426   .     S
C1509  O1559   1.283   .     A
C1509  O1557   1.291   .     A
C1510  C1512   1.395   .     A
C1510  H1547   1.080   .     S
C1511  C1535   1.411   .     A
C1511  C1536   1.395   .     A
C1511  C1520   1.426   .     S
C1512  C1534   1.411   .     A
C1513  N1556   1.382   .     A
C1513  I1553   2.112   .     S
C1514  N1555   1.382   .     A
C1514  I1554   2.112   .     S
C1514  C472    1.413   1_556 S
C1515  H1548   1.082   .     S
C1515  N1555   1.356   .     A
C1515  C469    1.413   1_556 S
C1516  N1556   1.356   .     A
C1516  H1549   1.082   .     S
C1517  C1518   1.406   .     A
C1517  C1523   1.405   .     A
C1517  C1534   1.485   .     S
C1518  H1550   1.083   .     S
C1518  C1519   1.399   .     A
C1519  C1521   1.397   .     A
C1520  O1560   1.283   .     A
C1520  O1558   1.291   .     A
C1521  C1522   1.398   .     A
C1522  H1538   1.082   .     S
C1522  C1523   1.399   .     A
C1523  H1539   1.083   .     S
C1524  C1529   1.405   .     A
C1524  C1535   1.485   .     S
C1524  C1525   1.405   .     A
C1525  C1526   1.399   .     A
C1525  H1540   1.083   .     S
C1526  H1541   1.082   .     S
C1526  C1527   1.398   .     A
C1527  C1528   1.397   .     A
C1527  H498    1.083   1_556 S
C1528  C1529   1.399   .     A
C1528  H499    1.082   1_556 S
C1529  H1544   1.083   .     S
C1530  O1563   1.279   .     A
C1530  O1561   1.282   .     A
C1530  C1532   1.398   .     S
C1531  O1564   1.279   .     A
C1531  C1533   1.398   .     S
C1531  O1562   1.282   .     A
C1533  C1416   1.324   1_655 S
C1533  H1429   1.086   1_655 S
C1535  C1162   1.374   1_565 S
C1536  H1546   1.080   .     S
C1536  C1186   1.374   1_565 S
H1537  C1416   1.086   1_655 S
H1551  C475    1.082   1_556 S
H1552  C477    1.083   1_556 S
N1555  Zn1565  2.017   .     S
N1556  Zn1566  2.017   .     S
O1557  Zn1565  2.008   .     S
O1558  Zn1566  2.008   .     S
O1559  Zn1566  1.997   .     S
O1560  Zn1565  1.997   .     S
O1561  Zn1565  1.973   .     S
O1562  Zn1566  1.973   .     S
O1563  Zn1566  1.975   .     S
O1564  Zn1565  1.975   .     S
