data_str_m3_o1_o1_pcu_sym.26
_audit_creation_date              2020-01-03
_audit_creation_method            'Materials Studio'
_symmetry_space_group_name_H-M    'P1'
_symmetry_Int_Tables_number       1
_symmetry_cell_setting            triclinic
loop_
_symmetry_equiv_pos_as_xyz
  x,y,z
_cell_length_a                    31.2877
_cell_length_b                    29.0188
_cell_length_c                    29.7758
_cell_angle_alpha                 93.7737
_cell_angle_beta                  90.0894
_cell_angle_gamma                 89.6206
loop_
_atom_site_label
_atom_site_type_symbol
_atom_site_fract_x
_atom_site_fract_y
_atom_site_fract_z
_atom_site_U_iso_or_equiv
_atom_site_adp_type
_atom_site_occupancy
O1     O     0.04580   0.20419   0.20487   0.00000  Uiso   1.00
O2     O     0.45419   0.29581   0.12846   0.00000  Uiso   1.00
O3     O     0.45419   0.29581   0.20487   0.00000  Uiso   1.00
O4     O     0.04580   0.20419   0.12846   0.00000  Uiso   1.00
O5     O     0.45419   0.20419   0.12846   0.00000  Uiso   1.00
O6     O     0.04580   0.29581   0.20487   0.00000  Uiso   1.00
O7     O     0.04580   0.29581   0.12846   0.00000  Uiso   1.00
O8     O     0.45419   0.20419   0.20487   0.00000  Uiso   1.00
O9     O     0.29580   0.45419   0.20487   0.00000  Uiso   1.00
O10    O     0.20419   0.04581   0.12846   0.00000  Uiso   1.00
O11    O     0.20419   0.04581   0.20487   0.00000  Uiso   1.00
O12    O     0.29580   0.45419   0.12846   0.00000  Uiso   1.00
O13    O     0.20419   0.45419   0.12846   0.00000  Uiso   1.00
O14    O     0.29580   0.04581   0.20487   0.00000  Uiso   1.00
O15    O     0.29580   0.04581   0.12846   0.00000  Uiso   1.00
O16    O     0.20419   0.45419   0.20487   0.00000  Uiso   1.00
C17    C     0.06360   0.19415   0.16602   0.00000  Uiso   1.00
C18    C     0.43640   0.30585   0.16732   0.00000  Uiso   1.00
C19    C     0.43713   0.19316   0.16565   0.00000  Uiso   1.00
C20    C     0.06288   0.30684   0.16768   0.00000  Uiso   1.00
C21    C     0.31360   0.44415   0.16602   0.00000  Uiso   1.00
C22    C     0.18640   0.05585   0.16732   0.00000  Uiso   1.00
C23    C     0.18713   0.44316   0.16565   0.00000  Uiso   1.00
C24    C     0.31288   0.05684   0.16768   0.00000  Uiso   1.00
N25    N    -0.00000   0.25000   0.28573   0.00000  Uiso   1.00
N26    N    -0.00000   0.25000   0.04760   0.00000  Uiso   1.00
N27    N     0.25000  -0.00000   0.28573   0.00000  Uiso   1.00
N28    N     0.25000   0.00000   0.04760   0.00000  Uiso   1.00
Zn29   Zn   -0.00000   0.25000   0.21771   0.00000  Uiso   1.00
Zn30   Zn   -0.00000   0.25000   0.11563   0.00000  Uiso   1.00
Zn31   Zn    0.25000  -0.00000   0.21771   0.00000  Uiso   1.00
Zn32   Zn    0.25000  -0.00000   0.11563   0.00000  Uiso   1.00
C33    C     0.00032   0.29060   0.02708   0.00000  Uiso   1.00
C34    C     0.49966   0.20940   0.30626   0.00000  Uiso   1.00
C35    C     0.00217   0.20895   0.02069   0.00000  Uiso   1.00
C36    C     0.49783   0.29105   0.31265   0.00000  Uiso   1.00
C37    C     0.25032   0.04060   0.02708   0.00000  Uiso   1.00
C38    C     0.24966   0.45940   0.30626   0.00000  Uiso   1.00
C39    C     0.25217   0.45895   0.02069   0.00000  Uiso   1.00
C40    C     0.24783   0.04105   0.31265   0.00000  Uiso   1.00
C41    C     0.39121   0.13515   0.12426   0.00000  Uiso   1.00
C42    C     0.10879   0.36484   0.20908   0.00000  Uiso   1.00
C43    C     0.12191   0.34284   0.12948   0.00000  Uiso   1.00
C44    C     0.37809   0.15715   0.20385   0.00000  Uiso   1.00
C45    C     0.11887   0.15319   0.20632   0.00000  Uiso   1.00
C46    C     0.38111   0.34679   0.12701   0.00000  Uiso   1.00
C47    C     0.38597   0.35910   0.20882   0.00000  Uiso   1.00
C48    C     0.11402   0.14088   0.12452   0.00000  Uiso   1.00
C49    C     0.14121   0.38515   0.12426   0.00000  Uiso   1.00
C50    C     0.35879   0.11484   0.20908   0.00000  Uiso   1.00
C51    C     0.37191   0.09284   0.12948   0.00000  Uiso   1.00
C52    C     0.12809   0.40715   0.20385   0.00000  Uiso   1.00
C53    C     0.36887   0.40319   0.20632   0.00000  Uiso   1.00
C54    C     0.13111   0.09679   0.12701   0.00000  Uiso   1.00
C55    C     0.13597   0.10910   0.20882   0.00000  Uiso   1.00
C56    C     0.36402   0.39088   0.12452   0.00000  Uiso   1.00
C57    C     0.10069   0.33583   0.17005   0.00000  Uiso   1.00
C58    C     0.39932   0.16416   0.16328   0.00000  Uiso   1.00
C59    C     0.39784   0.33427   0.16847   0.00000  Uiso   1.00
C60    C     0.10215   0.16572   0.16487   0.00000  Uiso   1.00
C61    C     0.35069   0.08583   0.17005   0.00000  Uiso   1.00
C62    C     0.14932   0.41416   0.16328   0.00000  Uiso   1.00
C63    C     0.14784   0.08427   0.16847   0.00000  Uiso   1.00
C64    C     0.35215   0.41572   0.16487   0.00000  Uiso   1.00
N65    N     0.00841   0.33291   0.05328   0.00000  Uiso   1.00
O66    O     0.47726   0.35478   0.07435   0.00000  Uiso   1.00
O67    O     0.04273   0.35589   0.04504   0.00000  Uiso   1.00
N68    N     0.49155   0.16709   0.28006   0.00000  Uiso   1.00
O69    O     0.02266   0.14522   0.25894   0.00000  Uiso   1.00
O70    O     0.45725   0.14411   0.28837   0.00000  Uiso   1.00
N71    N     0.01134   0.16495   0.03905   0.00000  Uiso   1.00
O72    O     0.49734   0.15458   0.07784   0.00000  Uiso   1.00
O73    O     0.03119   0.13254   0.01488   0.00000  Uiso   1.00
N74    N     0.48867   0.33505   0.29428   0.00000  Uiso   1.00
O75    O     0.00267   0.34542   0.25549   0.00000  Uiso   1.00
O76    O     0.46881   0.36746   0.31844   0.00000  Uiso   1.00
N77    N     0.25841   0.08291   0.05328   0.00000  Uiso   1.00
O78    O     0.22726   0.10478   0.07435   0.00000  Uiso   1.00
O79    O     0.29273   0.10589   0.04504   0.00000  Uiso   1.00
N80    N     0.24155   0.41709   0.28006   0.00000  Uiso   1.00
O81    O     0.27266   0.39522   0.25895   0.00000  Uiso   1.00
O82    O     0.20725   0.39411   0.28837   0.00000  Uiso   1.00
N83    N     0.26134   0.41495   0.03905   0.00000  Uiso   1.00
O84    O     0.24734   0.40458   0.07784   0.00000  Uiso   1.00
O85    O     0.28119   0.38254   0.01488   0.00000  Uiso   1.00
N86    N     0.23867   0.08505   0.29428   0.00000  Uiso   1.00
O87    O     0.25267   0.09542   0.25549   0.00000  Uiso   1.00
O88    O     0.21881   0.11746   0.31844   0.00000  Uiso   1.00
C89    C     0.39767   0.14995   0.07682   0.00000  Uiso   1.00
H90    H     0.40160   0.18770   0.07530   0.00000  Uiso   1.00
H91    H     0.42459   0.13079   0.06016   0.00000  Uiso   1.00
H92    H     0.36858   0.14197   0.05654   0.00000  Uiso   1.00
C93    C     0.10234   0.35003   0.25651   0.00000  Uiso   1.00
H94    H     0.09841   0.31228   0.25803   0.00000  Uiso   1.00
H95    H     0.13143   0.35801   0.27679   0.00000  Uiso   1.00
H96    H     0.07542   0.36919   0.27317   0.00000  Uiso   1.00
C97    C     0.12774   0.30391   0.09357   0.00000  Uiso   1.00
H98    H     0.12109   0.27023   0.10737   0.00000  Uiso   1.00
H99    H     0.10684   0.30861   0.06417   0.00000  Uiso   1.00
H100   H     0.16153   0.30224   0.08221   0.00000  Uiso   1.00
C101   C     0.37227   0.19608   0.23977   0.00000  Uiso   1.00
H102   H     0.37891   0.22976   0.22597   0.00000  Uiso   1.00
H103   H     0.33847   0.19774   0.25113   0.00000  Uiso   1.00
H104   H     0.39317   0.19138   0.26916   0.00000  Uiso   1.00
C105   C     0.12132   0.18728   0.24716   0.00000  Uiso   1.00
H106   H     0.11497   0.22326   0.23834   0.00000  Uiso   1.00
H107   H     0.09868   0.17789   0.27363   0.00000  Uiso   1.00
H108   H     0.15423   0.18726   0.26118   0.00000  Uiso   1.00
C109   C     0.37866   0.31270   0.08618   0.00000  Uiso   1.00
H110   H     0.38503   0.27672   0.09501   0.00000  Uiso   1.00
H111   H     0.34574   0.31271   0.07218   0.00000  Uiso   1.00
H112   H     0.40128   0.32209   0.05969   0.00000  Uiso   1.00
C113   C     0.38464   0.33750   0.25365   0.00000  Uiso   1.00
H114   H     0.39503   0.30110   0.25226   0.00000  Uiso   1.00
H115   H     0.40390   0.35760   0.27875   0.00000  Uiso   1.00
H116   H     0.35113   0.33801   0.26593   0.00000  Uiso   1.00
C117   C     0.11535   0.16248   0.07968   0.00000  Uiso   1.00
H118   H     0.10496   0.19888   0.08107   0.00000  Uiso   1.00
H119   H     0.14886   0.16197   0.06740   0.00000  Uiso   1.00
H120   H     0.09609   0.14238   0.05459   0.00000  Uiso   1.00
C121   C     0.14767   0.39995   0.07682   0.00000  Uiso   1.00
H122   H     0.15160   0.43770   0.07530   0.00000  Uiso   1.00
H123   H     0.17459   0.38079   0.06016   0.00000  Uiso   1.00
H124   H     0.11858   0.39197   0.05654   0.00000  Uiso   1.00
C125   C     0.35234   0.10003   0.25651   0.00000  Uiso   1.00
H126   H     0.34841   0.06228   0.25803   0.00000  Uiso   1.00
H127   H     0.38143   0.10801   0.27679   0.00000  Uiso   1.00
H128   H     0.32542   0.11919   0.27317   0.00000  Uiso   1.00
C129   C     0.37774   0.05391   0.09357   0.00000  Uiso   1.00
H130   H     0.37109   0.02023   0.10736   0.00000  Uiso   1.00
H131   H     0.35684   0.05861   0.06417   0.00000  Uiso   1.00
H132   H     0.41153   0.05224   0.08221   0.00000  Uiso   1.00
C133   C     0.12227   0.44608   0.23977   0.00000  Uiso   1.00
H134   H     0.12891   0.47976   0.22597   0.00000  Uiso   1.00
H135   H     0.08847   0.44774   0.25114   0.00000  Uiso   1.00
H136   H     0.14317   0.44138   0.26916   0.00000  Uiso   1.00
C137   C     0.37132   0.43728   0.24716   0.00000  Uiso   1.00
H138   H     0.36497   0.47326   0.23834   0.00000  Uiso   1.00
H139   H     0.34868   0.42789   0.27363   0.00000  Uiso   1.00
H140   H     0.40423   0.43726   0.26118   0.00000  Uiso   1.00
C141   C     0.12866   0.06270   0.08618   0.00000  Uiso   1.00
H142   H     0.13503   0.02672   0.09501   0.00000  Uiso   1.00
H143   H     0.09574   0.06271   0.07218   0.00000  Uiso   1.00
H144   H     0.15128   0.07209   0.05969   0.00000  Uiso   1.00
C145   C     0.13464   0.08750   0.25365   0.00000  Uiso   1.00
H146   H     0.14503   0.05110   0.25226   0.00000  Uiso   1.00
H147   H     0.15390   0.10760   0.27875   0.00000  Uiso   1.00
H148   H     0.10113   0.08801   0.26593   0.00000  Uiso   1.00
C149   C     0.36535   0.41248   0.07968   0.00000  Uiso   1.00
H150   H     0.35496   0.44888   0.08107   0.00000  Uiso   1.00
H151   H     0.39886   0.41197   0.06740   0.00000  Uiso   1.00
H152   H     0.34609   0.39238   0.05459   0.00000  Uiso   1.00
O153   O     0.54580   0.20419   0.20487   0.00000  Uiso   1.00
O154   O     0.95419   0.29581   0.12846   0.00000  Uiso   1.00
O155   O     0.95419   0.29581   0.20487   0.00000  Uiso   1.00
O156   O     0.54580   0.20419   0.12846   0.00000  Uiso   1.00
O157   O     0.95419   0.20419   0.12846   0.00000  Uiso   1.00
O158   O     0.54580   0.29581   0.20487   0.00000  Uiso   1.00
O159   O     0.54580   0.29581   0.12846   0.00000  Uiso   1.00
O160   O     0.95419   0.20419   0.20487   0.00000  Uiso   1.00
O161   O     0.79580   0.45419   0.20487   0.00000  Uiso   1.00
O162   O     0.70419   0.04581   0.12846   0.00000  Uiso   1.00
O163   O     0.70419   0.04581   0.20487   0.00000  Uiso   1.00
O164   O     0.79580   0.45419   0.12846   0.00000  Uiso   1.00
O165   O     0.70419   0.45419   0.12846   0.00000  Uiso   1.00
O166   O     0.79580   0.04581   0.20487   0.00000  Uiso   1.00
O167   O     0.79580   0.04581   0.12846   0.00000  Uiso   1.00
O168   O     0.70419   0.45419   0.20487   0.00000  Uiso   1.00
C169   C     0.56360   0.19415   0.16602   0.00000  Uiso   1.00
C170   C     0.93640   0.30585   0.16732   0.00000  Uiso   1.00
C171   C     0.93713   0.19316   0.16565   0.00000  Uiso   1.00
C172   C     0.56288   0.30684   0.16768   0.00000  Uiso   1.00
C173   C     0.81360   0.44415   0.16602   0.00000  Uiso   1.00
C174   C     0.68640   0.05585   0.16732   0.00000  Uiso   1.00
C175   C     0.68713   0.44316   0.16565   0.00000  Uiso   1.00
C176   C     0.81288   0.05684   0.16768   0.00000  Uiso   1.00
N177   N     0.50000   0.25000   0.28573   0.00000  Uiso   1.00
N178   N     0.50000   0.25000   0.04760   0.00000  Uiso   1.00
N179   N     0.75000  -0.00000   0.28573   0.00000  Uiso   1.00
N180   N     0.75000   0.00000   0.04760   0.00000  Uiso   1.00
Zn181  Zn    0.50000   0.25000   0.21771   0.00000  Uiso   1.00
Zn182  Zn    0.50000   0.25000   0.11563   0.00000  Uiso   1.00
Zn183  Zn    0.75000  -0.00000   0.21771   0.00000  Uiso   1.00
Zn184  Zn    0.75000  -0.00000   0.11563   0.00000  Uiso   1.00
C185   C     0.50032   0.29060   0.02708   0.00000  Uiso   1.00
C186   C     0.99966   0.20940   0.30626   0.00000  Uiso   1.00
C187   C     0.50217   0.20895   0.02069   0.00000  Uiso   1.00
C188   C     0.99783   0.29105   0.31265   0.00000  Uiso   1.00
C189   C     0.75032   0.04060   0.02708   0.00000  Uiso   1.00
C190   C     0.74966   0.45940   0.30626   0.00000  Uiso   1.00
C191   C     0.75217   0.45895   0.02069   0.00000  Uiso   1.00
C192   C     0.74783   0.04105   0.31265   0.00000  Uiso   1.00
C193   C     0.89121   0.13515   0.12426   0.00000  Uiso   1.00
C194   C     0.60879   0.36484   0.20908   0.00000  Uiso   1.00
C195   C     0.62191   0.34284   0.12948   0.00000  Uiso   1.00
C196   C     0.87809   0.15715   0.20385   0.00000  Uiso   1.00
C197   C     0.61887   0.15319   0.20632   0.00000  Uiso   1.00
C198   C     0.88111   0.34679   0.12701   0.00000  Uiso   1.00
C199   C     0.88597   0.35910   0.20882   0.00000  Uiso   1.00
C200   C     0.61402   0.14088   0.12452   0.00000  Uiso   1.00
C201   C     0.64121   0.38515   0.12426   0.00000  Uiso   1.00
C202   C     0.85879   0.11484   0.20908   0.00000  Uiso   1.00
C203   C     0.87191   0.09284   0.12948   0.00000  Uiso   1.00
C204   C     0.62809   0.40715   0.20385   0.00000  Uiso   1.00
C205   C     0.86887   0.40319   0.20632   0.00000  Uiso   1.00
C206   C     0.63111   0.09679   0.12701   0.00000  Uiso   1.00
C207   C     0.63597   0.10910   0.20882   0.00000  Uiso   1.00
C208   C     0.86402   0.39088   0.12452   0.00000  Uiso   1.00
C209   C     0.60069   0.33583   0.17005   0.00000  Uiso   1.00
C210   C     0.89932   0.16416   0.16328   0.00000  Uiso   1.00
C211   C     0.89784   0.33427   0.16847   0.00000  Uiso   1.00
C212   C     0.60215   0.16572   0.16487   0.00000  Uiso   1.00
C213   C     0.85069   0.08583   0.17005   0.00000  Uiso   1.00
C214   C     0.64932   0.41416   0.16328   0.00000  Uiso   1.00
C215   C     0.64784   0.08427   0.16847   0.00000  Uiso   1.00
C216   C     0.85215   0.41572   0.16487   0.00000  Uiso   1.00
N217   N     0.50841   0.33291   0.05328   0.00000  Uiso   1.00
O218   O     0.97726   0.35478   0.07435   0.00000  Uiso   1.00
O219   O     0.54273   0.35589   0.04504   0.00000  Uiso   1.00
N220   N     0.99155   0.16709   0.28006   0.00000  Uiso   1.00
O221   O     0.52266   0.14522   0.25894   0.00000  Uiso   1.00
O222   O     0.95725   0.14411   0.28837   0.00000  Uiso   1.00
N223   N     0.51134   0.16495   0.03905   0.00000  Uiso   1.00
O224   O     0.99734   0.15458   0.07784   0.00000  Uiso   1.00
O225   O     0.53119   0.13254   0.01488   0.00000  Uiso   1.00
N226   N     0.98867   0.33505   0.29428   0.00000  Uiso   1.00
O227   O     0.50267   0.34542   0.25549   0.00000  Uiso   1.00
O228   O     0.96881   0.36746   0.31844   0.00000  Uiso   1.00
N229   N     0.75841   0.08291   0.05328   0.00000  Uiso   1.00
O230   O     0.72726   0.10478   0.07435   0.00000  Uiso   1.00
O231   O     0.79273   0.10589   0.04504   0.00000  Uiso   1.00
N232   N     0.74155   0.41709   0.28006   0.00000  Uiso   1.00
O233   O     0.77266   0.39522   0.25895   0.00000  Uiso   1.00
O234   O     0.70725   0.39411   0.28837   0.00000  Uiso   1.00
N235   N     0.76134   0.41495   0.03905   0.00000  Uiso   1.00
O236   O     0.74734   0.40458   0.07784   0.00000  Uiso   1.00
O237   O     0.78119   0.38254   0.01488   0.00000  Uiso   1.00
N238   N     0.73867   0.08505   0.29428   0.00000  Uiso   1.00
O239   O     0.75267   0.09542   0.25549   0.00000  Uiso   1.00
O240   O     0.71881   0.11746   0.31844   0.00000  Uiso   1.00
C241   C     0.89767   0.14995   0.07682   0.00000  Uiso   1.00
H242   H     0.90160   0.18770   0.07530   0.00000  Uiso   1.00
H243   H     0.92459   0.13079   0.06016   0.00000  Uiso   1.00
H244   H     0.86858   0.14197   0.05654   0.00000  Uiso   1.00
C245   C     0.60234   0.35003   0.25651   0.00000  Uiso   1.00
H246   H     0.59841   0.31228   0.25803   0.00000  Uiso   1.00
H247   H     0.63143   0.35801   0.27679   0.00000  Uiso   1.00
H248   H     0.57542   0.36919   0.27317   0.00000  Uiso   1.00
C249   C     0.62774   0.30391   0.09357   0.00000  Uiso   1.00
H250   H     0.62109   0.27023   0.10737   0.00000  Uiso   1.00
H251   H     0.60684   0.30861   0.06417   0.00000  Uiso   1.00
H252   H     0.66153   0.30224   0.08221   0.00000  Uiso   1.00
C253   C     0.87227   0.19608   0.23977   0.00000  Uiso   1.00
H254   H     0.87891   0.22976   0.22597   0.00000  Uiso   1.00
H255   H     0.83847   0.19774   0.25113   0.00000  Uiso   1.00
H256   H     0.89317   0.19138   0.26916   0.00000  Uiso   1.00
C257   C     0.62132   0.18728   0.24716   0.00000  Uiso   1.00
H258   H     0.61497   0.22326   0.23834   0.00000  Uiso   1.00
H259   H     0.59868   0.17789   0.27363   0.00000  Uiso   1.00
H260   H     0.65423   0.18726   0.26118   0.00000  Uiso   1.00
C261   C     0.87866   0.31270   0.08618   0.00000  Uiso   1.00
H262   H     0.88503   0.27672   0.09501   0.00000  Uiso   1.00
H263   H     0.84574   0.31271   0.07218   0.00000  Uiso   1.00
H264   H     0.90128   0.32209   0.05969   0.00000  Uiso   1.00
C265   C     0.88464   0.33750   0.25365   0.00000  Uiso   1.00
H266   H     0.89503   0.30110   0.25226   0.00000  Uiso   1.00
H267   H     0.90390   0.35760   0.27875   0.00000  Uiso   1.00
H268   H     0.85113   0.33801   0.26593   0.00000  Uiso   1.00
C269   C     0.61535   0.16248   0.07968   0.00000  Uiso   1.00
H270   H     0.60496   0.19888   0.08107   0.00000  Uiso   1.00
H271   H     0.64886   0.16197   0.06740   0.00000  Uiso   1.00
H272   H     0.59609   0.14238   0.05459   0.00000  Uiso   1.00
C273   C     0.64767   0.39995   0.07682   0.00000  Uiso   1.00
H274   H     0.65160   0.43770   0.07530   0.00000  Uiso   1.00
H275   H     0.67459   0.38079   0.06016   0.00000  Uiso   1.00
H276   H     0.61858   0.39197   0.05654   0.00000  Uiso   1.00
C277   C     0.85234   0.10003   0.25651   0.00000  Uiso   1.00
H278   H     0.84841   0.06228   0.25803   0.00000  Uiso   1.00
H279   H     0.88143   0.10801   0.27679   0.00000  Uiso   1.00
H280   H     0.82542   0.11919   0.27317   0.00000  Uiso   1.00
C281   C     0.87774   0.05391   0.09357   0.00000  Uiso   1.00
H282   H     0.87109   0.02023   0.10736   0.00000  Uiso   1.00
H283   H     0.85684   0.05861   0.06417   0.00000  Uiso   1.00
H284   H     0.91153   0.05224   0.08221   0.00000  Uiso   1.00
C285   C     0.62227   0.44608   0.23977   0.00000  Uiso   1.00
H286   H     0.62891   0.47976   0.22597   0.00000  Uiso   1.00
H287   H     0.58847   0.44774   0.25114   0.00000  Uiso   1.00
H288   H     0.64317   0.44138   0.26916   0.00000  Uiso   1.00
C289   C     0.87132   0.43728   0.24716   0.00000  Uiso   1.00
H290   H     0.86497   0.47326   0.23834   0.00000  Uiso   1.00
H291   H     0.84868   0.42789   0.27363   0.00000  Uiso   1.00
H292   H     0.90423   0.43726   0.26118   0.00000  Uiso   1.00
C293   C     0.62866   0.06270   0.08618   0.00000  Uiso   1.00
H294   H     0.63503   0.02672   0.09501   0.00000  Uiso   1.00
H295   H     0.59574   0.06271   0.07218   0.00000  Uiso   1.00
H296   H     0.65128   0.07209   0.05969   0.00000  Uiso   1.00
C297   C     0.63464   0.08750   0.25365   0.00000  Uiso   1.00
H298   H     0.64503   0.05110   0.25226   0.00000  Uiso   1.00
H299   H     0.65390   0.10760   0.27875   0.00000  Uiso   1.00
H300   H     0.60113   0.08801   0.26593   0.00000  Uiso   1.00
C301   C     0.86535   0.41248   0.07968   0.00000  Uiso   1.00
H302   H     0.85496   0.44888   0.08107   0.00000  Uiso   1.00
H303   H     0.89886   0.41197   0.06740   0.00000  Uiso   1.00
H304   H     0.84609   0.39238   0.05459   0.00000  Uiso   1.00
O305   O     0.04580   0.70419   0.20487   0.00000  Uiso   1.00
O306   O     0.45419   0.79581   0.12846   0.00000  Uiso   1.00
O307   O     0.45419   0.79581   0.20487   0.00000  Uiso   1.00
O308   O     0.04580   0.70419   0.12846   0.00000  Uiso   1.00
O309   O     0.45419   0.70419   0.12846   0.00000  Uiso   1.00
O310   O     0.04580   0.79581   0.20487   0.00000  Uiso   1.00
O311   O     0.04580   0.79581   0.12846   0.00000  Uiso   1.00
O312   O     0.45419   0.70419   0.20487   0.00000  Uiso   1.00
O313   O     0.29580   0.95419   0.20487   0.00000  Uiso   1.00
O314   O     0.20419   0.54581   0.12846   0.00000  Uiso   1.00
O315   O     0.20419   0.54581   0.20487   0.00000  Uiso   1.00
O316   O     0.29580   0.95419   0.12846   0.00000  Uiso   1.00
O317   O     0.20419   0.95419   0.12846   0.00000  Uiso   1.00
O318   O     0.29580   0.54581   0.20487   0.00000  Uiso   1.00
O319   O     0.29580   0.54581   0.12846   0.00000  Uiso   1.00
O320   O     0.20419   0.95419   0.20487   0.00000  Uiso   1.00
C321   C     0.06360   0.69415   0.16602   0.00000  Uiso   1.00
C322   C     0.43640   0.80585   0.16732   0.00000  Uiso   1.00
C323   C     0.43713   0.69316   0.16565   0.00000  Uiso   1.00
C324   C     0.06288   0.80684   0.16768   0.00000  Uiso   1.00
C325   C     0.31360   0.94415   0.16602   0.00000  Uiso   1.00
C326   C     0.18640   0.55585   0.16732   0.00000  Uiso   1.00
C327   C     0.18713   0.94316   0.16565   0.00000  Uiso   1.00
C328   C     0.31288   0.55684   0.16768   0.00000  Uiso   1.00
N329   N    -0.00000   0.75000   0.28573   0.00000  Uiso   1.00
N330   N    -0.00000   0.75000   0.04760   0.00000  Uiso   1.00
N331   N     0.25000   0.50000   0.28573   0.00000  Uiso   1.00
N332   N     0.25000   0.50000   0.04760   0.00000  Uiso   1.00
Zn333  Zn   -0.00000   0.75000   0.21771   0.00000  Uiso   1.00
Zn334  Zn   -0.00000   0.75000   0.11563   0.00000  Uiso   1.00
Zn335  Zn    0.25000   0.50000   0.21771   0.00000  Uiso   1.00
Zn336  Zn    0.25000   0.50000   0.11563   0.00000  Uiso   1.00
C337   C     0.00032   0.79060   0.02708   0.00000  Uiso   1.00
C338   C     0.49966   0.70940   0.30626   0.00000  Uiso   1.00
C339   C     0.00217   0.70895   0.02069   0.00000  Uiso   1.00
C340   C     0.49783   0.79105   0.31265   0.00000  Uiso   1.00
C341   C     0.25032   0.54060   0.02708   0.00000  Uiso   1.00
C342   C     0.24966   0.95940   0.30626   0.00000  Uiso   1.00
C343   C     0.25217   0.95895   0.02069   0.00000  Uiso   1.00
C344   C     0.24783   0.54105   0.31265   0.00000  Uiso   1.00
C345   C     0.39121   0.63515   0.12426   0.00000  Uiso   1.00
C346   C     0.10879   0.86484   0.20908   0.00000  Uiso   1.00
C347   C     0.12191   0.84284   0.12948   0.00000  Uiso   1.00
C348   C     0.37809   0.65715   0.20385   0.00000  Uiso   1.00
C349   C     0.11887   0.65319   0.20632   0.00000  Uiso   1.00
C350   C     0.38111   0.84679   0.12701   0.00000  Uiso   1.00
C351   C     0.38597   0.85910   0.20882   0.00000  Uiso   1.00
C352   C     0.11402   0.64088   0.12452   0.00000  Uiso   1.00
C353   C     0.14121   0.88515   0.12426   0.00000  Uiso   1.00
C354   C     0.35879   0.61484   0.20908   0.00000  Uiso   1.00
C355   C     0.37191   0.59284   0.12948   0.00000  Uiso   1.00
C356   C     0.12809   0.90715   0.20385   0.00000  Uiso   1.00
C357   C     0.36887   0.90319   0.20632   0.00000  Uiso   1.00
C358   C     0.13111   0.59679   0.12701   0.00000  Uiso   1.00
C359   C     0.13597   0.60910   0.20882   0.00000  Uiso   1.00
C360   C     0.36402   0.89088   0.12452   0.00000  Uiso   1.00
C361   C     0.10069   0.83583   0.17005   0.00000  Uiso   1.00
C362   C     0.39932   0.66416   0.16328   0.00000  Uiso   1.00
C363   C     0.39784   0.83427   0.16847   0.00000  Uiso   1.00
C364   C     0.10215   0.66572   0.16487   0.00000  Uiso   1.00
C365   C     0.35069   0.58583   0.17005   0.00000  Uiso   1.00
C366   C     0.14932   0.91416   0.16328   0.00000  Uiso   1.00
C367   C     0.14784   0.58427   0.16847   0.00000  Uiso   1.00
C368   C     0.35215   0.91572   0.16487   0.00000  Uiso   1.00
N369   N     0.00841   0.83291   0.05328   0.00000  Uiso   1.00
O370   O     0.47726   0.85478   0.07435   0.00000  Uiso   1.00
O371   O     0.04273   0.85589   0.04504   0.00000  Uiso   1.00
N372   N     0.49155   0.66709   0.28006   0.00000  Uiso   1.00
O373   O     0.02266   0.64522   0.25894   0.00000  Uiso   1.00
O374   O     0.45725   0.64411   0.28837   0.00000  Uiso   1.00
N375   N     0.01134   0.66495   0.03905   0.00000  Uiso   1.00
O376   O     0.49734   0.65458   0.07784   0.00000  Uiso   1.00
O377   O     0.03119   0.63254   0.01488   0.00000  Uiso   1.00
N378   N     0.48867   0.83505   0.29428   0.00000  Uiso   1.00
O379   O     0.00267   0.84542   0.25549   0.00000  Uiso   1.00
O380   O     0.46881   0.86746   0.31844   0.00000  Uiso   1.00
N381   N     0.25841   0.58291   0.05328   0.00000  Uiso   1.00
O382   O     0.22726   0.60478   0.07435   0.00000  Uiso   1.00
O383   O     0.29273   0.60589   0.04504   0.00000  Uiso   1.00
N384   N     0.24155   0.91709   0.28006   0.00000  Uiso   1.00
O385   O     0.27266   0.89522   0.25895   0.00000  Uiso   1.00
O386   O     0.20725   0.89411   0.28837   0.00000  Uiso   1.00
N387   N     0.26134   0.91495   0.03905   0.00000  Uiso   1.00
O388   O     0.24734   0.90458   0.07784   0.00000  Uiso   1.00
O389   O     0.28119   0.88254   0.01488   0.00000  Uiso   1.00
N390   N     0.23867   0.58505   0.29428   0.00000  Uiso   1.00
O391   O     0.25267   0.59542   0.25549   0.00000  Uiso   1.00
O392   O     0.21881   0.61746   0.31844   0.00000  Uiso   1.00
C393   C     0.39767   0.64995   0.07682   0.00000  Uiso   1.00
H394   H     0.40160   0.68770   0.07530   0.00000  Uiso   1.00
H395   H     0.42459   0.63079   0.06016   0.00000  Uiso   1.00
H396   H     0.36858   0.64197   0.05654   0.00000  Uiso   1.00
C397   C     0.10234   0.85003   0.25651   0.00000  Uiso   1.00
H398   H     0.09841   0.81228   0.25803   0.00000  Uiso   1.00
H399   H     0.13143   0.85801   0.27679   0.00000  Uiso   1.00
H400   H     0.07542   0.86919   0.27317   0.00000  Uiso   1.00
C401   C     0.12774   0.80391   0.09357   0.00000  Uiso   1.00
H402   H     0.12109   0.77023   0.10737   0.00000  Uiso   1.00
H403   H     0.10684   0.80861   0.06417   0.00000  Uiso   1.00
H404   H     0.16153   0.80224   0.08221   0.00000  Uiso   1.00
C405   C     0.37227   0.69608   0.23977   0.00000  Uiso   1.00
H406   H     0.37891   0.72976   0.22597   0.00000  Uiso   1.00
H407   H     0.33847   0.69774   0.25113   0.00000  Uiso   1.00
H408   H     0.39317   0.69138   0.26916   0.00000  Uiso   1.00
C409   C     0.12132   0.68728   0.24716   0.00000  Uiso   1.00
H410   H     0.11497   0.72326   0.23834   0.00000  Uiso   1.00
H411   H     0.09868   0.67789   0.27363   0.00000  Uiso   1.00
H412   H     0.15423   0.68726   0.26118   0.00000  Uiso   1.00
C413   C     0.37866   0.81270   0.08618   0.00000  Uiso   1.00
H414   H     0.38503   0.77672   0.09501   0.00000  Uiso   1.00
H415   H     0.34574   0.81271   0.07218   0.00000  Uiso   1.00
H416   H     0.40128   0.82209   0.05969   0.00000  Uiso   1.00
C417   C     0.38464   0.83750   0.25365   0.00000  Uiso   1.00
H418   H     0.39503   0.80110   0.25226   0.00000  Uiso   1.00
H419   H     0.40390   0.85760   0.27875   0.00000  Uiso   1.00
H420   H     0.35113   0.83801   0.26593   0.00000  Uiso   1.00
C421   C     0.11535   0.66248   0.07968   0.00000  Uiso   1.00
H422   H     0.10496   0.69888   0.08107   0.00000  Uiso   1.00
H423   H     0.14886   0.66197   0.06740   0.00000  Uiso   1.00
H424   H     0.09609   0.64238   0.05459   0.00000  Uiso   1.00
C425   C     0.14767   0.89995   0.07682   0.00000  Uiso   1.00
H426   H     0.15160   0.93770   0.07530   0.00000  Uiso   1.00
H427   H     0.17459   0.88079   0.06016   0.00000  Uiso   1.00
H428   H     0.11858   0.89197   0.05654   0.00000  Uiso   1.00
C429   C     0.35234   0.60003   0.25651   0.00000  Uiso   1.00
H430   H     0.34841   0.56228   0.25803   0.00000  Uiso   1.00
H431   H     0.38143   0.60801   0.27679   0.00000  Uiso   1.00
H432   H     0.32542   0.61919   0.27317   0.00000  Uiso   1.00
C433   C     0.37774   0.55391   0.09357   0.00000  Uiso   1.00
H434   H     0.37109   0.52023   0.10736   0.00000  Uiso   1.00
H435   H     0.35684   0.55861   0.06417   0.00000  Uiso   1.00
H436   H     0.41153   0.55224   0.08221   0.00000  Uiso   1.00
C437   C     0.12227   0.94608   0.23977   0.00000  Uiso   1.00
H438   H     0.12891   0.97976   0.22597   0.00000  Uiso   1.00
H439   H     0.08847   0.94774   0.25114   0.00000  Uiso   1.00
H440   H     0.14317   0.94138   0.26916   0.00000  Uiso   1.00
C441   C     0.37132   0.93728   0.24716   0.00000  Uiso   1.00
H442   H     0.36497   0.97326   0.23834   0.00000  Uiso   1.00
H443   H     0.34868   0.92789   0.27363   0.00000  Uiso   1.00
H444   H     0.40423   0.93726   0.26118   0.00000  Uiso   1.00
C445   C     0.12866   0.56270   0.08618   0.00000  Uiso   1.00
H446   H     0.13503   0.52672   0.09501   0.00000  Uiso   1.00
H447   H     0.09574   0.56271   0.07218   0.00000  Uiso   1.00
H448   H     0.15128   0.57209   0.05969   0.00000  Uiso   1.00
C449   C     0.13464   0.58750   0.25365   0.00000  Uiso   1.00
H450   H     0.14503   0.55110   0.25226   0.00000  Uiso   1.00
H451   H     0.15390   0.60760   0.27875   0.00000  Uiso   1.00
H452   H     0.10113   0.58801   0.26593   0.00000  Uiso   1.00
C453   C     0.36535   0.91248   0.07968   0.00000  Uiso   1.00
H454   H     0.35496   0.94888   0.08107   0.00000  Uiso   1.00
H455   H     0.39886   0.91197   0.06740   0.00000  Uiso   1.00
H456   H     0.34609   0.89238   0.05459   0.00000  Uiso   1.00
O457   O     0.54580   0.70419   0.20487   0.00000  Uiso   1.00
O458   O     0.95419   0.79581   0.12846   0.00000  Uiso   1.00
O459   O     0.95419   0.79581   0.20487   0.00000  Uiso   1.00
O460   O     0.54580   0.70419   0.12846   0.00000  Uiso   1.00
O461   O     0.95419   0.70419   0.12846   0.00000  Uiso   1.00
O462   O     0.54580   0.79581   0.20487   0.00000  Uiso   1.00
O463   O     0.54580   0.79581   0.12846   0.00000  Uiso   1.00
O464   O     0.95419   0.70419   0.20487   0.00000  Uiso   1.00
O465   O     0.79580   0.95419   0.20487   0.00000  Uiso   1.00
O466   O     0.70419   0.54581   0.12846   0.00000  Uiso   1.00
O467   O     0.70419   0.54581   0.20487   0.00000  Uiso   1.00
O468   O     0.79580   0.95419   0.12846   0.00000  Uiso   1.00
O469   O     0.70419   0.95419   0.12846   0.00000  Uiso   1.00
O470   O     0.79580   0.54581   0.20487   0.00000  Uiso   1.00
O471   O     0.79580   0.54581   0.12846   0.00000  Uiso   1.00
O472   O     0.70419   0.95419   0.20487   0.00000  Uiso   1.00
C473   C     0.56360   0.69415   0.16602   0.00000  Uiso   1.00
C474   C     0.93640   0.80585   0.16732   0.00000  Uiso   1.00
C475   C     0.93713   0.69316   0.16565   0.00000  Uiso   1.00
C476   C     0.56288   0.80684   0.16768   0.00000  Uiso   1.00
C477   C     0.81360   0.94415   0.16602   0.00000  Uiso   1.00
C478   C     0.68640   0.55585   0.16732   0.00000  Uiso   1.00
C479   C     0.68713   0.94316   0.16565   0.00000  Uiso   1.00
C480   C     0.81288   0.55684   0.16768   0.00000  Uiso   1.00
N481   N     0.50000   0.75000   0.28573   0.00000  Uiso   1.00
N482   N     0.50000   0.75000   0.04760   0.00000  Uiso   1.00
N483   N     0.75000   0.50000   0.28573   0.00000  Uiso   1.00
N484   N     0.75000   0.50000   0.04760   0.00000  Uiso   1.00
Zn485  Zn    0.50000   0.75000   0.21771   0.00000  Uiso   1.00
Zn486  Zn    0.50000   0.75000   0.11563   0.00000  Uiso   1.00
Zn487  Zn    0.75000   0.50000   0.21771   0.00000  Uiso   1.00
Zn488  Zn    0.75000   0.50000   0.11563   0.00000  Uiso   1.00
C489   C     0.50032   0.79060   0.02708   0.00000  Uiso   1.00
C490   C     0.99966   0.70940   0.30626   0.00000  Uiso   1.00
C491   C     0.50217   0.70895   0.02069   0.00000  Uiso   1.00
C492   C     0.99783   0.79105   0.31265   0.00000  Uiso   1.00
C493   C     0.75032   0.54060   0.02708   0.00000  Uiso   1.00
C494   C     0.74966   0.95940   0.30626   0.00000  Uiso   1.00
C495   C     0.75217   0.95895   0.02069   0.00000  Uiso   1.00
C496   C     0.74783   0.54105   0.31265   0.00000  Uiso   1.00
C497   C     0.89121   0.63515   0.12426   0.00000  Uiso   1.00
C498   C     0.60879   0.86484   0.20908   0.00000  Uiso   1.00
C499   C     0.62191   0.84284   0.12948   0.00000  Uiso   1.00
C500   C     0.87809   0.65715   0.20385   0.00000  Uiso   1.00
C501   C     0.61887   0.65319   0.20632   0.00000  Uiso   1.00
C502   C     0.88111   0.84679   0.12701   0.00000  Uiso   1.00
C503   C     0.88597   0.85910   0.20882   0.00000  Uiso   1.00
C504   C     0.61402   0.64088   0.12452   0.00000  Uiso   1.00
C505   C     0.64121   0.88515   0.12426   0.00000  Uiso   1.00
C506   C     0.85879   0.61484   0.20908   0.00000  Uiso   1.00
C507   C     0.87191   0.59284   0.12948   0.00000  Uiso   1.00
C508   C     0.62809   0.90715   0.20385   0.00000  Uiso   1.00
C509   C     0.86887   0.90319   0.20632   0.00000  Uiso   1.00
C510   C     0.63111   0.59679   0.12701   0.00000  Uiso   1.00
C511   C     0.63597   0.60910   0.20882   0.00000  Uiso   1.00
C512   C     0.86402   0.89088   0.12452   0.00000  Uiso   1.00
C513   C     0.60069   0.83583   0.17005   0.00000  Uiso   1.00
C514   C     0.89932   0.66416   0.16328   0.00000  Uiso   1.00
C515   C     0.89784   0.83427   0.16847   0.00000  Uiso   1.00
C516   C     0.60215   0.66572   0.16487   0.00000  Uiso   1.00
C517   C     0.85069   0.58583   0.17005   0.00000  Uiso   1.00
C518   C     0.64932   0.91416   0.16328   0.00000  Uiso   1.00
C519   C     0.64784   0.58427   0.16847   0.00000  Uiso   1.00
C520   C     0.85215   0.91572   0.16487   0.00000  Uiso   1.00
N521   N     0.50841   0.83291   0.05328   0.00000  Uiso   1.00
O522   O     0.97726   0.85478   0.07435   0.00000  Uiso   1.00
O523   O     0.54273   0.85589   0.04504   0.00000  Uiso   1.00
N524   N     0.99155   0.66709   0.28006   0.00000  Uiso   1.00
O525   O     0.52266   0.64522   0.25894   0.00000  Uiso   1.00
O526   O     0.95725   0.64411   0.28837   0.00000  Uiso   1.00
N527   N     0.51134   0.66495   0.03905   0.00000  Uiso   1.00
O528   O     0.99734   0.65458   0.07784   0.00000  Uiso   1.00
O529   O     0.53119   0.63254   0.01488   0.00000  Uiso   1.00
N530   N     0.98867   0.83505   0.29428   0.00000  Uiso   1.00
O531   O     0.50267   0.84542   0.25549   0.00000  Uiso   1.00
O532   O     0.96881   0.86746   0.31844   0.00000  Uiso   1.00
N533   N     0.75841   0.58291   0.05328   0.00000  Uiso   1.00
O534   O     0.72726   0.60478   0.07435   0.00000  Uiso   1.00
O535   O     0.79273   0.60589   0.04504   0.00000  Uiso   1.00
N536   N     0.74155   0.91709   0.28006   0.00000  Uiso   1.00
O537   O     0.77266   0.89522   0.25895   0.00000  Uiso   1.00
O538   O     0.70725   0.89411   0.28837   0.00000  Uiso   1.00
N539   N     0.76134   0.91495   0.03905   0.00000  Uiso   1.00
O540   O     0.74734   0.90458   0.07784   0.00000  Uiso   1.00
O541   O     0.78119   0.88254   0.01488   0.00000  Uiso   1.00
N542   N     0.73867   0.58505   0.29428   0.00000  Uiso   1.00
O543   O     0.75267   0.59542   0.25549   0.00000  Uiso   1.00
O544   O     0.71881   0.61746   0.31844   0.00000  Uiso   1.00
C545   C     0.89767   0.64995   0.07682   0.00000  Uiso   1.00
H546   H     0.90160   0.68770   0.07530   0.00000  Uiso   1.00
H547   H     0.92459   0.63079   0.06016   0.00000  Uiso   1.00
H548   H     0.86858   0.64197   0.05654   0.00000  Uiso   1.00
C549   C     0.60234   0.85003   0.25651   0.00000  Uiso   1.00
H550   H     0.59841   0.81228   0.25803   0.00000  Uiso   1.00
H551   H     0.63143   0.85801   0.27679   0.00000  Uiso   1.00
H552   H     0.57542   0.86919   0.27317   0.00000  Uiso   1.00
C553   C     0.62774   0.80391   0.09357   0.00000  Uiso   1.00
H554   H     0.62109   0.77023   0.10737   0.00000  Uiso   1.00
H555   H     0.60684   0.80861   0.06417   0.00000  Uiso   1.00
H556   H     0.66153   0.80224   0.08221   0.00000  Uiso   1.00
C557   C     0.87227   0.69608   0.23977   0.00000  Uiso   1.00
H558   H     0.87891   0.72976   0.22597   0.00000  Uiso   1.00
H559   H     0.83847   0.69774   0.25113   0.00000  Uiso   1.00
H560   H     0.89317   0.69138   0.26916   0.00000  Uiso   1.00
C561   C     0.62132   0.68728   0.24716   0.00000  Uiso   1.00
H562   H     0.61497   0.72326   0.23834   0.00000  Uiso   1.00
H563   H     0.59868   0.67789   0.27363   0.00000  Uiso   1.00
H564   H     0.65423   0.68726   0.26118   0.00000  Uiso   1.00
C565   C     0.87866   0.81270   0.08618   0.00000  Uiso   1.00
H566   H     0.88503   0.77672   0.09501   0.00000  Uiso   1.00
H567   H     0.84574   0.81271   0.07218   0.00000  Uiso   1.00
H568   H     0.90128   0.82209   0.05969   0.00000  Uiso   1.00
C569   C     0.88464   0.83750   0.25365   0.00000  Uiso   1.00
H570   H     0.89503   0.80110   0.25226   0.00000  Uiso   1.00
H571   H     0.90390   0.85760   0.27875   0.00000  Uiso   1.00
H572   H     0.85113   0.83801   0.26593   0.00000  Uiso   1.00
C573   C     0.61535   0.66248   0.07968   0.00000  Uiso   1.00
H574   H     0.60496   0.69888   0.08107   0.00000  Uiso   1.00
H575   H     0.64886   0.66197   0.06740   0.00000  Uiso   1.00
H576   H     0.59609   0.64238   0.05459   0.00000  Uiso   1.00
C577   C     0.64767   0.89995   0.07682   0.00000  Uiso   1.00
H578   H     0.65160   0.93770   0.07530   0.00000  Uiso   1.00
H579   H     0.67459   0.88079   0.06016   0.00000  Uiso   1.00
H580   H     0.61858   0.89197   0.05654   0.00000  Uiso   1.00
C581   C     0.85234   0.60003   0.25651   0.00000  Uiso   1.00
H582   H     0.84841   0.56228   0.25803   0.00000  Uiso   1.00
H583   H     0.88143   0.60801   0.27679   0.00000  Uiso   1.00
H584   H     0.82542   0.61919   0.27317   0.00000  Uiso   1.00
C585   C     0.87774   0.55391   0.09357   0.00000  Uiso   1.00
H586   H     0.87109   0.52023   0.10736   0.00000  Uiso   1.00
H587   H     0.85684   0.55861   0.06417   0.00000  Uiso   1.00
H588   H     0.91153   0.55224   0.08221   0.00000  Uiso   1.00
C589   C     0.62227   0.94608   0.23977   0.00000  Uiso   1.00
H590   H     0.62891   0.97976   0.22597   0.00000  Uiso   1.00
H591   H     0.58847   0.94774   0.25114   0.00000  Uiso   1.00
H592   H     0.64317   0.94138   0.26916   0.00000  Uiso   1.00
C593   C     0.87132   0.93728   0.24716   0.00000  Uiso   1.00
H594   H     0.86497   0.97326   0.23834   0.00000  Uiso   1.00
H595   H     0.84868   0.92789   0.27363   0.00000  Uiso   1.00
H596   H     0.90423   0.93726   0.26118   0.00000  Uiso   1.00
C597   C     0.62866   0.56270   0.08618   0.00000  Uiso   1.00
H598   H     0.63503   0.52672   0.09501   0.00000  Uiso   1.00
H599   H     0.59574   0.56271   0.07218   0.00000  Uiso   1.00
H600   H     0.65128   0.57209   0.05969   0.00000  Uiso   1.00
C601   C     0.63464   0.58750   0.25365   0.00000  Uiso   1.00
H602   H     0.64503   0.55110   0.25226   0.00000  Uiso   1.00
H603   H     0.65390   0.60760   0.27875   0.00000  Uiso   1.00
H604   H     0.60113   0.58801   0.26593   0.00000  Uiso   1.00
C605   C     0.86535   0.91248   0.07968   0.00000  Uiso   1.00
H606   H     0.85496   0.94888   0.08107   0.00000  Uiso   1.00
H607   H     0.89886   0.91197   0.06740   0.00000  Uiso   1.00
H608   H     0.84609   0.89238   0.05459   0.00000  Uiso   1.00
O609   O     0.04580   0.20419   0.53821   0.00000  Uiso   1.00
O610   O     0.45419   0.29581   0.46179   0.00000  Uiso   1.00
O611   O     0.45419   0.29581   0.53821   0.00000  Uiso   1.00
O612   O     0.04580   0.20419   0.46179   0.00000  Uiso   1.00
O613   O     0.45419   0.20419   0.46179   0.00000  Uiso   1.00
O614   O     0.04580   0.29581   0.53821   0.00000  Uiso   1.00
O615   O     0.04580   0.29581   0.46179   0.00000  Uiso   1.00
O616   O     0.45419   0.20419   0.53821   0.00000  Uiso   1.00
O617   O     0.29580   0.45419   0.53821   0.00000  Uiso   1.00
O618   O     0.20419   0.04581   0.46179   0.00000  Uiso   1.00
O619   O     0.20419   0.04581   0.53821   0.00000  Uiso   1.00
O620   O     0.29580   0.45419   0.46179   0.00000  Uiso   1.00
O621   O     0.20419   0.45419   0.46179   0.00000  Uiso   1.00
O622   O     0.29580   0.04581   0.53821   0.00000  Uiso   1.00
O623   O     0.29580   0.04581   0.46179   0.00000  Uiso   1.00
O624   O     0.20419   0.45419   0.53821   0.00000  Uiso   1.00
C625   C     0.06360   0.19415   0.49935   0.00000  Uiso   1.00
C626   C     0.43640   0.30585   0.50065   0.00000  Uiso   1.00
C627   C     0.43713   0.19316   0.49898   0.00000  Uiso   1.00
C628   C     0.06288   0.30684   0.50102   0.00000  Uiso   1.00
C629   C     0.31360   0.44415   0.49935   0.00000  Uiso   1.00
C630   C     0.18640   0.05585   0.50065   0.00000  Uiso   1.00
C631   C     0.18713   0.44316   0.49898   0.00000  Uiso   1.00
C632   C     0.31288   0.05684   0.50102   0.00000  Uiso   1.00
N633   N    -0.00000   0.25000   0.61907   0.00000  Uiso   1.00
N634   N    -0.00000   0.25000   0.38093   0.00000  Uiso   1.00
N635   N     0.25000  -0.00000   0.61907   0.00000  Uiso   1.00
N636   N     0.25000   0.00000   0.38093   0.00000  Uiso   1.00
Zn637  Zn   -0.00000   0.25000   0.55104   0.00000  Uiso   1.00
Zn638  Zn   -0.00000   0.25000   0.44896   0.00000  Uiso   1.00
Zn639  Zn    0.25000  -0.00000   0.55104   0.00000  Uiso   1.00
Zn640  Zn    0.25000  -0.00000   0.44896   0.00000  Uiso   1.00
C641   C     0.00032   0.29060   0.36041   0.00000  Uiso   1.00
C642   C     0.49966   0.20940   0.63959   0.00000  Uiso   1.00
C643   C     0.00217   0.20895   0.35402   0.00000  Uiso   1.00
C644   C     0.49783   0.29105   0.64598   0.00000  Uiso   1.00
C645   C     0.25032   0.04060   0.36041   0.00000  Uiso   1.00
C646   C     0.24966   0.45940   0.63959   0.00000  Uiso   1.00
C647   C     0.25217   0.45895   0.35402   0.00000  Uiso   1.00
C648   C     0.24783   0.04105   0.64598   0.00000  Uiso   1.00
C649   C     0.39121   0.13515   0.45759   0.00000  Uiso   1.00
C650   C     0.10879   0.36484   0.54241   0.00000  Uiso   1.00
C651   C     0.12191   0.34284   0.46282   0.00000  Uiso   1.00
C652   C     0.37809   0.15715   0.53718   0.00000  Uiso   1.00
C653   C     0.11887   0.15319   0.53966   0.00000  Uiso   1.00
C654   C     0.38111   0.34679   0.46035   0.00000  Uiso   1.00
C655   C     0.38597   0.35910   0.54215   0.00000  Uiso   1.00
C656   C     0.11402   0.14088   0.45785   0.00000  Uiso   1.00
C657   C     0.14121   0.38515   0.45759   0.00000  Uiso   1.00
C658   C     0.35879   0.11484   0.54241   0.00000  Uiso   1.00
C659   C     0.37191   0.09284   0.46282   0.00000  Uiso   1.00
C660   C     0.12809   0.40715   0.53718   0.00000  Uiso   1.00
C661   C     0.36887   0.40319   0.53966   0.00000  Uiso   1.00
C662   C     0.13111   0.09679   0.46035   0.00000  Uiso   1.00
C663   C     0.13597   0.10910   0.54215   0.00000  Uiso   1.00
C664   C     0.36402   0.39088   0.45785   0.00000  Uiso   1.00
C665   C     0.10069   0.33583   0.50338   0.00000  Uiso   1.00
C666   C     0.39932   0.16416   0.49662   0.00000  Uiso   1.00
C667   C     0.39784   0.33427   0.50180   0.00000  Uiso   1.00
C668   C     0.10215   0.16572   0.49820   0.00000  Uiso   1.00
C669   C     0.35069   0.08583   0.50338   0.00000  Uiso   1.00
C670   C     0.14932   0.41416   0.49662   0.00000  Uiso   1.00
C671   C     0.14784   0.08427   0.50180   0.00000  Uiso   1.00
C672   C     0.35215   0.41572   0.49820   0.00000  Uiso   1.00
N673   N     0.00841   0.33291   0.38662   0.00000  Uiso   1.00
O674   O     0.47726   0.35478   0.40768   0.00000  Uiso   1.00
O675   O     0.04273   0.35589   0.37837   0.00000  Uiso   1.00
N676   N     0.49155   0.16709   0.61340   0.00000  Uiso   1.00
O677   O     0.02266   0.14522   0.59228   0.00000  Uiso   1.00
O678   O     0.45725   0.14411   0.62171   0.00000  Uiso   1.00
N679   N     0.01134   0.16495   0.37238   0.00000  Uiso   1.00
O680   O     0.49734   0.15458   0.41118   0.00000  Uiso   1.00
O681   O     0.03119   0.13254   0.34821   0.00000  Uiso   1.00
N682   N     0.48867   0.33505   0.62762   0.00000  Uiso   1.00
O683   O     0.00267   0.34542   0.58882   0.00000  Uiso   1.00
O684   O     0.46881   0.36746   0.65177   0.00000  Uiso   1.00
N685   N     0.25841   0.08291   0.38662   0.00000  Uiso   1.00
O686   O     0.22726   0.10478   0.40768   0.00000  Uiso   1.00
O687   O     0.29273   0.10589   0.37837   0.00000  Uiso   1.00
N688   N     0.24155   0.41709   0.61340   0.00000  Uiso   1.00
O689   O     0.27266   0.39522   0.59228   0.00000  Uiso   1.00
O690   O     0.20725   0.39411   0.62171   0.00000  Uiso   1.00
N691   N     0.26134   0.41495   0.37238   0.00000  Uiso   1.00
O692   O     0.24734   0.40458   0.41118   0.00000  Uiso   1.00
O693   O     0.28119   0.38254   0.34821   0.00000  Uiso   1.00
N694   N     0.23867   0.08505   0.62762   0.00000  Uiso   1.00
O695   O     0.25267   0.09542   0.58882   0.00000  Uiso   1.00
O696   O     0.21881   0.11746   0.65177   0.00000  Uiso   1.00
C697   C     0.39767   0.14995   0.41015   0.00000  Uiso   1.00
H698   H     0.40160   0.18770   0.40863   0.00000  Uiso   1.00
H699   H     0.42459   0.13079   0.39350   0.00000  Uiso   1.00
H700   H     0.36858   0.14197   0.38987   0.00000  Uiso   1.00
C701   C     0.10234   0.35003   0.58985   0.00000  Uiso   1.00
H702   H     0.09841   0.31228   0.59137   0.00000  Uiso   1.00
H703   H     0.13143   0.35801   0.61012   0.00000  Uiso   1.00
H704   H     0.07542   0.36919   0.60651   0.00000  Uiso   1.00
C705   C     0.12774   0.30391   0.42690   0.00000  Uiso   1.00
H706   H     0.12109   0.27023   0.44070   0.00000  Uiso   1.00
H707   H     0.10684   0.30861   0.39751   0.00000  Uiso   1.00
H708   H     0.16153   0.30224   0.41554   0.00000  Uiso   1.00
C709   C     0.37227   0.19608   0.57310   0.00000  Uiso   1.00
H710   H     0.37891   0.22976   0.55930   0.00000  Uiso   1.00
H711   H     0.33847   0.19774   0.58447   0.00000  Uiso   1.00
H712   H     0.39317   0.19138   0.60249   0.00000  Uiso   1.00
C713   C     0.12132   0.18728   0.58050   0.00000  Uiso   1.00
H714   H     0.11497   0.22326   0.57167   0.00000  Uiso   1.00
H715   H     0.09868   0.17789   0.60697   0.00000  Uiso   1.00
H716   H     0.15423   0.18726   0.59452   0.00000  Uiso   1.00
C717   C     0.37866   0.31270   0.41951   0.00000  Uiso   1.00
H718   H     0.38503   0.27672   0.42834   0.00000  Uiso   1.00
H719   H     0.34574   0.31271   0.40551   0.00000  Uiso   1.00
H720   H     0.40128   0.32209   0.39303   0.00000  Uiso   1.00
C721   C     0.38464   0.33750   0.58698   0.00000  Uiso   1.00
H722   H     0.39503   0.30110   0.58559   0.00000  Uiso   1.00
H723   H     0.40390   0.35760   0.61208   0.00000  Uiso   1.00
H724   H     0.35113   0.33801   0.59926   0.00000  Uiso   1.00
C725   C     0.11535   0.16248   0.41302   0.00000  Uiso   1.00
H726   H     0.10496   0.19888   0.41440   0.00000  Uiso   1.00
H727   H     0.14886   0.16197   0.40074   0.00000  Uiso   1.00
H728   H     0.09609   0.14238   0.38792   0.00000  Uiso   1.00
C729   C     0.14767   0.39995   0.41015   0.00000  Uiso   1.00
H730   H     0.15160   0.43770   0.40863   0.00000  Uiso   1.00
H731   H     0.17459   0.38079   0.39350   0.00000  Uiso   1.00
H732   H     0.11858   0.39197   0.38987   0.00000  Uiso   1.00
C733   C     0.35234   0.10003   0.58985   0.00000  Uiso   1.00
H734   H     0.34841   0.06228   0.59137   0.00000  Uiso   1.00
H735   H     0.38143   0.10801   0.61012   0.00000  Uiso   1.00
H736   H     0.32542   0.11919   0.60651   0.00000  Uiso   1.00
C737   C     0.37774   0.05391   0.42690   0.00000  Uiso   1.00
H738   H     0.37109   0.02023   0.44070   0.00000  Uiso   1.00
H739   H     0.35684   0.05861   0.39751   0.00000  Uiso   1.00
H740   H     0.41153   0.05224   0.41554   0.00000  Uiso   1.00
C741   C     0.12227   0.44608   0.57310   0.00000  Uiso   1.00
H742   H     0.12891   0.47976   0.55930   0.00000  Uiso   1.00
H743   H     0.08847   0.44774   0.58447   0.00000  Uiso   1.00
H744   H     0.14317   0.44138   0.60249   0.00000  Uiso   1.00
C745   C     0.37132   0.43728   0.58050   0.00000  Uiso   1.00
H746   H     0.36497   0.47326   0.57167   0.00000  Uiso   1.00
H747   H     0.34868   0.42789   0.60697   0.00000  Uiso   1.00
H748   H     0.40423   0.43726   0.59452   0.00000  Uiso   1.00
C749   C     0.12866   0.06270   0.41951   0.00000  Uiso   1.00
H750   H     0.13503   0.02672   0.42834   0.00000  Uiso   1.00
H751   H     0.09574   0.06271   0.40551   0.00000  Uiso   1.00
H752   H     0.15128   0.07209   0.39303   0.00000  Uiso   1.00
C753   C     0.13464   0.08750   0.58698   0.00000  Uiso   1.00
H754   H     0.14503   0.05110   0.58559   0.00000  Uiso   1.00
H755   H     0.15390   0.10760   0.61208   0.00000  Uiso   1.00
H756   H     0.10113   0.08801   0.59926   0.00000  Uiso   1.00
C757   C     0.36535   0.41248   0.41302   0.00000  Uiso   1.00
H758   H     0.35496   0.44888   0.41440   0.00000  Uiso   1.00
H759   H     0.39886   0.41197   0.40074   0.00000  Uiso   1.00
H760   H     0.34609   0.39238   0.38792   0.00000  Uiso   1.00
O761   O     0.54580   0.20419   0.53821   0.00000  Uiso   1.00
O762   O     0.95419   0.29581   0.46179   0.00000  Uiso   1.00
O763   O     0.95419   0.29581   0.53821   0.00000  Uiso   1.00
O764   O     0.54580   0.20419   0.46179   0.00000  Uiso   1.00
O765   O     0.95419   0.20419   0.46179   0.00000  Uiso   1.00
O766   O     0.54580   0.29581   0.53821   0.00000  Uiso   1.00
O767   O     0.54580   0.29581   0.46179   0.00000  Uiso   1.00
O768   O     0.95419   0.20419   0.53821   0.00000  Uiso   1.00
O769   O     0.79580   0.45419   0.53821   0.00000  Uiso   1.00
O770   O     0.70419   0.04581   0.46179   0.00000  Uiso   1.00
O771   O     0.70419   0.04581   0.53821   0.00000  Uiso   1.00
O772   O     0.79580   0.45419   0.46179   0.00000  Uiso   1.00
O773   O     0.70419   0.45419   0.46179   0.00000  Uiso   1.00
O774   O     0.79580   0.04581   0.53821   0.00000  Uiso   1.00
O775   O     0.79580   0.04581   0.46179   0.00000  Uiso   1.00
O776   O     0.70419   0.45419   0.53821   0.00000  Uiso   1.00
C777   C     0.56360   0.19415   0.49935   0.00000  Uiso   1.00
C778   C     0.93640   0.30585   0.50065   0.00000  Uiso   1.00
C779   C     0.93713   0.19316   0.49898   0.00000  Uiso   1.00
C780   C     0.56288   0.30684   0.50102   0.00000  Uiso   1.00
C781   C     0.81360   0.44415   0.49935   0.00000  Uiso   1.00
C782   C     0.68640   0.05585   0.50065   0.00000  Uiso   1.00
C783   C     0.68713   0.44316   0.49898   0.00000  Uiso   1.00
C784   C     0.81288   0.05684   0.50102   0.00000  Uiso   1.00
N785   N     0.50000   0.25000   0.61907   0.00000  Uiso   1.00
N786   N     0.50000   0.25000   0.38093   0.00000  Uiso   1.00
N787   N     0.75000  -0.00000   0.61907   0.00000  Uiso   1.00
N788   N     0.75000   0.00000   0.38093   0.00000  Uiso   1.00
Zn789  Zn    0.50000   0.25000   0.55104   0.00000  Uiso   1.00
Zn790  Zn    0.50000   0.25000   0.44896   0.00000  Uiso   1.00
Zn791  Zn    0.75000  -0.00000   0.55104   0.00000  Uiso   1.00
Zn792  Zn    0.75000  -0.00000   0.44896   0.00000  Uiso   1.00
C793   C     0.50032   0.29060   0.36041   0.00000  Uiso   1.00
C794   C     0.99966   0.20940   0.63959   0.00000  Uiso   1.00
C795   C     0.50217   0.20895   0.35402   0.00000  Uiso   1.00
C796   C     0.99783   0.29105   0.64598   0.00000  Uiso   1.00
C797   C     0.75032   0.04060   0.36041   0.00000  Uiso   1.00
C798   C     0.74966   0.45940   0.63959   0.00000  Uiso   1.00
C799   C     0.75217   0.45895   0.35402   0.00000  Uiso   1.00
C800   C     0.74783   0.04105   0.64598   0.00000  Uiso   1.00
C801   C     0.89121   0.13515   0.45759   0.00000  Uiso   1.00
C802   C     0.60879   0.36484   0.54241   0.00000  Uiso   1.00
C803   C     0.62191   0.34284   0.46282   0.00000  Uiso   1.00
C804   C     0.87809   0.15715   0.53718   0.00000  Uiso   1.00
C805   C     0.61887   0.15319   0.53966   0.00000  Uiso   1.00
C806   C     0.88111   0.34679   0.46035   0.00000  Uiso   1.00
C807   C     0.88597   0.35910   0.54215   0.00000  Uiso   1.00
C808   C     0.61402   0.14088   0.45785   0.00000  Uiso   1.00
C809   C     0.64121   0.38515   0.45759   0.00000  Uiso   1.00
C810   C     0.85879   0.11484   0.54241   0.00000  Uiso   1.00
C811   C     0.87191   0.09284   0.46282   0.00000  Uiso   1.00
C812   C     0.62809   0.40715   0.53718   0.00000  Uiso   1.00
C813   C     0.86887   0.40319   0.53966   0.00000  Uiso   1.00
C814   C     0.63111   0.09679   0.46035   0.00000  Uiso   1.00
C815   C     0.63597   0.10910   0.54215   0.00000  Uiso   1.00
C816   C     0.86402   0.39088   0.45785   0.00000  Uiso   1.00
C817   C     0.60069   0.33583   0.50338   0.00000  Uiso   1.00
C818   C     0.89932   0.16416   0.49662   0.00000  Uiso   1.00
C819   C     0.89784   0.33427   0.50180   0.00000  Uiso   1.00
C820   C     0.60215   0.16572   0.49820   0.00000  Uiso   1.00
C821   C     0.85069   0.08583   0.50338   0.00000  Uiso   1.00
C822   C     0.64932   0.41416   0.49662   0.00000  Uiso   1.00
C823   C     0.64784   0.08427   0.50180   0.00000  Uiso   1.00
C824   C     0.85215   0.41572   0.49820   0.00000  Uiso   1.00
N825   N     0.50841   0.33291   0.38662   0.00000  Uiso   1.00
O826   O     0.97726   0.35478   0.40768   0.00000  Uiso   1.00
O827   O     0.54273   0.35589   0.37837   0.00000  Uiso   1.00
N828   N     0.99155   0.16709   0.61340   0.00000  Uiso   1.00
O829   O     0.52266   0.14522   0.59228   0.00000  Uiso   1.00
O830   O     0.95725   0.14411   0.62171   0.00000  Uiso   1.00
N831   N     0.51134   0.16495   0.37238   0.00000  Uiso   1.00
O832   O     0.99734   0.15458   0.41118   0.00000  Uiso   1.00
O833   O     0.53119   0.13254   0.34821   0.00000  Uiso   1.00
N834   N     0.98867   0.33505   0.62762   0.00000  Uiso   1.00
O835   O     0.50267   0.34542   0.58882   0.00000  Uiso   1.00
O836   O     0.96881   0.36746   0.65177   0.00000  Uiso   1.00
N837   N     0.75841   0.08291   0.38662   0.00000  Uiso   1.00
O838   O     0.72726   0.10478   0.40768   0.00000  Uiso   1.00
O839   O     0.79273   0.10589   0.37837   0.00000  Uiso   1.00
N840   N     0.74155   0.41709   0.61340   0.00000  Uiso   1.00
O841   O     0.77266   0.39522   0.59228   0.00000  Uiso   1.00
O842   O     0.70725   0.39411   0.62171   0.00000  Uiso   1.00
N843   N     0.76134   0.41495   0.37238   0.00000  Uiso   1.00
O844   O     0.74734   0.40458   0.41118   0.00000  Uiso   1.00
O845   O     0.78119   0.38254   0.34821   0.00000  Uiso   1.00
N846   N     0.73867   0.08505   0.62762   0.00000  Uiso   1.00
O847   O     0.75267   0.09542   0.58882   0.00000  Uiso   1.00
O848   O     0.71881   0.11746   0.65177   0.00000  Uiso   1.00
C849   C     0.89767   0.14995   0.41015   0.00000  Uiso   1.00
H850   H     0.90160   0.18770   0.40863   0.00000  Uiso   1.00
H851   H     0.92459   0.13079   0.39350   0.00000  Uiso   1.00
H852   H     0.86858   0.14197   0.38987   0.00000  Uiso   1.00
C853   C     0.60234   0.35003   0.58985   0.00000  Uiso   1.00
H854   H     0.59841   0.31228   0.59137   0.00000  Uiso   1.00
H855   H     0.63143   0.35801   0.61012   0.00000  Uiso   1.00
H856   H     0.57542   0.36919   0.60651   0.00000  Uiso   1.00
C857   C     0.62774   0.30391   0.42690   0.00000  Uiso   1.00
H858   H     0.62109   0.27023   0.44070   0.00000  Uiso   1.00
H859   H     0.60684   0.30861   0.39751   0.00000  Uiso   1.00
H860   H     0.66153   0.30224   0.41554   0.00000  Uiso   1.00
C861   C     0.87227   0.19608   0.57310   0.00000  Uiso   1.00
H862   H     0.87891   0.22976   0.55930   0.00000  Uiso   1.00
H863   H     0.83847   0.19774   0.58447   0.00000  Uiso   1.00
H864   H     0.89317   0.19138   0.60249   0.00000  Uiso   1.00
C865   C     0.62132   0.18728   0.58050   0.00000  Uiso   1.00
H866   H     0.61497   0.22326   0.57167   0.00000  Uiso   1.00
H867   H     0.59868   0.17789   0.60697   0.00000  Uiso   1.00
H868   H     0.65423   0.18726   0.59452   0.00000  Uiso   1.00
C869   C     0.87866   0.31270   0.41951   0.00000  Uiso   1.00
H870   H     0.88503   0.27672   0.42834   0.00000  Uiso   1.00
H871   H     0.84574   0.31271   0.40551   0.00000  Uiso   1.00
H872   H     0.90128   0.32209   0.39303   0.00000  Uiso   1.00
C873   C     0.88464   0.33750   0.58698   0.00000  Uiso   1.00
H874   H     0.89503   0.30110   0.58559   0.00000  Uiso   1.00
H875   H     0.90390   0.35760   0.61208   0.00000  Uiso   1.00
H876   H     0.85113   0.33801   0.59926   0.00000  Uiso   1.00
C877   C     0.61535   0.16248   0.41302   0.00000  Uiso   1.00
H878   H     0.60496   0.19888   0.41440   0.00000  Uiso   1.00
H879   H     0.64886   0.16197   0.40074   0.00000  Uiso   1.00
H880   H     0.59609   0.14238   0.38792   0.00000  Uiso   1.00
C881   C     0.64767   0.39995   0.41015   0.00000  Uiso   1.00
H882   H     0.65160   0.43770   0.40863   0.00000  Uiso   1.00
H883   H     0.67459   0.38079   0.39350   0.00000  Uiso   1.00
H884   H     0.61858   0.39197   0.38987   0.00000  Uiso   1.00
C885   C     0.85234   0.10003   0.58985   0.00000  Uiso   1.00
H886   H     0.84841   0.06228   0.59137   0.00000  Uiso   1.00
H887   H     0.88143   0.10801   0.61012   0.00000  Uiso   1.00
H888   H     0.82542   0.11919   0.60651   0.00000  Uiso   1.00
C889   C     0.87774   0.05391   0.42690   0.00000  Uiso   1.00
H890   H     0.87109   0.02023   0.44070   0.00000  Uiso   1.00
H891   H     0.85684   0.05861   0.39751   0.00000  Uiso   1.00
H892   H     0.91153   0.05224   0.41554   0.00000  Uiso   1.00
C893   C     0.62227   0.44608   0.57310   0.00000  Uiso   1.00
H894   H     0.62891   0.47976   0.55930   0.00000  Uiso   1.00
H895   H     0.58847   0.44774   0.58447   0.00000  Uiso   1.00
H896   H     0.64317   0.44138   0.60249   0.00000  Uiso   1.00
C897   C     0.87132   0.43728   0.58050   0.00000  Uiso   1.00
H898   H     0.86497   0.47326   0.57167   0.00000  Uiso   1.00
H899   H     0.84868   0.42789   0.60697   0.00000  Uiso   1.00
H900   H     0.90423   0.43726   0.59452   0.00000  Uiso   1.00
C901   C     0.62866   0.06270   0.41951   0.00000  Uiso   1.00
H902   H     0.63503   0.02672   0.42834   0.00000  Uiso   1.00
H903   H     0.59574   0.06271   0.40551   0.00000  Uiso   1.00
H904   H     0.65128   0.07209   0.39303   0.00000  Uiso   1.00
C905   C     0.63464   0.08750   0.58698   0.00000  Uiso   1.00
H906   H     0.64503   0.05110   0.58559   0.00000  Uiso   1.00
H907   H     0.65390   0.10760   0.61208   0.00000  Uiso   1.00
H908   H     0.60113   0.08801   0.59926   0.00000  Uiso   1.00
C909   C     0.86535   0.41248   0.41302   0.00000  Uiso   1.00
H910   H     0.85496   0.44888   0.41440   0.00000  Uiso   1.00
H911   H     0.89886   0.41197   0.40074   0.00000  Uiso   1.00
H912   H     0.84609   0.39238   0.38792   0.00000  Uiso   1.00
O913   O     0.04580   0.70419   0.53821   0.00000  Uiso   1.00
O914   O     0.45419   0.79581   0.46179   0.00000  Uiso   1.00
O915   O     0.45419   0.79581   0.53821   0.00000  Uiso   1.00
O916   O     0.04580   0.70419   0.46179   0.00000  Uiso   1.00
O917   O     0.45419   0.70419   0.46179   0.00000  Uiso   1.00
O918   O     0.04580   0.79581   0.53821   0.00000  Uiso   1.00
O919   O     0.04580   0.79581   0.46179   0.00000  Uiso   1.00
O920   O     0.45419   0.70419   0.53821   0.00000  Uiso   1.00
O921   O     0.29580   0.95419   0.53821   0.00000  Uiso   1.00
O922   O     0.20419   0.54581   0.46179   0.00000  Uiso   1.00
O923   O     0.20419   0.54581   0.53821   0.00000  Uiso   1.00
O924   O     0.29580   0.95419   0.46179   0.00000  Uiso   1.00
O925   O     0.20419   0.95419   0.46179   0.00000  Uiso   1.00
O926   O     0.29580   0.54581   0.53821   0.00000  Uiso   1.00
O927   O     0.29580   0.54581   0.46179   0.00000  Uiso   1.00
O928   O     0.20419   0.95419   0.53821   0.00000  Uiso   1.00
C929   C     0.06360   0.69415   0.49935   0.00000  Uiso   1.00
C930   C     0.43640   0.80585   0.50065   0.00000  Uiso   1.00
C931   C     0.43713   0.69316   0.49898   0.00000  Uiso   1.00
C932   C     0.06288   0.80684   0.50102   0.00000  Uiso   1.00
C933   C     0.31360   0.94415   0.49935   0.00000  Uiso   1.00
C934   C     0.18640   0.55585   0.50065   0.00000  Uiso   1.00
C935   C     0.18713   0.94316   0.49898   0.00000  Uiso   1.00
C936   C     0.31288   0.55684   0.50102   0.00000  Uiso   1.00
N937   N    -0.00000   0.75000   0.61907   0.00000  Uiso   1.00
N938   N    -0.00000   0.75000   0.38093   0.00000  Uiso   1.00
N939   N     0.25000   0.50000   0.61907   0.00000  Uiso   1.00
N940   N     0.25000   0.50000   0.38093   0.00000  Uiso   1.00
Zn941  Zn   -0.00000   0.75000   0.55104   0.00000  Uiso   1.00
Zn942  Zn   -0.00000   0.75000   0.44896   0.00000  Uiso   1.00
Zn943  Zn    0.25000   0.50000   0.55104   0.00000  Uiso   1.00
Zn944  Zn    0.25000   0.50000   0.44896   0.00000  Uiso   1.00
C945   C     0.00032   0.79060   0.36041   0.00000  Uiso   1.00
C946   C     0.49966   0.70940   0.63959   0.00000  Uiso   1.00
C947   C     0.00217   0.70895   0.35402   0.00000  Uiso   1.00
C948   C     0.49783   0.79105   0.64598   0.00000  Uiso   1.00
C949   C     0.25032   0.54060   0.36041   0.00000  Uiso   1.00
C950   C     0.24966   0.95940   0.63959   0.00000  Uiso   1.00
C951   C     0.25217   0.95895   0.35402   0.00000  Uiso   1.00
C952   C     0.24783   0.54105   0.64598   0.00000  Uiso   1.00
C953   C     0.39121   0.63515   0.45759   0.00000  Uiso   1.00
C954   C     0.10879   0.86484   0.54241   0.00000  Uiso   1.00
C955   C     0.12191   0.84284   0.46282   0.00000  Uiso   1.00
C956   C     0.37809   0.65715   0.53718   0.00000  Uiso   1.00
C957   C     0.11887   0.65319   0.53966   0.00000  Uiso   1.00
C958   C     0.38111   0.84679   0.46035   0.00000  Uiso   1.00
C959   C     0.38597   0.85910   0.54215   0.00000  Uiso   1.00
C960   C     0.11402   0.64088   0.45785   0.00000  Uiso   1.00
C961   C     0.14121   0.88515   0.45759   0.00000  Uiso   1.00
C962   C     0.35879   0.61484   0.54241   0.00000  Uiso   1.00
C963   C     0.37191   0.59284   0.46282   0.00000  Uiso   1.00
C964   C     0.12809   0.90715   0.53718   0.00000  Uiso   1.00
C965   C     0.36887   0.90319   0.53966   0.00000  Uiso   1.00
C966   C     0.13111   0.59679   0.46035   0.00000  Uiso   1.00
C967   C     0.13597   0.60910   0.54215   0.00000  Uiso   1.00
C968   C     0.36402   0.89088   0.45785   0.00000  Uiso   1.00
C969   C     0.10069   0.83583   0.50338   0.00000  Uiso   1.00
C970   C     0.39932   0.66416   0.49662   0.00000  Uiso   1.00
C971   C     0.39784   0.83427   0.50180   0.00000  Uiso   1.00
C972   C     0.10215   0.66572   0.49820   0.00000  Uiso   1.00
C973   C     0.35069   0.58583   0.50338   0.00000  Uiso   1.00
C974   C     0.14932   0.91416   0.49662   0.00000  Uiso   1.00
C975   C     0.14784   0.58427   0.50180   0.00000  Uiso   1.00
C976   C     0.35215   0.91572   0.49820   0.00000  Uiso   1.00
N977   N     0.00841   0.83291   0.38662   0.00000  Uiso   1.00
O978   O     0.47726   0.85478   0.40768   0.00000  Uiso   1.00
O979   O     0.04273   0.85589   0.37837   0.00000  Uiso   1.00
N980   N     0.49155   0.66709   0.61340   0.00000  Uiso   1.00
O981   O     0.02266   0.64522   0.59228   0.00000  Uiso   1.00
O982   O     0.45725   0.64411   0.62171   0.00000  Uiso   1.00
N983   N     0.01134   0.66495   0.37238   0.00000  Uiso   1.00
O984   O     0.49734   0.65458   0.41118   0.00000  Uiso   1.00
O985   O     0.03119   0.63254   0.34821   0.00000  Uiso   1.00
N986   N     0.48867   0.83505   0.62762   0.00000  Uiso   1.00
O987   O     0.00267   0.84542   0.58882   0.00000  Uiso   1.00
O988   O     0.46881   0.86746   0.65177   0.00000  Uiso   1.00
N989   N     0.25841   0.58291   0.38662   0.00000  Uiso   1.00
O990   O     0.22726   0.60478   0.40768   0.00000  Uiso   1.00
O991   O     0.29273   0.60589   0.37837   0.00000  Uiso   1.00
N992   N     0.24155   0.91709   0.61340   0.00000  Uiso   1.00
O993   O     0.27266   0.89522   0.59228   0.00000  Uiso   1.00
O994   O     0.20725   0.89411   0.62171   0.00000  Uiso   1.00
N995   N     0.26134   0.91495   0.37238   0.00000  Uiso   1.00
O996   O     0.24734   0.90458   0.41118   0.00000  Uiso   1.00
O997   O     0.28119   0.88254   0.34821   0.00000  Uiso   1.00
N998   N     0.23867   0.58505   0.62762   0.00000  Uiso   1.00
O999   O     0.25267   0.59542   0.58882   0.00000  Uiso   1.00
O1000  O     0.21881   0.61746   0.65177   0.00000  Uiso   1.00
C1001  C     0.39767   0.64995   0.41015   0.00000  Uiso   1.00
H1002  H     0.40160   0.68770   0.40863   0.00000  Uiso   1.00
H1003  H     0.42459   0.63079   0.39350   0.00000  Uiso   1.00
H1004  H     0.36858   0.64197   0.38987   0.00000  Uiso   1.00
C1005  C     0.10234   0.85003   0.58985   0.00000  Uiso   1.00
H1006  H     0.09841   0.81228   0.59137   0.00000  Uiso   1.00
H1007  H     0.13143   0.85801   0.61012   0.00000  Uiso   1.00
H1008  H     0.07542   0.86919   0.60651   0.00000  Uiso   1.00
C1009  C     0.12774   0.80391   0.42690   0.00000  Uiso   1.00
H1010  H     0.12109   0.77023   0.44070   0.00000  Uiso   1.00
H1011  H     0.10684   0.80861   0.39751   0.00000  Uiso   1.00
H1012  H     0.16153   0.80224   0.41554   0.00000  Uiso   1.00
C1013  C     0.37227   0.69608   0.57310   0.00000  Uiso   1.00
H1014  H     0.37891   0.72976   0.55930   0.00000  Uiso   1.00
H1015  H     0.33847   0.69774   0.58447   0.00000  Uiso   1.00
H1016  H     0.39317   0.69138   0.60249   0.00000  Uiso   1.00
C1017  C     0.12132   0.68728   0.58050   0.00000  Uiso   1.00
H1018  H     0.11497   0.72326   0.57167   0.00000  Uiso   1.00
H1019  H     0.09868   0.67789   0.60697   0.00000  Uiso   1.00
H1020  H     0.15423   0.68726   0.59452   0.00000  Uiso   1.00
C1021  C     0.37866   0.81270   0.41951   0.00000  Uiso   1.00
H1022  H     0.38503   0.77672   0.42834   0.00000  Uiso   1.00
H1023  H     0.34574   0.81271   0.40551   0.00000  Uiso   1.00
H1024  H     0.40128   0.82209   0.39303   0.00000  Uiso   1.00
C1025  C     0.38464   0.83750   0.58698   0.00000  Uiso   1.00
H1026  H     0.39503   0.80110   0.58559   0.00000  Uiso   1.00
H1027  H     0.40390   0.85760   0.61208   0.00000  Uiso   1.00
H1028  H     0.35113   0.83801   0.59926   0.00000  Uiso   1.00
C1029  C     0.11535   0.66248   0.41302   0.00000  Uiso   1.00
H1030  H     0.10496   0.69888   0.41440   0.00000  Uiso   1.00
H1031  H     0.14886   0.66197   0.40074   0.00000  Uiso   1.00
H1032  H     0.09609   0.64238   0.38792   0.00000  Uiso   1.00
C1033  C     0.14767   0.89995   0.41015   0.00000  Uiso   1.00
H1034  H     0.15160   0.93770   0.40863   0.00000  Uiso   1.00
H1035  H     0.17459   0.88079   0.39350   0.00000  Uiso   1.00
H1036  H     0.11858   0.89197   0.38987   0.00000  Uiso   1.00
C1037  C     0.35234   0.60003   0.58985   0.00000  Uiso   1.00
H1038  H     0.34841   0.56228   0.59137   0.00000  Uiso   1.00
H1039  H     0.38143   0.60801   0.61012   0.00000  Uiso   1.00
H1040  H     0.32542   0.61919   0.60651   0.00000  Uiso   1.00
C1041  C     0.37774   0.55391   0.42690   0.00000  Uiso   1.00
H1042  H     0.37109   0.52023   0.44070   0.00000  Uiso   1.00
H1043  H     0.35684   0.55861   0.39751   0.00000  Uiso   1.00
H1044  H     0.41153   0.55224   0.41554   0.00000  Uiso   1.00
C1045  C     0.12227   0.94608   0.57310   0.00000  Uiso   1.00
H1046  H     0.12891   0.97976   0.55930   0.00000  Uiso   1.00
H1047  H     0.08847   0.94774   0.58447   0.00000  Uiso   1.00
H1048  H     0.14317   0.94138   0.60249   0.00000  Uiso   1.00
C1049  C     0.37132   0.93728   0.58050   0.00000  Uiso   1.00
H1050  H     0.36497   0.97326   0.57167   0.00000  Uiso   1.00
H1051  H     0.34868   0.92789   0.60697   0.00000  Uiso   1.00
H1052  H     0.40423   0.93726   0.59452   0.00000  Uiso   1.00
C1053  C     0.12866   0.56270   0.41951   0.00000  Uiso   1.00
H1054  H     0.13503   0.52672   0.42834   0.00000  Uiso   1.00
H1055  H     0.09574   0.56271   0.40551   0.00000  Uiso   1.00
H1056  H     0.15128   0.57209   0.39303   0.00000  Uiso   1.00
C1057  C     0.13464   0.58750   0.58698   0.00000  Uiso   1.00
H1058  H     0.14503   0.55110   0.58559   0.00000  Uiso   1.00
H1059  H     0.15390   0.60760   0.61208   0.00000  Uiso   1.00
H1060  H     0.10113   0.58801   0.59926   0.00000  Uiso   1.00
C1061  C     0.36535   0.91248   0.41302   0.00000  Uiso   1.00
H1062  H     0.35496   0.94888   0.41440   0.00000  Uiso   1.00
H1063  H     0.39886   0.91197   0.40074   0.00000  Uiso   1.00
H1064  H     0.34609   0.89238   0.38792   0.00000  Uiso   1.00
O1065  O     0.54580   0.70419   0.53821   0.00000  Uiso   1.00
O1066  O     0.95419   0.79581   0.46179   0.00000  Uiso   1.00
O1067  O     0.95419   0.79581   0.53821   0.00000  Uiso   1.00
O1068  O     0.54580   0.70419   0.46179   0.00000  Uiso   1.00
O1069  O     0.95419   0.70419   0.46179   0.00000  Uiso   1.00
O1070  O     0.54580   0.79581   0.53821   0.00000  Uiso   1.00
O1071  O     0.54580   0.79581   0.46179   0.00000  Uiso   1.00
O1072  O     0.95419   0.70419   0.53821   0.00000  Uiso   1.00
O1073  O     0.79580   0.95419   0.53821   0.00000  Uiso   1.00
O1074  O     0.70419   0.54581   0.46179   0.00000  Uiso   1.00
O1075  O     0.70419   0.54581   0.53821   0.00000  Uiso   1.00
O1076  O     0.79580   0.95419   0.46179   0.00000  Uiso   1.00
O1077  O     0.70419   0.95419   0.46179   0.00000  Uiso   1.00
O1078  O     0.79580   0.54581   0.53821   0.00000  Uiso   1.00
O1079  O     0.79580   0.54581   0.46179   0.00000  Uiso   1.00
O1080  O     0.70419   0.95419   0.53821   0.00000  Uiso   1.00
C1081  C     0.56360   0.69415   0.49935   0.00000  Uiso   1.00
C1082  C     0.93640   0.80585   0.50065   0.00000  Uiso   1.00
C1083  C     0.93713   0.69316   0.49898   0.00000  Uiso   1.00
C1084  C     0.56288   0.80684   0.50102   0.00000  Uiso   1.00
C1085  C     0.81360   0.94415   0.49935   0.00000  Uiso   1.00
C1086  C     0.68640   0.55585   0.50065   0.00000  Uiso   1.00
C1087  C     0.68713   0.94316   0.49898   0.00000  Uiso   1.00
C1088  C     0.81288   0.55684   0.50102   0.00000  Uiso   1.00
N1089  N     0.50000   0.75000   0.61907   0.00000  Uiso   1.00
N1090  N     0.50000   0.75000   0.38093   0.00000  Uiso   1.00
N1091  N     0.75000   0.50000   0.61907   0.00000  Uiso   1.00
N1092  N     0.75000   0.50000   0.38093   0.00000  Uiso   1.00
Zn1093 Zn    0.50000   0.75000   0.55104   0.00000  Uiso   1.00
Zn1094 Zn    0.50000   0.75000   0.44896   0.00000  Uiso   1.00
Zn1095 Zn    0.75000   0.50000   0.55104   0.00000  Uiso   1.00
Zn1096 Zn    0.75000   0.50000   0.44896   0.00000  Uiso   1.00
C1097  C     0.50032   0.79060   0.36041   0.00000  Uiso   1.00
C1098  C     0.99966   0.70940   0.63959   0.00000  Uiso   1.00
C1099  C     0.50217   0.70895   0.35402   0.00000  Uiso   1.00
C1100  C     0.99783   0.79105   0.64598   0.00000  Uiso   1.00
C1101  C     0.75032   0.54060   0.36041   0.00000  Uiso   1.00
C1102  C     0.74966   0.95940   0.63959   0.00000  Uiso   1.00
C1103  C     0.75217   0.95895   0.35402   0.00000  Uiso   1.00
C1104  C     0.74783   0.54105   0.64598   0.00000  Uiso   1.00
C1105  C     0.89121   0.63515   0.45759   0.00000  Uiso   1.00
C1106  C     0.60879   0.86484   0.54241   0.00000  Uiso   1.00
C1107  C     0.62191   0.84284   0.46282   0.00000  Uiso   1.00
C1108  C     0.87809   0.65715   0.53718   0.00000  Uiso   1.00
C1109  C     0.61887   0.65319   0.53966   0.00000  Uiso   1.00
C1110  C     0.88111   0.84679   0.46035   0.00000  Uiso   1.00
C1111  C     0.88597   0.85910   0.54215   0.00000  Uiso   1.00
C1112  C     0.61402   0.64088   0.45785   0.00000  Uiso   1.00
C1113  C     0.64121   0.88515   0.45759   0.00000  Uiso   1.00
C1114  C     0.85879   0.61484   0.54241   0.00000  Uiso   1.00
C1115  C     0.87191   0.59284   0.46282   0.00000  Uiso   1.00
C1116  C     0.62809   0.90715   0.53718   0.00000  Uiso   1.00
C1117  C     0.86887   0.90319   0.53966   0.00000  Uiso   1.00
C1118  C     0.63111   0.59679   0.46035   0.00000  Uiso   1.00
C1119  C     0.63597   0.60910   0.54215   0.00000  Uiso   1.00
C1120  C     0.86402   0.89088   0.45785   0.00000  Uiso   1.00
C1121  C     0.60069   0.83583   0.50338   0.00000  Uiso   1.00
C1122  C     0.89932   0.66416   0.49662   0.00000  Uiso   1.00
C1123  C     0.89784   0.83427   0.50180   0.00000  Uiso   1.00
C1124  C     0.60215   0.66572   0.49820   0.00000  Uiso   1.00
C1125  C     0.85069   0.58583   0.50338   0.00000  Uiso   1.00
C1126  C     0.64932   0.91416   0.49662   0.00000  Uiso   1.00
C1127  C     0.64784   0.58427   0.50180   0.00000  Uiso   1.00
C1128  C     0.85215   0.91572   0.49820   0.00000  Uiso   1.00
N1129  N     0.50841   0.83291   0.38662   0.00000  Uiso   1.00
O1130  O     0.97726   0.85478   0.40768   0.00000  Uiso   1.00
O1131  O     0.54273   0.85589   0.37837   0.00000  Uiso   1.00
N1132  N     0.99155   0.66709   0.61340   0.00000  Uiso   1.00
O1133  O     0.52266   0.64522   0.59228   0.00000  Uiso   1.00
O1134  O     0.95725   0.64411   0.62171   0.00000  Uiso   1.00
N1135  N     0.51134   0.66495   0.37238   0.00000  Uiso   1.00
O1136  O     0.99734   0.65458   0.41118   0.00000  Uiso   1.00
O1137  O     0.53119   0.63254   0.34821   0.00000  Uiso   1.00
N1138  N     0.98867   0.83505   0.62762   0.00000  Uiso   1.00
O1139  O     0.50267   0.84542   0.58882   0.00000  Uiso   1.00
O1140  O     0.96881   0.86746   0.65177   0.00000  Uiso   1.00
N1141  N     0.75841   0.58291   0.38662   0.00000  Uiso   1.00
O1142  O     0.72726   0.60478   0.40768   0.00000  Uiso   1.00
O1143  O     0.79273   0.60589   0.37837   0.00000  Uiso   1.00
N1144  N     0.74155   0.91709   0.61340   0.00000  Uiso   1.00
O1145  O     0.77266   0.89522   0.59228   0.00000  Uiso   1.00
O1146  O     0.70725   0.89411   0.62171   0.00000  Uiso   1.00
N1147  N     0.76134   0.91495   0.37238   0.00000  Uiso   1.00
O1148  O     0.74734   0.90458   0.41118   0.00000  Uiso   1.00
O1149  O     0.78119   0.88254   0.34821   0.00000  Uiso   1.00
N1150  N     0.73867   0.58505   0.62762   0.00000  Uiso   1.00
O1151  O     0.75267   0.59542   0.58882   0.00000  Uiso   1.00
O1152  O     0.71881   0.61746   0.65177   0.00000  Uiso   1.00
C1153  C     0.89767   0.64995   0.41015   0.00000  Uiso   1.00
H1154  H     0.90160   0.68770   0.40863   0.00000  Uiso   1.00
H1155  H     0.92459   0.63079   0.39350   0.00000  Uiso   1.00
H1156  H     0.86858   0.64197   0.38987   0.00000  Uiso   1.00
C1157  C     0.60234   0.85003   0.58985   0.00000  Uiso   1.00
H1158  H     0.59841   0.81228   0.59137   0.00000  Uiso   1.00
H1159  H     0.63143   0.85801   0.61012   0.00000  Uiso   1.00
H1160  H     0.57542   0.86919   0.60651   0.00000  Uiso   1.00
C1161  C     0.62774   0.80391   0.42690   0.00000  Uiso   1.00
H1162  H     0.62109   0.77023   0.44070   0.00000  Uiso   1.00
H1163  H     0.60684   0.80861   0.39751   0.00000  Uiso   1.00
H1164  H     0.66153   0.80224   0.41554   0.00000  Uiso   1.00
C1165  C     0.87227   0.69608   0.57310   0.00000  Uiso   1.00
H1166  H     0.87891   0.72976   0.55930   0.00000  Uiso   1.00
H1167  H     0.83847   0.69774   0.58447   0.00000  Uiso   1.00
H1168  H     0.89317   0.69138   0.60249   0.00000  Uiso   1.00
C1169  C     0.62132   0.68728   0.58050   0.00000  Uiso   1.00
H1170  H     0.61497   0.72326   0.57167   0.00000  Uiso   1.00
H1171  H     0.59868   0.67789   0.60697   0.00000  Uiso   1.00
H1172  H     0.65423   0.68726   0.59452   0.00000  Uiso   1.00
C1173  C     0.87866   0.81270   0.41951   0.00000  Uiso   1.00
H1174  H     0.88503   0.77672   0.42834   0.00000  Uiso   1.00
H1175  H     0.84574   0.81271   0.40551   0.00000  Uiso   1.00
H1176  H     0.90128   0.82209   0.39303   0.00000  Uiso   1.00
C1177  C     0.88464   0.83750   0.58698   0.00000  Uiso   1.00
H1178  H     0.89503   0.80110   0.58559   0.00000  Uiso   1.00
H1179  H     0.90390   0.85760   0.61208   0.00000  Uiso   1.00
H1180  H     0.85113   0.83801   0.59926   0.00000  Uiso   1.00
C1181  C     0.61535   0.66248   0.41302   0.00000  Uiso   1.00
H1182  H     0.60496   0.69888   0.41440   0.00000  Uiso   1.00
H1183  H     0.64886   0.66197   0.40074   0.00000  Uiso   1.00
H1184  H     0.59609   0.64238   0.38792   0.00000  Uiso   1.00
C1185  C     0.64767   0.89995   0.41015   0.00000  Uiso   1.00
H1186  H     0.65160   0.93770   0.40863   0.00000  Uiso   1.00
H1187  H     0.67459   0.88079   0.39350   0.00000  Uiso   1.00
H1188  H     0.61858   0.89197   0.38987   0.00000  Uiso   1.00
C1189  C     0.85234   0.60003   0.58985   0.00000  Uiso   1.00
H1190  H     0.84841   0.56228   0.59137   0.00000  Uiso   1.00
H1191  H     0.88143   0.60801   0.61012   0.00000  Uiso   1.00
H1192  H     0.82542   0.61919   0.60651   0.00000  Uiso   1.00
C1193  C     0.87774   0.55391   0.42690   0.00000  Uiso   1.00
H1194  H     0.87109   0.52023   0.44070   0.00000  Uiso   1.00
H1195  H     0.85684   0.55861   0.39751   0.00000  Uiso   1.00
H1196  H     0.91153   0.55224   0.41554   0.00000  Uiso   1.00
C1197  C     0.62227   0.94608   0.57310   0.00000  Uiso   1.00
H1198  H     0.62891   0.97976   0.55930   0.00000  Uiso   1.00
H1199  H     0.58847   0.94774   0.58447   0.00000  Uiso   1.00
H1200  H     0.64317   0.94138   0.60249   0.00000  Uiso   1.00
C1201  C     0.87132   0.93728   0.58050   0.00000  Uiso   1.00
H1202  H     0.86497   0.97326   0.57167   0.00000  Uiso   1.00
H1203  H     0.84868   0.92789   0.60697   0.00000  Uiso   1.00
H1204  H     0.90423   0.93726   0.59452   0.00000  Uiso   1.00
C1205  C     0.62866   0.56270   0.41951   0.00000  Uiso   1.00
H1206  H     0.63503   0.52672   0.42834   0.00000  Uiso   1.00
H1207  H     0.59574   0.56271   0.40551   0.00000  Uiso   1.00
H1208  H     0.65128   0.57209   0.39303   0.00000  Uiso   1.00
C1209  C     0.63464   0.58750   0.58698   0.00000  Uiso   1.00
H1210  H     0.64503   0.55110   0.58559   0.00000  Uiso   1.00
H1211  H     0.65390   0.60760   0.61208   0.00000  Uiso   1.00
H1212  H     0.60113   0.58801   0.59926   0.00000  Uiso   1.00
C1213  C     0.86535   0.91248   0.41302   0.00000  Uiso   1.00
H1214  H     0.85496   0.94888   0.41440   0.00000  Uiso   1.00
H1215  H     0.89886   0.91197   0.40074   0.00000  Uiso   1.00
H1216  H     0.84609   0.89238   0.38792   0.00000  Uiso   1.00
O1217  O     0.04580   0.20419   0.87154   0.00000  Uiso   1.00
O1218  O     0.45419   0.29581   0.79513   0.00000  Uiso   1.00
O1219  O     0.45419   0.29581   0.87154   0.00000  Uiso   1.00
O1220  O     0.04580   0.20419   0.79513   0.00000  Uiso   1.00
O1221  O     0.45419   0.20419   0.79513   0.00000  Uiso   1.00
O1222  O     0.04580   0.29581   0.87154   0.00000  Uiso   1.00
O1223  O     0.04580   0.29581   0.79513   0.00000  Uiso   1.00
O1224  O     0.45419   0.20419   0.87154   0.00000  Uiso   1.00
O1225  O     0.29580   0.45419   0.87154   0.00000  Uiso   1.00
O1226  O     0.20419   0.04581   0.79513   0.00000  Uiso   1.00
O1227  O     0.20419   0.04581   0.87154   0.00000  Uiso   1.00
O1228  O     0.29580   0.45419   0.79513   0.00000  Uiso   1.00
O1229  O     0.20419   0.45419   0.79513   0.00000  Uiso   1.00
O1230  O     0.29580   0.04581   0.87154   0.00000  Uiso   1.00
O1231  O     0.29580   0.04581   0.79513   0.00000  Uiso   1.00
O1232  O     0.20419   0.45419   0.87154   0.00000  Uiso   1.00
C1233  C     0.06360   0.19415   0.83268   0.00000  Uiso   1.00
C1234  C     0.43640   0.30585   0.83398   0.00000  Uiso   1.00
C1235  C     0.43713   0.19316   0.83232   0.00000  Uiso   1.00
C1236  C     0.06288   0.30684   0.83435   0.00000  Uiso   1.00
C1237  C     0.31360   0.44415   0.83268   0.00000  Uiso   1.00
C1238  C     0.18640   0.05585   0.83398   0.00000  Uiso   1.00
C1239  C     0.18713   0.44316   0.83232   0.00000  Uiso   1.00
C1240  C     0.31288   0.05684   0.83435   0.00000  Uiso   1.00
N1241  N    -0.00000   0.25000   0.95240   0.00000  Uiso   1.00
N1242  N    -0.00000   0.25000   0.71427   0.00000  Uiso   1.00
N1243  N     0.25000  -0.00000   0.95240   0.00000  Uiso   1.00
N1244  N     0.25000   0.00000   0.71427   0.00000  Uiso   1.00
Zn1245 Zn   -0.00000   0.25000   0.88437   0.00000  Uiso   1.00
Zn1246 Zn   -0.00000   0.25000   0.78229   0.00000  Uiso   1.00
Zn1247 Zn    0.25000  -0.00000   0.88437   0.00000  Uiso   1.00
Zn1248 Zn    0.25000  -0.00000   0.78229   0.00000  Uiso   1.00
C1249  C     0.00032   0.29060   0.69375   0.00000  Uiso   1.00
C1250  C     0.49966   0.20940   0.97292   0.00000  Uiso   1.00
C1251  C     0.00217   0.20895   0.68735   0.00000  Uiso   1.00
C1252  C     0.49783   0.29105   0.97931   0.00000  Uiso   1.00
C1253  C     0.25032   0.04060   0.69375   0.00000  Uiso   1.00
C1254  C     0.24966   0.45940   0.97292   0.00000  Uiso   1.00
C1255  C     0.25217   0.45895   0.68735   0.00000  Uiso   1.00
C1256  C     0.24783   0.04105   0.97931   0.00000  Uiso   1.00
C1257  C     0.39121   0.13515   0.79092   0.00000  Uiso   1.00
C1258  C     0.10879   0.36484   0.87575   0.00000  Uiso   1.00
C1259  C     0.12191   0.34284   0.79615   0.00000  Uiso   1.00
C1260  C     0.37809   0.15715   0.87052   0.00000  Uiso   1.00
C1261  C     0.11887   0.15319   0.87299   0.00000  Uiso   1.00
C1262  C     0.38111   0.34679   0.79368   0.00000  Uiso   1.00
C1263  C     0.38597   0.35910   0.87548   0.00000  Uiso   1.00
C1264  C     0.11402   0.14088   0.79119   0.00000  Uiso   1.00
C1265  C     0.14121   0.38515   0.79092   0.00000  Uiso   1.00
C1266  C     0.35879   0.11484   0.87574   0.00000  Uiso   1.00
C1267  C     0.37191   0.09284   0.79615   0.00000  Uiso   1.00
C1268  C     0.12809   0.40715   0.87052   0.00000  Uiso   1.00
C1269  C     0.36887   0.40319   0.87299   0.00000  Uiso   1.00
C1270  C     0.13111   0.09679   0.79368   0.00000  Uiso   1.00
C1271  C     0.13597   0.10910   0.87548   0.00000  Uiso   1.00
C1272  C     0.36402   0.39088   0.79119   0.00000  Uiso   1.00
C1273  C     0.10069   0.33583   0.83672   0.00000  Uiso   1.00
C1274  C     0.39932   0.16416   0.82995   0.00000  Uiso   1.00
C1275  C     0.39784   0.33427   0.83514   0.00000  Uiso   1.00
C1276  C     0.10215   0.16572   0.83153   0.00000  Uiso   1.00
C1277  C     0.35069   0.08583   0.83672   0.00000  Uiso   1.00
C1278  C     0.14932   0.41416   0.82995   0.00000  Uiso   1.00
C1279  C     0.14784   0.08427   0.83514   0.00000  Uiso   1.00
C1280  C     0.35215   0.41572   0.83153   0.00000  Uiso   1.00
N1281  N     0.00841   0.33291   0.71995   0.00000  Uiso   1.00
O1282  O     0.47726   0.35478   0.74101   0.00000  Uiso   1.00
O1283  O     0.04273   0.35589   0.71171   0.00000  Uiso   1.00
N1284  N     0.49155   0.16709   0.94673   0.00000  Uiso   1.00
O1285  O     0.02266   0.14522   0.92561   0.00000  Uiso   1.00
O1286  O     0.45725   0.14411   0.95504   0.00000  Uiso   1.00
N1287  N     0.01134   0.16495   0.70571   0.00000  Uiso   1.00
O1288  O     0.49734   0.15458   0.74451   0.00000  Uiso   1.00
O1289  O     0.03119   0.13254   0.68155   0.00000  Uiso   1.00
N1290  N     0.48867   0.33505   0.96095   0.00000  Uiso   1.00
O1291  O     0.00267   0.34542   0.92215   0.00000  Uiso   1.00
O1292  O     0.46881   0.36746   0.98511   0.00000  Uiso   1.00
N1293  N     0.25841   0.08291   0.71995   0.00000  Uiso   1.00
O1294  O     0.22726   0.10478   0.74101   0.00000  Uiso   1.00
O1295  O     0.29273   0.10589   0.71171   0.00000  Uiso   1.00
N1296  N     0.24155   0.41709   0.94673   0.00000  Uiso   1.00
O1297  O     0.27266   0.39522   0.92561   0.00000  Uiso   1.00
O1298  O     0.20725   0.39411   0.95504   0.00000  Uiso   1.00
N1299  N     0.26134   0.41495   0.70571   0.00000  Uiso   1.00
O1300  O     0.24734   0.40458   0.74451   0.00000  Uiso   1.00
O1301  O     0.28119   0.38254   0.68155   0.00000  Uiso   1.00
N1302  N     0.23867   0.08505   0.96095   0.00000  Uiso   1.00
O1303  O     0.25267   0.09542   0.92215   0.00000  Uiso   1.00
O1304  O     0.21881   0.11746   0.98511   0.00000  Uiso   1.00
C1305  C     0.39767   0.14995   0.74349   0.00000  Uiso   1.00
H1306  H     0.40160   0.18770   0.74196   0.00000  Uiso   1.00
H1307  H     0.42459   0.13079   0.72683   0.00000  Uiso   1.00
H1308  H     0.36858   0.14197   0.72321   0.00000  Uiso   1.00
C1309  C     0.10234   0.35003   0.92318   0.00000  Uiso   1.00
H1310  H     0.09841   0.31228   0.92470   0.00000  Uiso   1.00
H1311  H     0.13143   0.35801   0.94346   0.00000  Uiso   1.00
H1312  H     0.07542   0.36919   0.93984   0.00000  Uiso   1.00
C1313  C     0.12774   0.30391   0.76023   0.00000  Uiso   1.00
H1314  H     0.12109   0.27023   0.77403   0.00000  Uiso   1.00
H1315  H     0.10684   0.30861   0.73084   0.00000  Uiso   1.00
H1316  H     0.16153   0.30224   0.74887   0.00000  Uiso   1.00
C1317  C     0.37227   0.19608   0.90644   0.00000  Uiso   1.00
H1318  H     0.37891   0.22976   0.89264   0.00000  Uiso   1.00
H1319  H     0.33847   0.19774   0.91780   0.00000  Uiso   1.00
H1320  H     0.39317   0.19138   0.93583   0.00000  Uiso   1.00
C1321  C     0.12132   0.18728   0.91383   0.00000  Uiso   1.00
H1322  H     0.11497   0.22326   0.90501   0.00000  Uiso   1.00
H1323  H     0.09868   0.17789   0.94030   0.00000  Uiso   1.00
H1324  H     0.15423   0.18726   0.92785   0.00000  Uiso   1.00
C1325  C     0.37866   0.31270   0.75285   0.00000  Uiso   1.00
H1326  H     0.38503   0.27672   0.76167   0.00000  Uiso   1.00
H1327  H     0.34574   0.31271   0.73885   0.00000  Uiso   1.00
H1328  H     0.40128   0.32209   0.72636   0.00000  Uiso   1.00
C1329  C     0.38464   0.33750   0.92032   0.00000  Uiso   1.00
H1330  H     0.39503   0.30110   0.91893   0.00000  Uiso   1.00
H1331  H     0.40390   0.35760   0.94542   0.00000  Uiso   1.00
H1332  H     0.35113   0.33801   0.93260   0.00000  Uiso   1.00
C1333  C     0.11535   0.16248   0.74635   0.00000  Uiso   1.00
H1334  H     0.10496   0.19888   0.74774   0.00000  Uiso   1.00
H1335  H     0.14886   0.16197   0.73407   0.00000  Uiso   1.00
H1336  H     0.09609   0.14238   0.72125   0.00000  Uiso   1.00
C1337  C     0.14767   0.39995   0.74349   0.00000  Uiso   1.00
H1338  H     0.15160   0.43770   0.74196   0.00000  Uiso   1.00
H1339  H     0.17459   0.38079   0.72683   0.00000  Uiso   1.00
H1340  H     0.11858   0.39197   0.72321   0.00000  Uiso   1.00
C1341  C     0.35234   0.10003   0.92318   0.00000  Uiso   1.00
H1342  H     0.34841   0.06228   0.92470   0.00000  Uiso   1.00
H1343  H     0.38143   0.10801   0.94346   0.00000  Uiso   1.00
H1344  H     0.32542   0.11919   0.93984   0.00000  Uiso   1.00
C1345  C     0.37774   0.05391   0.76023   0.00000  Uiso   1.00
H1346  H     0.37109   0.02023   0.77403   0.00000  Uiso   1.00
H1347  H     0.35684   0.05861   0.73084   0.00000  Uiso   1.00
H1348  H     0.41153   0.05224   0.74887   0.00000  Uiso   1.00
C1349  C     0.12227   0.44608   0.90644   0.00000  Uiso   1.00
H1350  H     0.12891   0.47976   0.89264   0.00000  Uiso   1.00
H1351  H     0.08847   0.44774   0.91780   0.00000  Uiso   1.00
H1352  H     0.14317   0.44138   0.93583   0.00000  Uiso   1.00
C1353  C     0.37132   0.43728   0.91383   0.00000  Uiso   1.00
H1354  H     0.36497   0.47326   0.90501   0.00000  Uiso   1.00
H1355  H     0.34868   0.42789   0.94030   0.00000  Uiso   1.00
H1356  H     0.40423   0.43726   0.92785   0.00000  Uiso   1.00
C1357  C     0.12866   0.06270   0.75285   0.00000  Uiso   1.00
H1358  H     0.13503   0.02672   0.76167   0.00000  Uiso   1.00
H1359  H     0.09574   0.06271   0.73884   0.00000  Uiso   1.00
H1360  H     0.15128   0.07209   0.72636   0.00000  Uiso   1.00
C1361  C     0.13464   0.08750   0.92032   0.00000  Uiso   1.00
H1362  H     0.14503   0.05110   0.91893   0.00000  Uiso   1.00
H1363  H     0.15390   0.10760   0.94542   0.00000  Uiso   1.00
H1364  H     0.10113   0.08801   0.93260   0.00000  Uiso   1.00
C1365  C     0.36535   0.41248   0.74635   0.00000  Uiso   1.00
H1366  H     0.35496   0.44888   0.74774   0.00000  Uiso   1.00
H1367  H     0.39886   0.41197   0.73407   0.00000  Uiso   1.00
H1368  H     0.34609   0.39238   0.72125   0.00000  Uiso   1.00
O1369  O     0.54580   0.20419   0.87154   0.00000  Uiso   1.00
O1370  O     0.95419   0.29581   0.79513   0.00000  Uiso   1.00
O1371  O     0.95419   0.29581   0.87154   0.00000  Uiso   1.00
O1372  O     0.54580   0.20419   0.79513   0.00000  Uiso   1.00
O1373  O     0.95419   0.20419   0.79513   0.00000  Uiso   1.00
O1374  O     0.54580   0.29581   0.87154   0.00000  Uiso   1.00
O1375  O     0.54580   0.29581   0.79513   0.00000  Uiso   1.00
O1376  O     0.95419   0.20419   0.87154   0.00000  Uiso   1.00
O1377  O     0.79580   0.45419   0.87154   0.00000  Uiso   1.00
O1378  O     0.70419   0.04581   0.79513   0.00000  Uiso   1.00
O1379  O     0.70419   0.04581   0.87154   0.00000  Uiso   1.00
O1380  O     0.79580   0.45419   0.79513   0.00000  Uiso   1.00
O1381  O     0.70419   0.45419   0.79513   0.00000  Uiso   1.00
O1382  O     0.79580   0.04581   0.87154   0.00000  Uiso   1.00
O1383  O     0.79580   0.04581   0.79513   0.00000  Uiso   1.00
O1384  O     0.70419   0.45419   0.87154   0.00000  Uiso   1.00
C1385  C     0.56360   0.19415   0.83268   0.00000  Uiso   1.00
C1386  C     0.93640   0.30585   0.83398   0.00000  Uiso   1.00
C1387  C     0.93713   0.19316   0.83232   0.00000  Uiso   1.00
C1388  C     0.56288   0.30684   0.83435   0.00000  Uiso   1.00
C1389  C     0.81360   0.44415   0.83268   0.00000  Uiso   1.00
C1390  C     0.68640   0.05585   0.83398   0.00000  Uiso   1.00
C1391  C     0.68713   0.44316   0.83232   0.00000  Uiso   1.00
C1392  C     0.81288   0.05684   0.83435   0.00000  Uiso   1.00
N1393  N     0.50000   0.25000   0.95240   0.00000  Uiso   1.00
N1394  N     0.50000   0.25000   0.71427   0.00000  Uiso   1.00
N1395  N     0.75000  -0.00000   0.95240   0.00000  Uiso   1.00
N1396  N     0.75000   0.00000   0.71427   0.00000  Uiso   1.00
Zn1397 Zn    0.50000   0.25000   0.88437   0.00000  Uiso   1.00
Zn1398 Zn    0.50000   0.25000   0.78229   0.00000  Uiso   1.00
Zn1399 Zn    0.75000  -0.00000   0.88437   0.00000  Uiso   1.00
Zn1400 Zn    0.75000  -0.00000   0.78229   0.00000  Uiso   1.00
C1401  C     0.50032   0.29060   0.69375   0.00000  Uiso   1.00
C1402  C     0.99966   0.20940   0.97292   0.00000  Uiso   1.00
C1403  C     0.50217   0.20895   0.68735   0.00000  Uiso   1.00
C1404  C     0.99783   0.29105   0.97931   0.00000  Uiso   1.00
C1405  C     0.75032   0.04060   0.69375   0.00000  Uiso   1.00
C1406  C     0.74966   0.45940   0.97292   0.00000  Uiso   1.00
C1407  C     0.75217   0.45895   0.68735   0.00000  Uiso   1.00
C1408  C     0.74783   0.04105   0.97931   0.00000  Uiso   1.00
C1409  C     0.89121   0.13515   0.79092   0.00000  Uiso   1.00
C1410  C     0.60879   0.36484   0.87575   0.00000  Uiso   1.00
C1411  C     0.62191   0.34284   0.79615   0.00000  Uiso   1.00
C1412  C     0.87809   0.15715   0.87052   0.00000  Uiso   1.00
C1413  C     0.61887   0.15319   0.87299   0.00000  Uiso   1.00
C1414  C     0.88111   0.34679   0.79368   0.00000  Uiso   1.00
C1415  C     0.88597   0.35910   0.87548   0.00000  Uiso   1.00
C1416  C     0.61402   0.14088   0.79119   0.00000  Uiso   1.00
C1417  C     0.64121   0.38515   0.79092   0.00000  Uiso   1.00
C1418  C     0.85879   0.11484   0.87574   0.00000  Uiso   1.00
C1419  C     0.87191   0.09284   0.79615   0.00000  Uiso   1.00
C1420  C     0.62809   0.40715   0.87052   0.00000  Uiso   1.00
C1421  C     0.86887   0.40319   0.87299   0.00000  Uiso   1.00
C1422  C     0.63111   0.09679   0.79368   0.00000  Uiso   1.00
C1423  C     0.63597   0.10910   0.87548   0.00000  Uiso   1.00
C1424  C     0.86402   0.39088   0.79119   0.00000  Uiso   1.00
C1425  C     0.60069   0.33583   0.83672   0.00000  Uiso   1.00
C1426  C     0.89932   0.16416   0.82995   0.00000  Uiso   1.00
C1427  C     0.89784   0.33427   0.83514   0.00000  Uiso   1.00
C1428  C     0.60215   0.16572   0.83153   0.00000  Uiso   1.00
C1429  C     0.85069   0.08583   0.83672   0.00000  Uiso   1.00
C1430  C     0.64932   0.41416   0.82995   0.00000  Uiso   1.00
C1431  C     0.64784   0.08427   0.83514   0.00000  Uiso   1.00
C1432  C     0.85215   0.41572   0.83153   0.00000  Uiso   1.00
N1433  N     0.50841   0.33291   0.71995   0.00000  Uiso   1.00
O1434  O     0.97726   0.35478   0.74101   0.00000  Uiso   1.00
O1435  O     0.54273   0.35589   0.71171   0.00000  Uiso   1.00
N1436  N     0.99155   0.16709   0.94673   0.00000  Uiso   1.00
O1437  O     0.52266   0.14522   0.92561   0.00000  Uiso   1.00
O1438  O     0.95725   0.14411   0.95504   0.00000  Uiso   1.00
N1439  N     0.51134   0.16495   0.70571   0.00000  Uiso   1.00
O1440  O     0.99734   0.15458   0.74451   0.00000  Uiso   1.00
O1441  O     0.53119   0.13254   0.68155   0.00000  Uiso   1.00
N1442  N     0.98867   0.33505   0.96095   0.00000  Uiso   1.00
O1443  O     0.50267   0.34542   0.92215   0.00000  Uiso   1.00
O1444  O     0.96881   0.36746   0.98511   0.00000  Uiso   1.00
N1445  N     0.75841   0.08291   0.71995   0.00000  Uiso   1.00
O1446  O     0.72726   0.10478   0.74101   0.00000  Uiso   1.00
O1447  O     0.79273   0.10589   0.71171   0.00000  Uiso   1.00
N1448  N     0.74155   0.41709   0.94673   0.00000  Uiso   1.00
O1449  O     0.77266   0.39522   0.92561   0.00000  Uiso   1.00
O1450  O     0.70725   0.39411   0.95504   0.00000  Uiso   1.00
N1451  N     0.76134   0.41495   0.70571   0.00000  Uiso   1.00
O1452  O     0.74734   0.40458   0.74451   0.00000  Uiso   1.00
O1453  O     0.78119   0.38254   0.68155   0.00000  Uiso   1.00
N1454  N     0.73867   0.08505   0.96095   0.00000  Uiso   1.00
O1455  O     0.75267   0.09542   0.92215   0.00000  Uiso   1.00
O1456  O     0.71881   0.11746   0.98511   0.00000  Uiso   1.00
C1457  C     0.89767   0.14995   0.74349   0.00000  Uiso   1.00
H1458  H     0.90160   0.18770   0.74196   0.00000  Uiso   1.00
H1459  H     0.92459   0.13079   0.72683   0.00000  Uiso   1.00
H1460  H     0.86858   0.14197   0.72321   0.00000  Uiso   1.00
C1461  C     0.60234   0.35003   0.92318   0.00000  Uiso   1.00
H1462  H     0.59841   0.31228   0.92470   0.00000  Uiso   1.00
H1463  H     0.63143   0.35801   0.94346   0.00000  Uiso   1.00
H1464  H     0.57542   0.36919   0.93984   0.00000  Uiso   1.00
C1465  C     0.62774   0.30391   0.76023   0.00000  Uiso   1.00
H1466  H     0.62109   0.27023   0.77403   0.00000  Uiso   1.00
H1467  H     0.60684   0.30861   0.73084   0.00000  Uiso   1.00
H1468  H     0.66153   0.30224   0.74887   0.00000  Uiso   1.00
C1469  C     0.87227   0.19608   0.90644   0.00000  Uiso   1.00
H1470  H     0.87891   0.22976   0.89264   0.00000  Uiso   1.00
H1471  H     0.83847   0.19774   0.91780   0.00000  Uiso   1.00
H1472  H     0.89317   0.19138   0.93583   0.00000  Uiso   1.00
C1473  C     0.62132   0.18728   0.91383   0.00000  Uiso   1.00
H1474  H     0.61497   0.22326   0.90501   0.00000  Uiso   1.00
H1475  H     0.59868   0.17789   0.94030   0.00000  Uiso   1.00
H1476  H     0.65423   0.18726   0.92785   0.00000  Uiso   1.00
C1477  C     0.87866   0.31270   0.75285   0.00000  Uiso   1.00
H1478  H     0.88503   0.27672   0.76167   0.00000  Uiso   1.00
H1479  H     0.84574   0.31271   0.73885   0.00000  Uiso   1.00
H1480  H     0.90128   0.32209   0.72636   0.00000  Uiso   1.00
C1481  C     0.88464   0.33750   0.92032   0.00000  Uiso   1.00
H1482  H     0.89503   0.30110   0.91893   0.00000  Uiso   1.00
H1483  H     0.90390   0.35760   0.94542   0.00000  Uiso   1.00
H1484  H     0.85113   0.33801   0.93260   0.00000  Uiso   1.00
C1485  C     0.61535   0.16248   0.74635   0.00000  Uiso   1.00
H1486  H     0.60496   0.19888   0.74774   0.00000  Uiso   1.00
H1487  H     0.64886   0.16197   0.73407   0.00000  Uiso   1.00
H1488  H     0.59609   0.14238   0.72125   0.00000  Uiso   1.00
C1489  C     0.64767   0.39995   0.74349   0.00000  Uiso   1.00
H1490  H     0.65160   0.43770   0.74196   0.00000  Uiso   1.00
H1491  H     0.67459   0.38079   0.72683   0.00000  Uiso   1.00
H1492  H     0.61858   0.39197   0.72321   0.00000  Uiso   1.00
C1493  C     0.85234   0.10003   0.92318   0.00000  Uiso   1.00
H1494  H     0.84841   0.06228   0.92470   0.00000  Uiso   1.00
H1495  H     0.88143   0.10801   0.94346   0.00000  Uiso   1.00
H1496  H     0.82542   0.11919   0.93984   0.00000  Uiso   1.00
C1497  C     0.87774   0.05391   0.76023   0.00000  Uiso   1.00
H1498  H     0.87109   0.02023   0.77403   0.00000  Uiso   1.00
H1499  H     0.85684   0.05861   0.73084   0.00000  Uiso   1.00
H1500  H     0.91153   0.05224   0.74887   0.00000  Uiso   1.00
C1501  C     0.62227   0.44608   0.90644   0.00000  Uiso   1.00
H1502  H     0.62891   0.47976   0.89264   0.00000  Uiso   1.00
H1503  H     0.58847   0.44774   0.91780   0.00000  Uiso   1.00
H1504  H     0.64317   0.44138   0.93583   0.00000  Uiso   1.00
C1505  C     0.87132   0.43728   0.91383   0.00000  Uiso   1.00
H1506  H     0.86497   0.47326   0.90501   0.00000  Uiso   1.00
H1507  H     0.84868   0.42789   0.94030   0.00000  Uiso   1.00
H1508  H     0.90423   0.43726   0.92785   0.00000  Uiso   1.00
C1509  C     0.62866   0.06270   0.75285   0.00000  Uiso   1.00
H1510  H     0.63503   0.02672   0.76167   0.00000  Uiso   1.00
H1511  H     0.59574   0.06271   0.73884   0.00000  Uiso   1.00
H1512  H     0.65128   0.07209   0.72636   0.00000  Uiso   1.00
C1513  C     0.63464   0.08750   0.92032   0.00000  Uiso   1.00
H1514  H     0.64503   0.05110   0.91893   0.00000  Uiso   1.00
H1515  H     0.65390   0.10760   0.94542   0.00000  Uiso   1.00
H1516  H     0.60113   0.08801   0.93260   0.00000  Uiso   1.00
C1517  C     0.86535   0.41248   0.74635   0.00000  Uiso   1.00
H1518  H     0.85496   0.44888   0.74774   0.00000  Uiso   1.00
H1519  H     0.89886   0.41197   0.73407   0.00000  Uiso   1.00
H1520  H     0.84609   0.39238   0.72125   0.00000  Uiso   1.00
O1521  O     0.04580   0.70419   0.87154   0.00000  Uiso   1.00
O1522  O     0.45419   0.79581   0.79513   0.00000  Uiso   1.00
O1523  O     0.45419   0.79581   0.87154   0.00000  Uiso   1.00
O1524  O     0.04580   0.70419   0.79513   0.00000  Uiso   1.00
O1525  O     0.45419   0.70419   0.79513   0.00000  Uiso   1.00
O1526  O     0.04580   0.79581   0.87154   0.00000  Uiso   1.00
O1527  O     0.04580   0.79581   0.79513   0.00000  Uiso   1.00
O1528  O     0.45419   0.70419   0.87154   0.00000  Uiso   1.00
O1529  O     0.29580   0.95419   0.87154   0.00000  Uiso   1.00
O1530  O     0.20419   0.54581   0.79513   0.00000  Uiso   1.00
O1531  O     0.20419   0.54581   0.87154   0.00000  Uiso   1.00
O1532  O     0.29580   0.95419   0.79513   0.00000  Uiso   1.00
O1533  O     0.20419   0.95419   0.79513   0.00000  Uiso   1.00
O1534  O     0.29580   0.54581   0.87154   0.00000  Uiso   1.00
O1535  O     0.29580   0.54581   0.79513   0.00000  Uiso   1.00
O1536  O     0.20419   0.95419   0.87154   0.00000  Uiso   1.00
C1537  C     0.06360   0.69415   0.83268   0.00000  Uiso   1.00
C1538  C     0.43640   0.80585   0.83398   0.00000  Uiso   1.00
C1539  C     0.43713   0.69316   0.83232   0.00000  Uiso   1.00
C1540  C     0.06288   0.80684   0.83435   0.00000  Uiso   1.00
C1541  C     0.31360   0.94415   0.83268   0.00000  Uiso   1.00
C1542  C     0.18640   0.55585   0.83398   0.00000  Uiso   1.00
C1543  C     0.18713   0.94316   0.83232   0.00000  Uiso   1.00
C1544  C     0.31288   0.55684   0.83435   0.00000  Uiso   1.00
N1545  N    -0.00000   0.75000   0.95240   0.00000  Uiso   1.00
N1546  N    -0.00000   0.75000   0.71427   0.00000  Uiso   1.00
N1547  N     0.25000   0.50000   0.95240   0.00000  Uiso   1.00
N1548  N     0.25000   0.50000   0.71427   0.00000  Uiso   1.00
Zn1549 Zn   -0.00000   0.75000   0.88437   0.00000  Uiso   1.00
Zn1550 Zn   -0.00000   0.75000   0.78229   0.00000  Uiso   1.00
Zn1551 Zn    0.25000   0.50000   0.88437   0.00000  Uiso   1.00
Zn1552 Zn    0.25000   0.50000   0.78229   0.00000  Uiso   1.00
C1553  C     0.00032   0.79060   0.69375   0.00000  Uiso   1.00
C1554  C     0.49966   0.70940   0.97292   0.00000  Uiso   1.00
C1555  C     0.00217   0.70895   0.68735   0.00000  Uiso   1.00
C1556  C     0.49783   0.79105   0.97931   0.00000  Uiso   1.00
C1557  C     0.25032   0.54060   0.69375   0.00000  Uiso   1.00
C1558  C     0.24966   0.95940   0.97292   0.00000  Uiso   1.00
C1559  C     0.25217   0.95895   0.68735   0.00000  Uiso   1.00
C1560  C     0.24783   0.54105   0.97931   0.00000  Uiso   1.00
C1561  C     0.39121   0.63515   0.79092   0.00000  Uiso   1.00
C1562  C     0.10879   0.86484   0.87575   0.00000  Uiso   1.00
C1563  C     0.12191   0.84284   0.79615   0.00000  Uiso   1.00
C1564  C     0.37809   0.65715   0.87052   0.00000  Uiso   1.00
C1565  C     0.11887   0.65319   0.87299   0.00000  Uiso   1.00
C1566  C     0.38111   0.84679   0.79368   0.00000  Uiso   1.00
C1567  C     0.38597   0.85910   0.87548   0.00000  Uiso   1.00
C1568  C     0.11402   0.64088   0.79119   0.00000  Uiso   1.00
C1569  C     0.14121   0.88515   0.79092   0.00000  Uiso   1.00
C1570  C     0.35879   0.61484   0.87574   0.00000  Uiso   1.00
C1571  C     0.37191   0.59284   0.79615   0.00000  Uiso   1.00
C1572  C     0.12809   0.90715   0.87052   0.00000  Uiso   1.00
C1573  C     0.36887   0.90319   0.87299   0.00000  Uiso   1.00
C1574  C     0.13111   0.59679   0.79368   0.00000  Uiso   1.00
C1575  C     0.13597   0.60910   0.87548   0.00000  Uiso   1.00
C1576  C     0.36402   0.89088   0.79119   0.00000  Uiso   1.00
C1577  C     0.10069   0.83583   0.83672   0.00000  Uiso   1.00
C1578  C     0.39932   0.66416   0.82995   0.00000  Uiso   1.00
C1579  C     0.39784   0.83427   0.83514   0.00000  Uiso   1.00
C1580  C     0.10215   0.66572   0.83153   0.00000  Uiso   1.00
C1581  C     0.35069   0.58583   0.83672   0.00000  Uiso   1.00
C1582  C     0.14932   0.91416   0.82995   0.00000  Uiso   1.00
C1583  C     0.14784   0.58427   0.83514   0.00000  Uiso   1.00
C1584  C     0.35215   0.91572   0.83153   0.00000  Uiso   1.00
N1585  N     0.00841   0.83291   0.71995   0.00000  Uiso   1.00
O1586  O     0.47726   0.85478   0.74101   0.00000  Uiso   1.00
O1587  O     0.04273   0.85589   0.71171   0.00000  Uiso   1.00
N1588  N     0.49155   0.66709   0.94673   0.00000  Uiso   1.00
O1589  O     0.02266   0.64522   0.92561   0.00000  Uiso   1.00
O1590  O     0.45725   0.64411   0.95504   0.00000  Uiso   1.00
N1591  N     0.01134   0.66495   0.70571   0.00000  Uiso   1.00
O1592  O     0.49734   0.65458   0.74451   0.00000  Uiso   1.00
O1593  O     0.03119   0.63254   0.68155   0.00000  Uiso   1.00
N1594  N     0.48867   0.83505   0.96095   0.00000  Uiso   1.00
O1595  O     0.00267   0.84542   0.92215   0.00000  Uiso   1.00
O1596  O     0.46881   0.86746   0.98511   0.00000  Uiso   1.00
N1597  N     0.25841   0.58291   0.71995   0.00000  Uiso   1.00
O1598  O     0.22726   0.60478   0.74101   0.00000  Uiso   1.00
O1599  O     0.29273   0.60589   0.71171   0.00000  Uiso   1.00
N1600  N     0.24155   0.91709   0.94673   0.00000  Uiso   1.00
O1601  O     0.27266   0.89522   0.92561   0.00000  Uiso   1.00
O1602  O     0.20725   0.89411   0.95504   0.00000  Uiso   1.00
N1603  N     0.26134   0.91495   0.70571   0.00000  Uiso   1.00
O1604  O     0.24734   0.90458   0.74451   0.00000  Uiso   1.00
O1605  O     0.28119   0.88254   0.68155   0.00000  Uiso   1.00
N1606  N     0.23867   0.58505   0.96095   0.00000  Uiso   1.00
O1607  O     0.25267   0.59542   0.92215   0.00000  Uiso   1.00
O1608  O     0.21881   0.61746   0.98511   0.00000  Uiso   1.00
C1609  C     0.39767   0.64995   0.74349   0.00000  Uiso   1.00
H1610  H     0.40160   0.68770   0.74196   0.00000  Uiso   1.00
H1611  H     0.42459   0.63079   0.72683   0.00000  Uiso   1.00
H1612  H     0.36858   0.64197   0.72321   0.00000  Uiso   1.00
C1613  C     0.10234   0.85003   0.92318   0.00000  Uiso   1.00
H1614  H     0.09841   0.81228   0.92470   0.00000  Uiso   1.00
H1615  H     0.13143   0.85801   0.94346   0.00000  Uiso   1.00
H1616  H     0.07542   0.86919   0.93984   0.00000  Uiso   1.00
C1617  C     0.12774   0.80391   0.76023   0.00000  Uiso   1.00
H1618  H     0.12109   0.77023   0.77403   0.00000  Uiso   1.00
H1619  H     0.10684   0.80861   0.73084   0.00000  Uiso   1.00
H1620  H     0.16153   0.80224   0.74887   0.00000  Uiso   1.00
C1621  C     0.37227   0.69608   0.90644   0.00000  Uiso   1.00
H1622  H     0.37891   0.72976   0.89264   0.00000  Uiso   1.00
H1623  H     0.33847   0.69774   0.91780   0.00000  Uiso   1.00
H1624  H     0.39317   0.69138   0.93583   0.00000  Uiso   1.00
C1625  C     0.12132   0.68728   0.91383   0.00000  Uiso   1.00
H1626  H     0.11497   0.72326   0.90501   0.00000  Uiso   1.00
H1627  H     0.09868   0.67789   0.94030   0.00000  Uiso   1.00
H1628  H     0.15423   0.68726   0.92785   0.00000  Uiso   1.00
C1629  C     0.37866   0.81270   0.75285   0.00000  Uiso   1.00
H1630  H     0.38503   0.77672   0.76167   0.00000  Uiso   1.00
H1631  H     0.34574   0.81271   0.73885   0.00000  Uiso   1.00
H1632  H     0.40128   0.82209   0.72636   0.00000  Uiso   1.00
C1633  C     0.38464   0.83750   0.92032   0.00000  Uiso   1.00
H1634  H     0.39503   0.80110   0.91893   0.00000  Uiso   1.00
H1635  H     0.40390   0.85760   0.94542   0.00000  Uiso   1.00
H1636  H     0.35113   0.83801   0.93260   0.00000  Uiso   1.00
C1637  C     0.11535   0.66248   0.74635   0.00000  Uiso   1.00
H1638  H     0.10496   0.69888   0.74774   0.00000  Uiso   1.00
H1639  H     0.14886   0.66197   0.73407   0.00000  Uiso   1.00
H1640  H     0.09609   0.64238   0.72125   0.00000  Uiso   1.00
C1641  C     0.14767   0.89995   0.74349   0.00000  Uiso   1.00
H1642  H     0.15160   0.93770   0.74196   0.00000  Uiso   1.00
H1643  H     0.17459   0.88079   0.72683   0.00000  Uiso   1.00
H1644  H     0.11858   0.89197   0.72321   0.00000  Uiso   1.00
C1645  C     0.35234   0.60003   0.92318   0.00000  Uiso   1.00
H1646  H     0.34841   0.56228   0.92470   0.00000  Uiso   1.00
H1647  H     0.38143   0.60801   0.94346   0.00000  Uiso   1.00
H1648  H     0.32542   0.61919   0.93984   0.00000  Uiso   1.00
C1649  C     0.37774   0.55391   0.76023   0.00000  Uiso   1.00
H1650  H     0.37109   0.52023   0.77403   0.00000  Uiso   1.00
H1651  H     0.35684   0.55861   0.73084   0.00000  Uiso   1.00
H1652  H     0.41153   0.55224   0.74887   0.00000  Uiso   1.00
C1653  C     0.12227   0.94608   0.90644   0.00000  Uiso   1.00
H1654  H     0.12891   0.97976   0.89264   0.00000  Uiso   1.00
H1655  H     0.08847   0.94774   0.91780   0.00000  Uiso   1.00
H1656  H     0.14317   0.94138   0.93583   0.00000  Uiso   1.00
C1657  C     0.37132   0.93728   0.91383   0.00000  Uiso   1.00
H1658  H     0.36497   0.97326   0.90501   0.00000  Uiso   1.00
H1659  H     0.34868   0.92789   0.94030   0.00000  Uiso   1.00
H1660  H     0.40423   0.93726   0.92785   0.00000  Uiso   1.00
C1661  C     0.12866   0.56270   0.75285   0.00000  Uiso   1.00
H1662  H     0.13503   0.52672   0.76167   0.00000  Uiso   1.00
H1663  H     0.09574   0.56271   0.73884   0.00000  Uiso   1.00
H1664  H     0.15128   0.57209   0.72636   0.00000  Uiso   1.00
C1665  C     0.13464   0.58750   0.92032   0.00000  Uiso   1.00
H1666  H     0.14503   0.55110   0.91893   0.00000  Uiso   1.00
H1667  H     0.15390   0.60760   0.94542   0.00000  Uiso   1.00
H1668  H     0.10113   0.58801   0.93260   0.00000  Uiso   1.00
C1669  C     0.36535   0.91248   0.74635   0.00000  Uiso   1.00
H1670  H     0.35496   0.94888   0.74774   0.00000  Uiso   1.00
H1671  H     0.39886   0.91197   0.73407   0.00000  Uiso   1.00
H1672  H     0.34609   0.89238   0.72125   0.00000  Uiso   1.00
O1673  O     0.54580   0.70419   0.87154   0.00000  Uiso   1.00
O1674  O     0.95419   0.79581   0.79513   0.00000  Uiso   1.00
O1675  O     0.95419   0.79581   0.87154   0.00000  Uiso   1.00
O1676  O     0.54580   0.70419   0.79513   0.00000  Uiso   1.00
O1677  O     0.95419   0.70419   0.79513   0.00000  Uiso   1.00
O1678  O     0.54580   0.79581   0.87154   0.00000  Uiso   1.00
O1679  O     0.54580   0.79581   0.79513   0.00000  Uiso   1.00
O1680  O     0.95419   0.70419   0.87154   0.00000  Uiso   1.00
O1681  O     0.79580   0.95419   0.87154   0.00000  Uiso   1.00
O1682  O     0.70419   0.54581   0.79513   0.00000  Uiso   1.00
O1683  O     0.70419   0.54581   0.87154   0.00000  Uiso   1.00
O1684  O     0.79580   0.95419   0.79513   0.00000  Uiso   1.00
O1685  O     0.70419   0.95419   0.79513   0.00000  Uiso   1.00
O1686  O     0.79580   0.54581   0.87154   0.00000  Uiso   1.00
O1687  O     0.79580   0.54581   0.79513   0.00000  Uiso   1.00
O1688  O     0.70419   0.95419   0.87154   0.00000  Uiso   1.00
C1689  C     0.56360   0.69415   0.83268   0.00000  Uiso   1.00
C1690  C     0.93640   0.80585   0.83398   0.00000  Uiso   1.00
C1691  C     0.93713   0.69316   0.83232   0.00000  Uiso   1.00
C1692  C     0.56288   0.80684   0.83435   0.00000  Uiso   1.00
C1693  C     0.81360   0.94415   0.83268   0.00000  Uiso   1.00
C1694  C     0.68640   0.55585   0.83398   0.00000  Uiso   1.00
C1695  C     0.68713   0.94316   0.83232   0.00000  Uiso   1.00
C1696  C     0.81288   0.55684   0.83435   0.00000  Uiso   1.00
N1697  N     0.50000   0.75000   0.95240   0.00000  Uiso   1.00
N1698  N     0.50000   0.75000   0.71427   0.00000  Uiso   1.00
N1699  N     0.75000   0.50000   0.95240   0.00000  Uiso   1.00
N1700  N     0.75000   0.50000   0.71427   0.00000  Uiso   1.00
Zn1701 Zn    0.50000   0.75000   0.88437   0.00000  Uiso   1.00
Zn1702 Zn    0.50000   0.75000   0.78229   0.00000  Uiso   1.00
Zn1703 Zn    0.75000   0.50000   0.88437   0.00000  Uiso   1.00
Zn1704 Zn    0.75000   0.50000   0.78229   0.00000  Uiso   1.00
C1705  C     0.50032   0.79060   0.69375   0.00000  Uiso   1.00
C1706  C     0.99966   0.70940   0.97292   0.00000  Uiso   1.00
C1707  C     0.50217   0.70895   0.68735   0.00000  Uiso   1.00
C1708  C     0.99783   0.79105   0.97931   0.00000  Uiso   1.00
C1709  C     0.75032   0.54060   0.69375   0.00000  Uiso   1.00
C1710  C     0.74966   0.95940   0.97292   0.00000  Uiso   1.00
C1711  C     0.75217   0.95895   0.68735   0.00000  Uiso   1.00
C1712  C     0.74783   0.54105   0.97931   0.00000  Uiso   1.00
C1713  C     0.89121   0.63515   0.79092   0.00000  Uiso   1.00
C1714  C     0.60879   0.86484   0.87575   0.00000  Uiso   1.00
C1715  C     0.62191   0.84284   0.79615   0.00000  Uiso   1.00
C1716  C     0.87809   0.65715   0.87052   0.00000  Uiso   1.00
C1717  C     0.61887   0.65319   0.87299   0.00000  Uiso   1.00
C1718  C     0.88111   0.84679   0.79368   0.00000  Uiso   1.00
C1719  C     0.88597   0.85910   0.87548   0.00000  Uiso   1.00
C1720  C     0.61402   0.64088   0.79119   0.00000  Uiso   1.00
C1721  C     0.64121   0.88515   0.79092   0.00000  Uiso   1.00
C1722  C     0.85879   0.61484   0.87574   0.00000  Uiso   1.00
C1723  C     0.87191   0.59284   0.79615   0.00000  Uiso   1.00
C1724  C     0.62809   0.90715   0.87052   0.00000  Uiso   1.00
C1725  C     0.86887   0.90319   0.87299   0.00000  Uiso   1.00
C1726  C     0.63111   0.59679   0.79368   0.00000  Uiso   1.00
C1727  C     0.63597   0.60910   0.87548   0.00000  Uiso   1.00
C1728  C     0.86402   0.89088   0.79119   0.00000  Uiso   1.00
C1729  C     0.60069   0.83583   0.83672   0.00000  Uiso   1.00
C1730  C     0.89932   0.66416   0.82995   0.00000  Uiso   1.00
C1731  C     0.89784   0.83427   0.83514   0.00000  Uiso   1.00
C1732  C     0.60215   0.66572   0.83153   0.00000  Uiso   1.00
C1733  C     0.85069   0.58583   0.83672   0.00000  Uiso   1.00
C1734  C     0.64932   0.91416   0.82995   0.00000  Uiso   1.00
C1735  C     0.64784   0.58427   0.83514   0.00000  Uiso   1.00
C1736  C     0.85215   0.91572   0.83153   0.00000  Uiso   1.00
N1737  N     0.50841   0.83291   0.71995   0.00000  Uiso   1.00
O1738  O     0.97726   0.85478   0.74101   0.00000  Uiso   1.00
O1739  O     0.54273   0.85589   0.71171   0.00000  Uiso   1.00
N1740  N     0.99155   0.66709   0.94673   0.00000  Uiso   1.00
O1741  O     0.52266   0.64522   0.92561   0.00000  Uiso   1.00
O1742  O     0.95725   0.64411   0.95504   0.00000  Uiso   1.00
N1743  N     0.51134   0.66495   0.70571   0.00000  Uiso   1.00
O1744  O     0.99734   0.65458   0.74451   0.00000  Uiso   1.00
O1745  O     0.53119   0.63254   0.68155   0.00000  Uiso   1.00
N1746  N     0.98867   0.83505   0.96095   0.00000  Uiso   1.00
O1747  O     0.50267   0.84542   0.92215   0.00000  Uiso   1.00
O1748  O     0.96881   0.86746   0.98511   0.00000  Uiso   1.00
N1749  N     0.75841   0.58291   0.71995   0.00000  Uiso   1.00
O1750  O     0.72726   0.60478   0.74101   0.00000  Uiso   1.00
O1751  O     0.79273   0.60589   0.71171   0.00000  Uiso   1.00
N1752  N     0.74155   0.91709   0.94673   0.00000  Uiso   1.00
O1753  O     0.77266   0.89522   0.92561   0.00000  Uiso   1.00
O1754  O     0.70725   0.89411   0.95504   0.00000  Uiso   1.00
N1755  N     0.76134   0.91495   0.70571   0.00000  Uiso   1.00
O1756  O     0.74734   0.90458   0.74451   0.00000  Uiso   1.00
O1757  O     0.78119   0.88254   0.68155   0.00000  Uiso   1.00
N1758  N     0.73867   0.58505   0.96095   0.00000  Uiso   1.00
O1759  O     0.75267   0.59542   0.92215   0.00000  Uiso   1.00
O1760  O     0.71881   0.61746   0.98511   0.00000  Uiso   1.00
C1761  C     0.89767   0.64995   0.74349   0.00000  Uiso   1.00
H1762  H     0.90160   0.68770   0.74196   0.00000  Uiso   1.00
H1763  H     0.92459   0.63079   0.72683   0.00000  Uiso   1.00
H1764  H     0.86858   0.64197   0.72321   0.00000  Uiso   1.00
C1765  C     0.60234   0.85003   0.92318   0.00000  Uiso   1.00
H1766  H     0.59841   0.81228   0.92470   0.00000  Uiso   1.00
H1767  H     0.63143   0.85801   0.94346   0.00000  Uiso   1.00
H1768  H     0.57542   0.86919   0.93984   0.00000  Uiso   1.00
C1769  C     0.62774   0.80391   0.76023   0.00000  Uiso   1.00
H1770  H     0.62109   0.77023   0.77403   0.00000  Uiso   1.00
H1771  H     0.60684   0.80861   0.73084   0.00000  Uiso   1.00
H1772  H     0.66153   0.80224   0.74887   0.00000  Uiso   1.00
C1773  C     0.87227   0.69608   0.90644   0.00000  Uiso   1.00
H1774  H     0.87891   0.72976   0.89264   0.00000  Uiso   1.00
H1775  H     0.83847   0.69774   0.91780   0.00000  Uiso   1.00
H1776  H     0.89317   0.69138   0.93583   0.00000  Uiso   1.00
C1777  C     0.62132   0.68728   0.91383   0.00000  Uiso   1.00
H1778  H     0.61497   0.72326   0.90501   0.00000  Uiso   1.00
H1779  H     0.59868   0.67789   0.94030   0.00000  Uiso   1.00
H1780  H     0.65423   0.68726   0.92785   0.00000  Uiso   1.00
C1781  C     0.87866   0.81270   0.75285   0.00000  Uiso   1.00
H1782  H     0.88503   0.77672   0.76167   0.00000  Uiso   1.00
H1783  H     0.84574   0.81271   0.73885   0.00000  Uiso   1.00
H1784  H     0.90128   0.82209   0.72636   0.00000  Uiso   1.00
C1785  C     0.88464   0.83750   0.92032   0.00000  Uiso   1.00
H1786  H     0.89503   0.80110   0.91893   0.00000  Uiso   1.00
H1787  H     0.90390   0.85760   0.94542   0.00000  Uiso   1.00
H1788  H     0.85113   0.83801   0.93260   0.00000  Uiso   1.00
C1789  C     0.61535   0.66248   0.74635   0.00000  Uiso   1.00
H1790  H     0.60496   0.69888   0.74774   0.00000  Uiso   1.00
H1791  H     0.64886   0.66197   0.73407   0.00000  Uiso   1.00
H1792  H     0.59609   0.64238   0.72125   0.00000  Uiso   1.00
C1793  C     0.64767   0.89995   0.74349   0.00000  Uiso   1.00
H1794  H     0.65160   0.93770   0.74196   0.00000  Uiso   1.00
H1795  H     0.67459   0.88079   0.72683   0.00000  Uiso   1.00
H1796  H     0.61858   0.89197   0.72321   0.00000  Uiso   1.00
C1797  C     0.85234   0.60003   0.92318   0.00000  Uiso   1.00
H1798  H     0.84841   0.56228   0.92470   0.00000  Uiso   1.00
H1799  H     0.88143   0.60801   0.94346   0.00000  Uiso   1.00
H1800  H     0.82542   0.61919   0.93984   0.00000  Uiso   1.00
C1801  C     0.87774   0.55391   0.76023   0.00000  Uiso   1.00
H1802  H     0.87109   0.52023   0.77403   0.00000  Uiso   1.00
H1803  H     0.85684   0.55861   0.73084   0.00000  Uiso   1.00
H1804  H     0.91153   0.55224   0.74887   0.00000  Uiso   1.00
C1805  C     0.62227   0.94608   0.90644   0.00000  Uiso   1.00
H1806  H     0.62891   0.97976   0.89264   0.00000  Uiso   1.00
H1807  H     0.58847   0.94774   0.91780   0.00000  Uiso   1.00
H1808  H     0.64317   0.94138   0.93583   0.00000  Uiso   1.00
C1809  C     0.87132   0.93728   0.91383   0.00000  Uiso   1.00
H1810  H     0.86497   0.97326   0.90501   0.00000  Uiso   1.00
H1811  H     0.84868   0.92789   0.94030   0.00000  Uiso   1.00
H1812  H     0.90423   0.93726   0.92785   0.00000  Uiso   1.00
C1813  C     0.62866   0.56270   0.75285   0.00000  Uiso   1.00
H1814  H     0.63503   0.52672   0.76167   0.00000  Uiso   1.00
H1815  H     0.59574   0.56271   0.73884   0.00000  Uiso   1.00
H1816  H     0.65128   0.57209   0.72636   0.00000  Uiso   1.00
C1817  C     0.63464   0.58750   0.92032   0.00000  Uiso   1.00
H1818  H     0.64503   0.55110   0.91893   0.00000  Uiso   1.00
H1819  H     0.65390   0.60760   0.94542   0.00000  Uiso   1.00
H1820  H     0.60113   0.58801   0.93260   0.00000  Uiso   1.00
C1821  C     0.86535   0.91248   0.74635   0.00000  Uiso   1.00
H1822  H     0.85496   0.94888   0.74774   0.00000  Uiso   1.00
H1823  H     0.89886   0.91197   0.73407   0.00000  Uiso   1.00
H1824  H     0.84609   0.89238   0.72125   0.00000  Uiso   1.00
loop_
_geom_bond_atom_site_label_1
_geom_bond_atom_site_label_2
_geom_bond_distance
_geom_bond_site_symmetry_2
_ccdc_geom_bond_type
O1     C17     1.300   .     A
O1     Zn29    1.969   .     S
O2     C18     1.300   .     A
O2     Zn182   1.969   .     S
O3     C18     1.298   .     A
O3     Zn181   2.002   .     S
O4     C17     1.298   .     A
O4     Zn30    2.002   .     S
O5     C19     1.290   .     A
O5     Zn182   2.015   .     S
O6     C20     1.290   .     A
O6     Zn29    2.015   .     S
O7     C20     1.305   .     A
O7     Zn30    1.981   .     S
O8     Zn181   1.981   .     S
O8     C19     1.305   .     A
O9     Zn335   1.969   .     S
O9     C21     1.300   .     A
O10    C22     1.300   .     A
O10    Zn32    1.969   .     S
O11    C22     1.298   .     A
O11    Zn31    2.002   .     S
O12    Zn336   2.002   .     S
O12    C21     1.298   .     A
O13    Zn336   2.015   .     S
O13    C23     1.290   .     A
O14    C24     1.290   .     A
O14    Zn31    2.015   .     S
O15    C24     1.305   .     A
O15    Zn32    1.981   .     S
O16    Zn335   1.981   .     S
O16    C23     1.305   .     A
C17    C60     1.456   .     S
C18    C59     1.456   .     S
C19    C58     1.455   .     S
C20    C57     1.455   .     S
C21    C64     1.456   .     S
C22    C63     1.456   .     S
C23    C62     1.455   .     S
C24    C61     1.455   .     S
N25    C186    1.362   1_455 A
N25    Zn29    2.026   .     S
N25    C188    1.393   1_455 A
N26    Zn30    2.026   .     S
N26    C33     1.362   .     S
N26    C35     1.392   .     S
N27    C342    1.362   1_545 A
N27    Zn31    2.026   .     S
N27    C40     1.393   .     S
N28    C37     1.362   .     A
N28    Zn32    2.026   .     S
N28    C343    1.392   1_545 S
Zn29   O160    1.981   1_455 S
Zn29   O155    2.002   1_455 S
Zn30   O154    1.969   1_455 S
Zn30   O157    2.015   1_455 S
Zn31   O320    1.981   1_545 S
Zn31   O313    1.969   1_545 S
Zn32   O317    2.015   1_545 S
Zn32   O316    2.002   1_545 S
C33    N65     1.435   .     S
C33    C1404   1.425   1_454 S
C34    N177    1.362   .     A
C34    N68     1.435   .     S
C34    C795    1.425   .     S
C35    N71     1.448   .     S
C35    C1402   1.425   1_454 S
C36    N74     1.449   .     S
C36    N177    1.393   .     A
C36    C793    1.425   .     S
C37    N77     1.435   .     S
C37    C1256   1.425   1_554 S
C38    N331    1.362   .     A
C38    N80     1.435   .     S
C38    C647    1.425   .     S
C39    N83     1.448   .     S
C39    C1254   1.425   1_554 S
C39    N332    1.392   .     S
C40    N86     1.449   .     S
C40    C645    1.425   .     S
C41    C89     1.517   .     S
C41    C58     1.413   .     A
C41    C51     1.390   .     A
C42    C93     1.517   .     S
C42    C57     1.413   .     A
C42    C52     1.390   .     A
C43    C49     1.390   .     A
C43    C97     1.514   .     S
C43    C57     1.406   .     A
C44    C58     1.406   .     A
C44    C50     1.390   .     A
C44    C101    1.514   .     S
C45    C60     1.409   .     A
C45    C105    1.518   .     S
C45    C55     1.390   .     A
C46    C59     1.409   .     A
C46    C109    1.518   .     S
C46    C56     1.390   .     A
C47    C53     1.390   .     A
C47    C113    1.512   .     S
C47    C59     1.409   .     A
C48    C54     1.390   .     A
C48    C60     1.409   .     A
C48    C117    1.512   .     S
C49    C121    1.517   .     S
C49    C62     1.413   .     A
C50    C125    1.517   .     S
C50    C61     1.413   .     A
C51    C61     1.406   .     A
C51    C129    1.514   .     S
C52    C133    1.514   .     S
C52    C62     1.406   .     A
C53    C137    1.518   .     S
C53    C64     1.409   .     A
C54    C63     1.409   .     A
C54    C141    1.518   .     S
C55    C145    1.512   .     S
C55    C63     1.409   .     A
C56    C64     1.409   .     A
C56    C149    1.512   .     S
N65    O67     1.300   .     A
N65    O218    1.299   1_455 S
O66    N217    1.299   .     S
N68    O70     1.300   .     A
N68    O221    1.299   .     S
O69    N220    1.299   1_455 S
N71    O73     1.301   .     A
N71    O224    1.291   1_455 S
O72    N223    1.291   .     S
N74    O76     1.301   .     A
N74    O227    1.291   .     S
O75    N226    1.291   1_455 S
N77    O78     1.299   .     A
N77    O79     1.300   .     A
N80    O82     1.300   .     A
N80    O81     1.299   .     A
N83    O84     1.291   .     A
N83    O85     1.301   .     A
N86    O88     1.301   .     A
N86    O87     1.291   .     A
C89    H91     1.106   .     S
C89    H92     1.109   .     S
C89    H90     1.107   .     S
C93    H94     1.107   .     S
C93    H95     1.109   .     S
C93    H96     1.106   .     S
C97    H100    1.110   .     S
C97    H98     1.106   .     S
C97    H99     1.107   .     S
C101   H102    1.106   .     S
C101   H103    1.110   .     S
C101   H104    1.107   .     S
C105   H108    1.111   .     S
C105   H107    1.109   .     S
C105   H106    1.110   .     S
C109   H111    1.111   .     S
C109   H112    1.109   .     S
C109   H110    1.110   .     S
C113   H114    1.101   .     S
C113   H116    1.111   .     S
C113   H115    1.099   .     S
C117   H118    1.101   .     S
C117   H119    1.111   .     S
C117   H120    1.099   .     S
C121   H124    1.109   .     S
C121   H122    1.107   .     S
C121   H123    1.106   .     S
C125   H128    1.106   .     S
C125   H126    1.107   .     S
C125   H127    1.109   .     S
C129   H132    1.110   .     S
C129   H130    1.106   .     S
C129   H131    1.107   .     S
C133   H136    1.107   .     S
C133   H135    1.110   .     S
C133   H134    1.106   .     S
C137   H139    1.109   .     S
C137   H138    1.110   .     S
C137   H140    1.111   .     S
C141   H144    1.109   .     S
C141   H143    1.111   .     S
C141   H142    1.110   .     S
C145   H146    1.101   .     S
C145   H147    1.099   .     S
C145   H148    1.111   .     S
C149   H151    1.111   .     S
C149   H150    1.101   .     S
C149   H152    1.099   .     S
O153   C169    1.300   .     A
O153   Zn181   1.969   .     S
O154   C170    1.300   .     A
O154   Zn30    1.969   1_655 S
O155   C170    1.298   .     A
O155   Zn29    2.002   1_655 S
O156   C169    1.298   .     A
O156   Zn182   2.002   .     S
O157   C171    1.290   .     A
O157   Zn30    2.015   1_655 S
O158   C172    1.290   .     A
O158   Zn181   2.015   .     S
O159   C172    1.305   .     A
O159   Zn182   1.981   .     S
O160   Zn29    1.981   1_655 S
O160   C171    1.305   .     A
O161   Zn487   1.969   .     S
O161   C173    1.300   .     A
O162   C174    1.300   .     A
O162   Zn184   1.969   .     S
O163   C174    1.298   .     A
O163   Zn183   2.002   .     S
O164   Zn488   2.002   .     S
O164   C173    1.298   .     A
O165   Zn488   2.015   .     S
O165   C175    1.290   .     A
O166   C176    1.290   .     A
O166   Zn183   2.015   .     S
O167   C176    1.305   .     A
O167   Zn184   1.981   .     S
O168   Zn487   1.981   .     S
O168   C175    1.305   .     A
C169   C212    1.456   .     S
C170   C211    1.456   .     S
C171   C210    1.455   .     S
C172   C209    1.455   .     S
C173   C216    1.456   .     S
C174   C215    1.456   .     S
C175   C214    1.455   .     S
C176   C213    1.455   .     S
N177   Zn181   2.026   .     S
N178   Zn182   2.026   .     S
N178   C185    1.362   .     S
N178   C187    1.392   .     S
N179   C494    1.362   1_545 A
N179   Zn183   2.026   .     S
N179   C192    1.393   .     S
N180   C189    1.362   .     A
N180   Zn184   2.026   .     S
N180   C495    1.392   1_545 S
Zn183  O472    1.981   1_545 S
Zn183  O465    1.969   1_545 S
Zn184  O469    2.015   1_545 S
Zn184  O468    2.002   1_545 S
C185   N217    1.435   .     S
C185   C1252   1.425   1_554 S
C186   N25     1.362   1_655 A
C186   N220    1.435   .     S
C186   C643    1.425   1_655 S
C187   N223    1.448   .     S
C187   C1250   1.425   1_554 S
C188   N226    1.449   .     S
C188   N25     1.393   1_655 A
C188   C641    1.425   1_655 S
C189   N229    1.435   .     S
C189   C1408   1.425   1_554 S
C190   N483    1.362   .     A
C190   N232    1.435   .     S
C190   C799    1.425   .     S
C191   N235    1.448   .     S
C191   C1406   1.425   1_554 S
C191   N484    1.392   .     S
C192   N238    1.449   .     S
C192   C797    1.425   .     S
C193   C241    1.517   .     S
C193   C210    1.413   .     A
C193   C203    1.390   .     A
C194   C245    1.517   .     S
C194   C209    1.413   .     A
C194   C204    1.390   .     A
C195   C201    1.390   .     A
C195   C249    1.514   .     S
C195   C209    1.406   .     A
C196   C210    1.406   .     A
C196   C202    1.390   .     A
C196   C253    1.514   .     S
C197   C212    1.409   .     A
C197   C257    1.518   .     S
C197   C207    1.390   .     A
C198   C211    1.409   .     A
C198   C261    1.518   .     S
C198   C208    1.390   .     A
C199   C205    1.390   .     A
C199   C265    1.512   .     S
C199   C211    1.409   .     A
C200   C206    1.390   .     A
C200   C212    1.409   .     A
C200   C269    1.512   .     S
C201   C273    1.517   .     S
C201   C214    1.413   .     A
C202   C277    1.517   .     S
C202   C213    1.413   .     A
C203   C213    1.406   .     A
C203   C281    1.514   .     S
C204   C285    1.514   .     S
C204   C214    1.406   .     A
C205   C289    1.518   .     S
C205   C216    1.409   .     A
C206   C215    1.409   .     A
C206   C293    1.518   .     S
C207   C297    1.512   .     S
C207   C215    1.409   .     A
C208   C216    1.409   .     A
C208   C301    1.512   .     S
N217   O219    1.300   .     A
O218   N65     1.299   1_655 S
N220   O222    1.300   .     A
N220   O69     1.299   1_655 S
N223   O225    1.301   .     A
O224   N71     1.291   1_655 S
N226   O228    1.301   .     A
N226   O75     1.291   1_655 S
N229   O230    1.299   .     A
N229   O231    1.300   .     A
N232   O234    1.300   .     A
N232   O233    1.299   .     A
N235   O236    1.291   .     A
N235   O237    1.301   .     A
N238   O240    1.301   .     A
N238   O239    1.291   .     A
C241   H243    1.106   .     S
C241   H244    1.109   .     S
C241   H242    1.107   .     S
C245   H246    1.107   .     S
C245   H247    1.109   .     S
C245   H248    1.106   .     S
C249   H252    1.110   .     S
C249   H250    1.106   .     S
C249   H251    1.107   .     S
C253   H254    1.106   .     S
C253   H255    1.110   .     S
C253   H256    1.107   .     S
C257   H260    1.111   .     S
C257   H259    1.109   .     S
C257   H258    1.110   .     S
C261   H263    1.111   .     S
C261   H264    1.109   .     S
C261   H262    1.110   .     S
C265   H266    1.101   .     S
C265   H268    1.111   .     S
C265   H267    1.099   .     S
C269   H270    1.101   .     S
C269   H271    1.111   .     S
C269   H272    1.099   .     S
C273   H276    1.109   .     S
C273   H274    1.107   .     S
C273   H275    1.106   .     S
C277   H280    1.106   .     S
C277   H278    1.107   .     S
C277   H279    1.109   .     S
C281   H284    1.110   .     S
C281   H282    1.106   .     S
C281   H283    1.107   .     S
C285   H288    1.107   .     S
C285   H287    1.110   .     S
C285   H286    1.106   .     S
C289   H291    1.109   .     S
C289   H290    1.110   .     S
C289   H292    1.111   .     S
C293   H296    1.109   .     S
C293   H295    1.111   .     S
C293   H294    1.110   .     S
C297   H298    1.101   .     S
C297   H299    1.099   .     S
C297   H300    1.111   .     S
C301   H303    1.111   .     S
C301   H302    1.101   .     S
C301   H304    1.099   .     S
O305   C321    1.300   .     A
O305   Zn333   1.969   .     S
O306   C322    1.300   .     A
O306   Zn486   1.969   .     S
O307   C322    1.298   .     A
O307   Zn485   2.002   .     S
O308   C321    1.298   .     A
O308   Zn334   2.002   .     S
O309   C323    1.290   .     A
O309   Zn486   2.015   .     S
O310   C324    1.290   .     A
O310   Zn333   2.015   .     S
O311   C324    1.305   .     A
O311   Zn334   1.981   .     S
O312   Zn485   1.981   .     S
O312   C323    1.305   .     A
O313   Zn31    1.969   1_565 S
O313   C325    1.300   .     A
O314   C326    1.300   .     A
O314   Zn336   1.969   .     S
O315   C326    1.298   .     A
O315   Zn335   2.002   .     S
O316   Zn32    2.002   1_565 S
O316   C325    1.298   .     A
O317   Zn32    2.015   1_565 S
O317   C327    1.290   .     A
O318   C328    1.290   .     A
O318   Zn335   2.015   .     S
O319   C328    1.305   .     A
O319   Zn336   1.981   .     S
O320   Zn31    1.981   1_565 S
O320   C327    1.305   .     A
C321   C364    1.456   .     S
C322   C363    1.456   .     S
C323   C362    1.455   .     S
C324   C361    1.455   .     S
C325   C368    1.456   .     S
C326   C367    1.456   .     S
C327   C366    1.455   .     S
C328   C365    1.455   .     S
N329   C490    1.362   1_455 A
N329   Zn333   2.026   .     S
N329   C492    1.393   1_455 A
N330   Zn334   2.026   .     S
N330   C337    1.362   .     S
N330   C339    1.392   .     S
N331   Zn335   2.026   .     S
N331   C344    1.393   .     S
N332   C341    1.362   .     A
N332   Zn336   2.026   .     S
Zn333  O464    1.981   1_455 S
Zn333  O459    2.002   1_455 S
Zn334  O458    1.969   1_455 S
Zn334  O461    2.015   1_455 S
C337   N369    1.435   .     S
C337   C1708   1.425   1_454 S
C338   N481    1.362   .     A
C338   N372    1.435   .     S
C338   C1099   1.425   .     S
C339   N375    1.448   .     S
C339   C1706   1.425   1_454 S
C340   N378    1.449   .     S
C340   N481    1.393   .     A
C340   C1097   1.425   .     S
C341   N381    1.435   .     S
C341   C1560   1.425   1_554 S
C342   N27     1.362   1_565 A
C342   N384    1.435   .     S
C342   C951    1.425   .     S
C343   N387    1.448   .     S
C343   C1558   1.425   1_554 S
C343   N28     1.392   1_565 S
C344   N390    1.449   .     S
C344   C949    1.425   .     S
C345   C393    1.517   .     S
C345   C362    1.413   .     A
C345   C355    1.390   .     A
C346   C397    1.517   .     S
C346   C361    1.413   .     A
C346   C356    1.390   .     A
C347   C353    1.390   .     A
C347   C401    1.514   .     S
C347   C361    1.406   .     A
C348   C362    1.406   .     A
C348   C354    1.390   .     A
C348   C405    1.514   .     S
C349   C364    1.409   .     A
C349   C409    1.518   .     S
C349   C359    1.390   .     A
C350   C363    1.409   .     A
C350   C413    1.518   .     S
C350   C360    1.390   .     A
C351   C357    1.390   .     A
C351   C417    1.512   .     S
C351   C363    1.409   .     A
C352   C358    1.390   .     A
C352   C364    1.409   .     A
C352   C421    1.512   .     S
C353   C425    1.517   .     S
C353   C366    1.413   .     A
C354   C429    1.517   .     S
C354   C365    1.413   .     A
C355   C365    1.406   .     A
C355   C433    1.514   .     S
C356   C437    1.514   .     S
C356   C366    1.406   .     A
C357   C441    1.518   .     S
C357   C368    1.409   .     A
C358   C367    1.409   .     A
C358   C445    1.518   .     S
C359   C449    1.512   .     S
C359   C367    1.409   .     A
C360   C368    1.409   .     A
C360   C453    1.512   .     S
N369   O371    1.300   .     A
N369   O522    1.299   1_455 S
O370   N521    1.299   .     S
N372   O374    1.300   .     A
N372   O525    1.299   .     S
O373   N524    1.299   1_455 S
N375   O377    1.301   .     A
N375   O528    1.291   1_455 S
O376   N527    1.291   .     S
N378   O380    1.301   .     A
N378   O531    1.291   .     S
O379   N530    1.291   1_455 S
N381   O382    1.299   .     A
N381   O383    1.300   .     A
N384   O386    1.300   .     A
N384   O385    1.299   .     A
N387   O388    1.291   .     A
N387   O389    1.301   .     A
N390   O392    1.301   .     A
N390   O391    1.291   .     A
C393   H395    1.106   .     S
C393   H396    1.109   .     S
C393   H394    1.107   .     S
C397   H398    1.107   .     S
C397   H399    1.109   .     S
C397   H400    1.106   .     S
C401   H404    1.110   .     S
C401   H402    1.106   .     S
C401   H403    1.107   .     S
C405   H406    1.106   .     S
C405   H407    1.110   .     S
C405   H408    1.107   .     S
C409   H412    1.111   .     S
C409   H411    1.109   .     S
C409   H410    1.110   .     S
C413   H415    1.111   .     S
C413   H416    1.109   .     S
C413   H414    1.110   .     S
C417   H418    1.101   .     S
C417   H420    1.111   .     S
C417   H419    1.099   .     S
C421   H422    1.101   .     S
C421   H423    1.111   .     S
C421   H424    1.099   .     S
C425   H428    1.109   .     S
C425   H426    1.107   .     S
C425   H427    1.106   .     S
C429   H432    1.106   .     S
C429   H430    1.107   .     S
C429   H431    1.109   .     S
C433   H436    1.110   .     S
C433   H434    1.106   .     S
C433   H435    1.107   .     S
C437   H440    1.107   .     S
C437   H439    1.110   .     S
C437   H438    1.106   .     S
C441   H443    1.109   .     S
C441   H442    1.110   .     S
C441   H444    1.111   .     S
C445   H448    1.109   .     S
C445   H447    1.111   .     S
C445   H446    1.110   .     S
C449   H450    1.101   .     S
C449   H451    1.099   .     S
C449   H452    1.111   .     S
C453   H455    1.111   .     S
C453   H454    1.101   .     S
C453   H456    1.099   .     S
O457   C473    1.300   .     A
O457   Zn485   1.969   .     S
O458   C474    1.300   .     A
O458   Zn334   1.969   1_655 S
O459   C474    1.298   .     A
O459   Zn333   2.002   1_655 S
O460   C473    1.298   .     A
O460   Zn486   2.002   .     S
O461   C475    1.290   .     A
O461   Zn334   2.015   1_655 S
O462   C476    1.290   .     A
O462   Zn485   2.015   .     S
O463   C476    1.305   .     A
O463   Zn486   1.981   .     S
O464   Zn333   1.981   1_655 S
O464   C475    1.305   .     A
O465   Zn183   1.969   1_565 S
O465   C477    1.300   .     A
O466   C478    1.300   .     A
O466   Zn488   1.969   .     S
O467   C478    1.298   .     A
O467   Zn487   2.002   .     S
O468   Zn184   2.002   1_565 S
O468   C477    1.298   .     A
O469   Zn184   2.015   1_565 S
O469   C479    1.290   .     A
O470   C480    1.290   .     A
O470   Zn487   2.015   .     S
O471   C480    1.305   .     A
O471   Zn488   1.981   .     S
O472   Zn183   1.981   1_565 S
O472   C479    1.305   .     A
C473   C516    1.456   .     S
C474   C515    1.456   .     S
C475   C514    1.455   .     S
C476   C513    1.455   .     S
C477   C520    1.456   .     S
C478   C519    1.456   .     S
C479   C518    1.455   .     S
C480   C517    1.455   .     S
N481   Zn485   2.026   .     S
N482   Zn486   2.026   .     S
N482   C489    1.362   .     S
N482   C491    1.392   .     S
N483   Zn487   2.026   .     S
N483   C496    1.393   .     S
N484   C493    1.362   .     A
N484   Zn488   2.026   .     S
C489   N521    1.435   .     S
C489   C1556   1.425   1_554 S
C490   N329    1.362   1_655 A
C490   N524    1.435   .     S
C490   C947    1.425   1_655 S
C491   N527    1.448   .     S
C491   C1554   1.425   1_554 S
C492   N530    1.449   .     S
C492   N329    1.393   1_655 A
C492   C945    1.425   1_655 S
C493   N533    1.435   .     S
C493   C1712   1.425   1_554 S
C494   N179    1.362   1_565 A
C494   N536    1.435   .     S
C494   C1103   1.425   .     S
C495   N539    1.448   .     S
C495   C1710   1.425   1_554 S
C495   N180    1.392   1_565 S
C496   N542    1.449   .     S
C496   C1101   1.425   .     S
C497   C545    1.517   .     S
C497   C514    1.413   .     A
C497   C507    1.390   .     A
C498   C549    1.517   .     S
C498   C513    1.413   .     A
C498   C508    1.390   .     A
C499   C505    1.390   .     A
C499   C553    1.514   .     S
C499   C513    1.406   .     A
C500   C514    1.406   .     A
C500   C506    1.390   .     A
C500   C557    1.514   .     S
C501   C516    1.409   .     A
C501   C561    1.518   .     S
C501   C511    1.390   .     A
C502   C515    1.409   .     A
C502   C565    1.518   .     S
C502   C512    1.390   .     A
C503   C509    1.390   .     A
C503   C569    1.512   .     S
C503   C515    1.409   .     A
C504   C510    1.390   .     A
C504   C516    1.409   .     A
C504   C573    1.512   .     S
C505   C577    1.517   .     S
C505   C518    1.413   .     A
C506   C581    1.517   .     S
C506   C517    1.413   .     A
C507   C517    1.406   .     A
C507   C585    1.514   .     S
C508   C589    1.514   .     S
C508   C518    1.406   .     A
C509   C593    1.518   .     S
C509   C520    1.409   .     A
C510   C519    1.409   .     A
C510   C597    1.518   .     S
C511   C601    1.512   .     S
C511   C519    1.409   .     A
C512   C520    1.409   .     A
C512   C605    1.512   .     S
N521   O523    1.300   .     A
O522   N369    1.299   1_655 S
N524   O526    1.300   .     A
N524   O373    1.299   1_655 S
N527   O529    1.301   .     A
O528   N375    1.291   1_655 S
N530   O532    1.301   .     A
N530   O379    1.291   1_655 S
N533   O534    1.299   .     A
N533   O535    1.300   .     A
N536   O538    1.300   .     A
N536   O537    1.299   .     A
N539   O540    1.291   .     A
N539   O541    1.301   .     A
N542   O544    1.301   .     A
N542   O543    1.291   .     A
C545   H547    1.106   .     S
C545   H548    1.109   .     S
C545   H546    1.107   .     S
C549   H550    1.107   .     S
C549   H551    1.109   .     S
C549   H552    1.106   .     S
C553   H556    1.110   .     S
C553   H554    1.106   .     S
C553   H555    1.107   .     S
C557   H558    1.106   .     S
C557   H559    1.110   .     S
C557   H560    1.107   .     S
C561   H564    1.111   .     S
C561   H563    1.109   .     S
C561   H562    1.110   .     S
C565   H567    1.111   .     S
C565   H568    1.109   .     S
C565   H566    1.110   .     S
C569   H570    1.101   .     S
C569   H572    1.111   .     S
C569   H571    1.099   .     S
C573   H574    1.101   .     S
C573   H575    1.111   .     S
C573   H576    1.099   .     S
C577   H580    1.109   .     S
C577   H578    1.107   .     S
C577   H579    1.106   .     S
C581   H584    1.106   .     S
C581   H582    1.107   .     S
C581   H583    1.109   .     S
C585   H588    1.110   .     S
C585   H586    1.106   .     S
C585   H587    1.107   .     S
C589   H592    1.107   .     S
C589   H591    1.110   .     S
C589   H590    1.106   .     S
C593   H595    1.109   .     S
C593   H594    1.110   .     S
C593   H596    1.111   .     S
C597   H600    1.109   .     S
C597   H599    1.111   .     S
C597   H598    1.110   .     S
C601   H602    1.101   .     S
C601   H603    1.099   .     S
C601   H604    1.111   .     S
C605   H607    1.111   .     S
C605   H606    1.101   .     S
C605   H608    1.099   .     S
O609   C625    1.300   .     A
O609   Zn637   1.969   .     S
O610   C626    1.300   .     A
O610   Zn790   1.969   .     S
O611   C626    1.298   .     A
O611   Zn789   2.002   .     S
O612   C625    1.298   .     A
O612   Zn638   2.002   .     S
O613   C627    1.290   .     A
O613   Zn790   2.015   .     S
O614   C628    1.290   .     A
O614   Zn637   2.015   .     S
O615   C628    1.305   .     A
O615   Zn638   1.981   .     S
O616   Zn789   1.981   .     S
O616   C627    1.305   .     A
O617   Zn943   1.969   .     S
O617   C629    1.300   .     A
O618   C630    1.300   .     A
O618   Zn640   1.969   .     S
O619   C630    1.298   .     A
O619   Zn639   2.002   .     S
O620   Zn944   2.002   .     S
O620   C629    1.298   .     A
O621   Zn944   2.015   .     S
O621   C631    1.290   .     A
O622   C632    1.290   .     A
O622   Zn639   2.015   .     S
O623   C632    1.305   .     A
O623   Zn640   1.981   .     S
O624   Zn943   1.981   .     S
O624   C631    1.305   .     A
C625   C668    1.456   .     S
C626   C667    1.456   .     S
C627   C666    1.455   .     S
C628   C665    1.455   .     S
C629   C672    1.456   .     S
C630   C671    1.456   .     S
C631   C670    1.455   .     S
C632   C669    1.455   .     S
N633   C794    1.362   1_455 A
N633   Zn637   2.026   .     S
N633   C796    1.393   1_455 A
N634   Zn638   2.026   .     S
N634   C641    1.362   .     S
N634   C643    1.392   .     S
N635   C950    1.362   1_545 A
N635   Zn639   2.026   .     S
N635   C648    1.393   .     S
N636   C645    1.362   .     A
N636   Zn640   2.026   .     S
N636   C951    1.392   1_545 S
Zn637  O768    1.981   1_455 S
Zn637  O763    2.002   1_455 S
Zn638  O762    1.969   1_455 S
Zn638  O765    2.015   1_455 S
Zn639  O928    1.981   1_545 S
Zn639  O921    1.969   1_545 S
Zn640  O925    2.015   1_545 S
Zn640  O924    2.002   1_545 S
C641   N673    1.435   .     S
C641   C188    1.425   1_455 S
C642   N785    1.362   .     A
C642   N676    1.435   .     S
C642   C1403   1.425   .     S
C643   N679    1.448   .     S
C643   C186    1.425   1_455 S
C644   N682    1.449   .     S
C644   N785    1.393   .     A
C644   C1401   1.425   .     S
C645   N685    1.435   .     S
C646   N939    1.362   .     A
C646   N688    1.435   .     S
C646   C1255   1.425   .     S
C647   N691    1.448   .     S
C647   N940    1.392   .     S
C648   N694    1.449   .     S
C648   C1253   1.425   .     S
C649   C697    1.517   .     S
C649   C666    1.413   .     A
C649   C659    1.390   .     A
C650   C701    1.517   .     S
C650   C665    1.413   .     A
C650   C660    1.390   .     A
C651   C657    1.390   .     A
C651   C705    1.514   .     S
C651   C665    1.406   .     A
C652   C666    1.406   .     A
C652   C658    1.390   .     A
C652   C709    1.514   .     S
C653   C668    1.409   .     A
C653   C713    1.518   .     S
C653   C663    1.390   .     A
C654   C667    1.409   .     A
C654   C717    1.518   .     S
C654   C664    1.390   .     A
C655   C661    1.390   .     A
C655   C721    1.512   .     S
C655   C667    1.409   .     A
C656   C662    1.390   .     A
C656   C668    1.409   .     A
C656   C725    1.512   .     S
C657   C729    1.517   .     S
C657   C670    1.413   .     A
C658   C733    1.517   .     S
C658   C669    1.413   .     A
C659   C669    1.406   .     A
C659   C737    1.514   .     S
C660   C741    1.514   .     S
C660   C670    1.406   .     A
C661   C745    1.518   .     S
C661   C672    1.409   .     A
C662   C671    1.409   .     A
C662   C749    1.518   .     S
C663   C753    1.512   .     S
C663   C671    1.409   .     A
C664   C672    1.409   .     A
C664   C757    1.512   .     S
N673   O675    1.300   .     A
N673   O826    1.299   1_455 S
O674   N825    1.299   .     S
N676   O678    1.300   .     A
N676   O829    1.299   .     S
O677   N828    1.299   1_455 S
N679   O681    1.301   .     A
N679   O832    1.291   1_455 S
O680   N831    1.291   .     S
N682   O684    1.301   .     A
N682   O835    1.291   .     S
O683   N834    1.291   1_455 S
N685   O686    1.299   .     A
N685   O687    1.300   .     A
N688   O690    1.300   .     A
N688   O689    1.299   .     A
N691   O692    1.291   .     A
N691   O693    1.301   .     A
N694   O696    1.301   .     A
N694   O695    1.291   .     A
C697   H699    1.106   .     S
C697   H700    1.109   .     S
C697   H698    1.107   .     S
C701   H702    1.107   .     S
C701   H703    1.109   .     S
C701   H704    1.106   .     S
C705   H708    1.110   .     S
C705   H706    1.106   .     S
C705   H707    1.107   .     S
C709   H710    1.106   .     S
C709   H711    1.110   .     S
C709   H712    1.107   .     S
C713   H716    1.111   .     S
C713   H715    1.109   .     S
C713   H714    1.110   .     S
C717   H719    1.111   .     S
C717   H720    1.109   .     S
C717   H718    1.110   .     S
C721   H722    1.101   .     S
C721   H724    1.111   .     S
C721   H723    1.099   .     S
C725   H726    1.101   .     S
C725   H727    1.111   .     S
C725   H728    1.099   .     S
C729   H732    1.109   .     S
C729   H730    1.107   .     S
C729   H731    1.106   .     S
C733   H736    1.106   .     S
C733   H734    1.107   .     S
C733   H735    1.109   .     S
C737   H740    1.110   .     S
C737   H738    1.106   .     S
C737   H739    1.107   .     S
C741   H744    1.107   .     S
C741   H743    1.110   .     S
C741   H742    1.106   .     S
C745   H747    1.109   .     S
C745   H746    1.110   .     S
C745   H748    1.111   .     S
C749   H752    1.109   .     S
C749   H751    1.111   .     S
C749   H750    1.110   .     S
C753   H754    1.101   .     S
C753   H755    1.099   .     S
C753   H756    1.111   .     S
C757   H759    1.111   .     S
C757   H758    1.101   .     S
C757   H760    1.099   .     S
O761   C777    1.300   .     A
O761   Zn789   1.969   .     S
O762   C778    1.300   .     A
O762   Zn638   1.969   1_655 S
O763   C778    1.298   .     A
O763   Zn637   2.002   1_655 S
O764   C777    1.298   .     A
O764   Zn790   2.002   .     S
O765   C779    1.290   .     A
O765   Zn638   2.015   1_655 S
O766   C780    1.290   .     A
O766   Zn789   2.015   .     S
O767   C780    1.305   .     A
O767   Zn790   1.981   .     S
O768   Zn637   1.981   1_655 S
O768   C779    1.305   .     A
O769   Zn1095  1.969   .     S
O769   C781    1.300   .     A
O770   C782    1.300   .     A
O770   Zn792   1.969   .     S
O771   C782    1.298   .     A
O771   Zn791   2.002   .     S
O772   Zn1096  2.002   .     S
O772   C781    1.298   .     A
O773   Zn1096  2.015   .     S
O773   C783    1.290   .     A
O774   C784    1.290   .     A
O774   Zn791   2.015   .     S
O775   C784    1.305   .     A
O775   Zn792   1.981   .     S
O776   Zn1095  1.981   .     S
O776   C783    1.305   .     A
C777   C820    1.456   .     S
C778   C819    1.456   .     S
C779   C818    1.455   .     S
C780   C817    1.455   .     S
C781   C824    1.456   .     S
C782   C823    1.456   .     S
C783   C822    1.455   .     S
C784   C821    1.455   .     S
N785   Zn789   2.026   .     S
N786   Zn790   2.026   .     S
N786   C793    1.362   .     S
N786   C795    1.392   .     S
N787   C1102   1.362   1_545 A
N787   Zn791   2.026   .     S
N787   C800    1.393   .     S
N788   C797    1.362   .     A
N788   Zn792   2.026   .     S
N788   C1103   1.392   1_545 S
Zn791  O1080   1.981   1_545 S
Zn791  O1073   1.969   1_545 S
Zn792  O1077   2.015   1_545 S
Zn792  O1076   2.002   1_545 S
C793   N825    1.435   .     S
C794   N633    1.362   1_655 A
C794   N828    1.435   .     S
C794   C1251   1.425   1_655 S
C795   N831    1.448   .     S
C796   N834    1.449   .     S
C796   N633    1.393   1_655 A
C796   C1249   1.425   1_655 S
C797   N837    1.435   .     S
C798   N1091   1.362   .     A
C798   N840    1.435   .     S
C798   C1407   1.425   .     S
C799   N843    1.448   .     S
C799   N1092   1.392   .     S
C800   N846    1.449   .     S
C800   C1405   1.425   .     S
C801   C849    1.517   .     S
C801   C818    1.413   .     A
C801   C811    1.390   .     A
C802   C853    1.517   .     S
C802   C817    1.413   .     A
C802   C812    1.390   .     A
C803   C809    1.390   .     A
C803   C857    1.514   .     S
C803   C817    1.406   .     A
C804   C818    1.406   .     A
C804   C810    1.390   .     A
C804   C861    1.514   .     S
C805   C820    1.409   .     A
C805   C865    1.518   .     S
C805   C815    1.390   .     A
C806   C819    1.409   .     A
C806   C869    1.518   .     S
C806   C816    1.390   .     A
C807   C813    1.390   .     A
C807   C873    1.512   .     S
C807   C819    1.409   .     A
C808   C814    1.390   .     A
C808   C820    1.409   .     A
C808   C877    1.512   .     S
C809   C881    1.517   .     S
C809   C822    1.413   .     A
C810   C885    1.517   .     S
C810   C821    1.413   .     A
C811   C821    1.406   .     A
C811   C889    1.514   .     S
C812   C893    1.514   .     S
C812   C822    1.406   .     A
C813   C897    1.518   .     S
C813   C824    1.409   .     A
C814   C823    1.409   .     A
C814   C901    1.518   .     S
C815   C905    1.512   .     S
C815   C823    1.409   .     A
C816   C824    1.409   .     A
C816   C909    1.512   .     S
N825   O827    1.300   .     A
O826   N673    1.299   1_655 S
N828   O830    1.300   .     A
N828   O677    1.299   1_655 S
N831   O833    1.301   .     A
O832   N679    1.291   1_655 S
N834   O836    1.301   .     A
N834   O683    1.291   1_655 S
N837   O838    1.299   .     A
N837   O839    1.300   .     A
N840   O842    1.300   .     A
N840   O841    1.299   .     A
N843   O844    1.291   .     A
N843   O845    1.301   .     A
N846   O848    1.301   .     A
N846   O847    1.291   .     A
C849   H851    1.106   .     S
C849   H852    1.109   .     S
C849   H850    1.107   .     S
C853   H854    1.107   .     S
C853   H855    1.109   .     S
C853   H856    1.106   .     S
C857   H860    1.110   .     S
C857   H858    1.106   .     S
C857   H859    1.107   .     S
C861   H862    1.106   .     S
C861   H863    1.110   .     S
C861   H864    1.107   .     S
C865   H868    1.111   .     S
C865   H867    1.109   .     S
C865   H866    1.110   .     S
C869   H871    1.111   .     S
C869   H872    1.109   .     S
C869   H870    1.110   .     S
C873   H874    1.101   .     S
C873   H876    1.111   .     S
C873   H875    1.099   .     S
C877   H878    1.101   .     S
C877   H879    1.111   .     S
C877   H880    1.099   .     S
C881   H884    1.109   .     S
C881   H882    1.107   .     S
C881   H883    1.106   .     S
C885   H888    1.106   .     S
C885   H886    1.107   .     S
C885   H887    1.109   .     S
C889   H892    1.110   .     S
C889   H890    1.106   .     S
C889   H891    1.107   .     S
C893   H896    1.107   .     S
C893   H895    1.110   .     S
C893   H894    1.106   .     S
C897   H899    1.109   .     S
C897   H898    1.110   .     S
C897   H900    1.111   .     S
C901   H904    1.109   .     S
C901   H903    1.111   .     S
C901   H902    1.110   .     S
C905   H906    1.101   .     S
C905   H907    1.099   .     S
C905   H908    1.111   .     S
C909   H911    1.111   .     S
C909   H910    1.101   .     S
C909   H912    1.099   .     S
O913   C929    1.300   .     A
O913   Zn941   1.969   .     S
O914   C930    1.300   .     A
O914   Zn1094  1.969   .     S
O915   C930    1.298   .     A
O915   Zn1093  2.002   .     S
O916   C929    1.298   .     A
O916   Zn942   2.002   .     S
O917   C931    1.290   .     A
O917   Zn1094  2.015   .     S
O918   C932    1.290   .     A
O918   Zn941   2.015   .     S
O919   C932    1.305   .     A
O919   Zn942   1.981   .     S
O920   Zn1093  1.981   .     S
O920   C931    1.305   .     A
O921   Zn639   1.969   1_565 S
O921   C933    1.300   .     A
O922   C934    1.300   .     A
O922   Zn944   1.969   .     S
O923   C934    1.298   .     A
O923   Zn943   2.002   .     S
O924   Zn640   2.002   1_565 S
O924   C933    1.298   .     A
O925   Zn640   2.015   1_565 S
O925   C935    1.290   .     A
O926   C936    1.290   .     A
O926   Zn943   2.015   .     S
O927   C936    1.305   .     A
O927   Zn944   1.981   .     S
O928   Zn639   1.981   1_565 S
O928   C935    1.305   .     A
C929   C972    1.456   .     S
C930   C971    1.456   .     S
C931   C970    1.455   .     S
C932   C969    1.455   .     S
C933   C976    1.456   .     S
C934   C975    1.456   .     S
C935   C974    1.455   .     S
C936   C973    1.455   .     S
N937   C1098   1.362   1_455 A
N937   Zn941   2.026   .     S
N937   C1100   1.393   1_455 A
N938   Zn942   2.026   .     S
N938   C945    1.362   .     S
N938   C947    1.392   .     S
N939   Zn943   2.026   .     S
N939   C952    1.393   .     S
N940   C949    1.362   .     A
N940   Zn944   2.026   .     S
Zn941  O1072   1.981   1_455 S
Zn941  O1067   2.002   1_455 S
Zn942  O1066   1.969   1_455 S
Zn942  O1069   2.015   1_455 S
C945   N977    1.435   .     S
C945   C492    1.425   1_455 S
C946   N1089   1.362   .     A
C946   N980    1.435   .     S
C946   C1707   1.425   .     S
C947   N983    1.448   .     S
C947   C490    1.425   1_455 S
C948   N986    1.449   .     S
C948   N1089   1.393   .     A
C948   C1705   1.425   .     S
C949   N989    1.435   .     S
C950   N635    1.362   1_565 A
C950   N992    1.435   .     S
C950   C1559   1.425   .     S
C951   N995    1.448   .     S
C951   N636    1.392   1_565 S
C952   N998    1.449   .     S
C952   C1557   1.425   .     S
C953   C1001   1.517   .     S
C953   C970    1.413   .     A
C953   C963    1.390   .     A
C954   C1005   1.517   .     S
C954   C969    1.413   .     A
C954   C964    1.390   .     A
C955   C961    1.390   .     A
C955   C1009   1.514   .     S
C955   C969    1.406   .     A
C956   C970    1.406   .     A
C956   C962    1.390   .     A
C956   C1013   1.514   .     S
C957   C972    1.409   .     A
C957   C1017   1.518   .     S
C957   C967    1.390   .     A
C958   C971    1.409   .     A
C958   C1021   1.518   .     S
C958   C968    1.390   .     A
C959   C965    1.390   .     A
C959   C1025   1.512   .     S
C959   C971    1.409   .     A
C960   C966    1.390   .     A
C960   C972    1.409   .     A
C960   C1029   1.512   .     S
C961   C1033   1.517   .     S
C961   C974    1.413   .     A
C962   C1037   1.517   .     S
C962   C973    1.413   .     A
C963   C973    1.406   .     A
C963   C1041   1.514   .     S
C964   C1045   1.514   .     S
C964   C974    1.406   .     A
C965   C1049   1.518   .     S
C965   C976    1.409   .     A
C966   C975    1.409   .     A
C966   C1053   1.518   .     S
C967   C1057   1.512   .     S
C967   C975    1.409   .     A
C968   C976    1.409   .     A
C968   C1061   1.512   .     S
N977   O979    1.300   .     A
N977   O1130   1.299   1_455 S
O978   N1129   1.299   .     S
N980   O982    1.300   .     A
N980   O1133   1.299   .     S
O981   N1132   1.299   1_455 S
N983   O985    1.301   .     A
N983   O1136   1.291   1_455 S
O984   N1135   1.291   .     S
N986   O988    1.301   .     A
N986   O1139   1.291   .     S
O987   N1138   1.291   1_455 S
N989   O990    1.299   .     A
N989   O991    1.300   .     A
N992   O994    1.300   .     A
N992   O993    1.299   .     A
N995   O996    1.291   .     A
N995   O997    1.301   .     A
N998   O1000   1.301   .     A
N998   O999    1.291   .     A
C1001  H1003   1.106   .     S
C1001  H1004   1.109   .     S
C1001  H1002   1.107   .     S
C1005  H1006   1.107   .     S
C1005  H1007   1.109   .     S
C1005  H1008   1.106   .     S
C1009  H1012   1.110   .     S
C1009  H1010   1.106   .     S
C1009  H1011   1.107   .     S
C1013  H1014   1.106   .     S
C1013  H1015   1.110   .     S
C1013  H1016   1.107   .     S
C1017  H1020   1.111   .     S
C1017  H1019   1.109   .     S
C1017  H1018   1.110   .     S
C1021  H1023   1.111   .     S
C1021  H1024   1.109   .     S
C1021  H1022   1.110   .     S
C1025  H1026   1.101   .     S
C1025  H1028   1.111   .     S
C1025  H1027   1.099   .     S
C1029  H1030   1.101   .     S
C1029  H1031   1.111   .     S
C1029  H1032   1.099   .     S
C1033  H1036   1.109   .     S
C1033  H1034   1.107   .     S
C1033  H1035   1.106   .     S
C1037  H1040   1.106   .     S
C1037  H1038   1.107   .     S
C1037  H1039   1.109   .     S
C1041  H1044   1.110   .     S
C1041  H1042   1.106   .     S
C1041  H1043   1.107   .     S
C1045  H1048   1.107   .     S
C1045  H1047   1.110   .     S
C1045  H1046   1.106   .     S
C1049  H1051   1.109   .     S
C1049  H1050   1.110   .     S
C1049  H1052   1.111   .     S
C1053  H1056   1.109   .     S
C1053  H1055   1.111   .     S
C1053  H1054   1.110   .     S
C1057  H1058   1.101   .     S
C1057  H1059   1.099   .     S
C1057  H1060   1.111   .     S
C1061  H1063   1.111   .     S
C1061  H1062   1.101   .     S
C1061  H1064   1.099   .     S
O1065  C1081   1.300   .     A
O1065  Zn1093  1.969   .     S
O1066  C1082   1.300   .     A
O1066  Zn942   1.969   1_655 S
O1067  C1082   1.298   .     A
O1067  Zn941   2.002   1_655 S
O1068  C1081   1.298   .     A
O1068  Zn1094  2.002   .     S
O1069  C1083   1.290   .     A
O1069  Zn942   2.015   1_655 S
O1070  C1084   1.290   .     A
O1070  Zn1093  2.015   .     S
O1071  C1084   1.305   .     A
O1071  Zn1094  1.981   .     S
O1072  Zn941   1.981   1_655 S
O1072  C1083   1.305   .     A
O1073  Zn791   1.969   1_565 S
O1073  C1085   1.300   .     A
O1074  C1086   1.300   .     A
O1074  Zn1096  1.969   .     S
O1075  C1086   1.298   .     A
O1075  Zn1095  2.002   .     S
O1076  Zn792   2.002   1_565 S
O1076  C1085   1.298   .     A
O1077  Zn792   2.015   1_565 S
O1077  C1087   1.290   .     A
O1078  C1088   1.290   .     A
O1078  Zn1095  2.015   .     S
O1079  C1088   1.305   .     A
O1079  Zn1096  1.981   .     S
O1080  Zn791   1.981   1_565 S
O1080  C1087   1.305   .     A
C1081  C1124   1.456   .     S
C1082  C1123   1.456   .     S
C1083  C1122   1.455   .     S
C1084  C1121   1.455   .     S
C1085  C1128   1.456   .     S
C1086  C1127   1.456   .     S
C1087  C1126   1.455   .     S
C1088  C1125   1.455   .     S
N1089  Zn1093  2.026   .     S
N1090  Zn1094  2.026   .     S
N1090  C1097   1.362   .     S
N1090  C1099   1.392   .     S
N1091  Zn1095  2.026   .     S
N1091  C1104   1.393   .     S
N1092  C1101   1.362   .     A
N1092  Zn1096  2.026   .     S
C1097  N1129   1.435   .     S
C1098  N937    1.362   1_655 A
C1098  N1132   1.435   .     S
C1098  C1555   1.425   1_655 S
C1099  N1135   1.448   .     S
C1100  N1138   1.449   .     S
C1100  N937    1.393   1_655 A
C1100  C1553   1.425   1_655 S
C1101  N1141   1.435   .     S
C1102  N787    1.362   1_565 A
C1102  N1144   1.435   .     S
C1102  C1711   1.425   .     S
C1103  N1147   1.448   .     S
C1103  N788    1.392   1_565 S
C1104  N1150   1.449   .     S
C1104  C1709   1.425   .     S
C1105  C1153   1.517   .     S
C1105  C1122   1.413   .     A
C1105  C1115   1.390   .     A
C1106  C1157   1.517   .     S
C1106  C1121   1.413   .     A
C1106  C1116   1.390   .     A
C1107  C1113   1.390   .     A
C1107  C1161   1.514   .     S
C1107  C1121   1.406   .     A
C1108  C1122   1.406   .     A
C1108  C1114   1.390   .     A
C1108  C1165   1.514   .     S
C1109  C1124   1.409   .     A
C1109  C1169   1.518   .     S
C1109  C1119   1.390   .     A
C1110  C1123   1.409   .     A
C1110  C1173   1.518   .     S
C1110  C1120   1.390   .     A
C1111  C1117   1.390   .     A
C1111  C1177   1.512   .     S
C1111  C1123   1.409   .     A
C1112  C1118   1.390   .     A
C1112  C1124   1.409   .     A
C1112  C1181   1.512   .     S
C1113  C1185   1.517   .     S
C1113  C1126   1.413   .     A
C1114  C1189   1.517   .     S
C1114  C1125   1.413   .     A
C1115  C1125   1.406   .     A
C1115  C1193   1.514   .     S
C1116  C1197   1.514   .     S
C1116  C1126   1.406   .     A
C1117  C1201   1.518   .     S
C1117  C1128   1.409   .     A
C1118  C1127   1.409   .     A
C1118  C1205   1.518   .     S
C1119  C1209   1.512   .     S
C1119  C1127   1.409   .     A
C1120  C1128   1.409   .     A
C1120  C1213   1.512   .     S
N1129  O1131   1.300   .     A
O1130  N977    1.299   1_655 S
N1132  O1134   1.300   .     A
N1132  O981    1.299   1_655 S
N1135  O1137   1.301   .     A
O1136  N983    1.291   1_655 S
N1138  O1140   1.301   .     A
N1138  O987    1.291   1_655 S
N1141  O1142   1.299   .     A
N1141  O1143   1.300   .     A
N1144  O1146   1.300   .     A
N1144  O1145   1.299   .     A
N1147  O1148   1.291   .     A
N1147  O1149   1.301   .     A
N1150  O1152   1.301   .     A
N1150  O1151   1.291   .     A
C1153  H1155   1.106   .     S
C1153  H1156   1.109   .     S
C1153  H1154   1.107   .     S
C1157  H1158   1.107   .     S
C1157  H1159   1.109   .     S
C1157  H1160   1.106   .     S
C1161  H1164   1.110   .     S
C1161  H1162   1.106   .     S
C1161  H1163   1.107   .     S
C1165  H1166   1.106   .     S
C1165  H1167   1.110   .     S
C1165  H1168   1.107   .     S
C1169  H1172   1.111   .     S
C1169  H1171   1.109   .     S
C1169  H1170   1.110   .     S
C1173  H1175   1.111   .     S
C1173  H1176   1.109   .     S
C1173  H1174   1.110   .     S
C1177  H1178   1.101   .     S
C1177  H1180   1.111   .     S
C1177  H1179   1.099   .     S
C1181  H1182   1.101   .     S
C1181  H1183   1.111   .     S
C1181  H1184   1.099   .     S
C1185  H1188   1.109   .     S
C1185  H1186   1.107   .     S
C1185  H1187   1.106   .     S
C1189  H1192   1.106   .     S
C1189  H1190   1.107   .     S
C1189  H1191   1.109   .     S
C1193  H1196   1.110   .     S
C1193  H1194   1.106   .     S
C1193  H1195   1.107   .     S
C1197  H1200   1.107   .     S
C1197  H1199   1.110   .     S
C1197  H1198   1.106   .     S
C1201  H1203   1.109   .     S
C1201  H1202   1.110   .     S
C1201  H1204   1.111   .     S
C1205  H1208   1.109   .     S
C1205  H1207   1.111   .     S
C1205  H1206   1.110   .     S
C1209  H1210   1.101   .     S
C1209  H1211   1.099   .     S
C1209  H1212   1.111   .     S
C1213  H1215   1.111   .     S
C1213  H1214   1.101   .     S
C1213  H1216   1.099   .     S
O1217  C1233   1.300   .     A
O1217  Zn1245  1.969   .     S
O1218  C1234   1.300   .     A
O1218  Zn1398  1.969   .     S
O1219  C1234   1.298   .     A
O1219  Zn1397  2.002   .     S
O1220  C1233   1.298   .     A
O1220  Zn1246  2.002   .     S
O1221  C1235   1.290   .     A
O1221  Zn1398  2.015   .     S
O1222  C1236   1.290   .     A
O1222  Zn1245  2.015   .     S
O1223  C1236   1.305   .     A
O1223  Zn1246  1.981   .     S
O1224  Zn1397  1.981   .     S
O1224  C1235   1.305   .     A
O1225  Zn1551  1.969   .     S
O1225  C1237   1.300   .     A
O1226  C1238   1.300   .     A
O1226  Zn1248  1.969   .     S
O1227  C1238   1.298   .     A
O1227  Zn1247  2.002   .     S
O1228  Zn1552  2.002   .     S
O1228  C1237   1.298   .     A
O1229  Zn1552  2.015   .     S
O1229  C1239   1.290   .     A
O1230  C1240   1.290   .     A
O1230  Zn1247  2.015   .     S
O1231  C1240   1.305   .     A
O1231  Zn1248  1.981   .     S
O1232  Zn1551  1.981   .     S
O1232  C1239   1.305   .     A
C1233  C1276   1.456   .     S
C1234  C1275   1.456   .     S
C1235  C1274   1.455   .     S
C1236  C1273   1.455   .     S
C1237  C1280   1.456   .     S
C1238  C1279   1.456   .     S
C1239  C1278   1.455   .     S
C1240  C1277   1.455   .     S
N1241  C1402   1.362   1_455 A
N1241  Zn1245  2.026   .     S
N1241  C1404   1.393   1_455 A
N1242  Zn1246  2.026   .     S
N1242  C1249   1.362   .     S
N1242  C1251   1.392   .     S
N1243  C1558   1.362   1_545 A
N1243  Zn1247  2.026   .     S
N1243  C1256   1.393   .     S
N1244  C1253   1.362   .     A
N1244  Zn1248  2.026   .     S
N1244  C1559   1.392   1_545 S
Zn1245 O1376   1.981   1_455 S
Zn1245 O1371   2.002   1_455 S
Zn1246 O1370   1.969   1_455 S
Zn1246 O1373   2.015   1_455 S
Zn1247 O1536   1.981   1_545 S
Zn1247 O1529   1.969   1_545 S
Zn1248 O1533   2.015   1_545 S
Zn1248 O1532   2.002   1_545 S
C1249  N1281   1.435   .     S
C1249  C796    1.425   1_455 S
C1250  N1393   1.362   .     A
C1250  N1284   1.435   .     S
C1250  C187    1.425   1_556 S
C1251  N1287   1.448   .     S
C1251  C794    1.425   1_455 S
C1252  N1290   1.449   .     S
C1252  N1393   1.393   .     A
C1252  C185    1.425   1_556 S
C1253  N1293   1.435   .     S
C1254  N1547   1.362   .     A
C1254  N1296   1.435   .     S
C1254  C39     1.425   1_556 S
C1255  N1299   1.448   .     S
C1255  N1548   1.392   .     S
C1256  N1302   1.449   .     S
C1256  C37     1.425   1_556 S
C1257  C1305   1.517   .     S
C1257  C1274   1.413   .     A
C1257  C1267   1.390   .     A
C1258  C1309   1.517   .     S
C1258  C1273   1.413   .     A
C1258  C1268   1.390   .     A
C1259  C1265   1.390   .     A
C1259  C1313   1.514   .     S
C1259  C1273   1.406   .     A
C1260  C1274   1.406   .     A
C1260  C1266   1.390   .     A
C1260  C1317   1.514   .     S
C1261  C1276   1.409   .     A
C1261  C1321   1.518   .     S
C1261  C1271   1.390   .     A
C1262  C1275   1.409   .     A
C1262  C1325   1.518   .     S
C1262  C1272   1.390   .     A
C1263  C1269   1.390   .     A
C1263  C1329   1.512   .     S
C1263  C1275   1.409   .     A
C1264  C1270   1.390   .     A
C1264  C1276   1.409   .     A
C1264  C1333   1.512   .     S
C1265  C1337   1.517   .     S
C1265  C1278   1.413   .     A
C1266  C1341   1.517   .     S
C1266  C1277   1.413   .     A
C1267  C1277   1.406   .     A
C1267  C1345   1.514   .     S
C1268  C1349   1.514   .     S
C1268  C1278   1.406   .     A
C1269  C1353   1.518   .     S
C1269  C1280   1.409   .     A
C1270  C1279   1.409   .     A
C1270  C1357   1.518   .     S
C1271  C1361   1.512   .     S
C1271  C1279   1.409   .     A
C1272  C1280   1.409   .     A
C1272  C1365   1.512   .     S
N1281  O1283   1.300   .     A
N1281  O1434   1.299   1_455 S
O1282  N1433   1.299   .     S
N1284  O1286   1.300   .     A
N1284  O1437   1.299   .     S
O1285  N1436   1.299   1_455 S
N1287  O1289   1.301   .     A
N1287  O1440   1.291   1_455 S
O1288  N1439   1.291   .     S
N1290  O1292   1.301   .     A
N1290  O1443   1.291   .     S
O1291  N1442   1.291   1_455 S
N1293  O1294   1.299   .     A
N1293  O1295   1.300   .     A
N1296  O1298   1.300   .     A
N1296  O1297   1.299   .     A
N1299  O1300   1.291   .     A
N1299  O1301   1.301   .     A
N1302  O1304   1.301   .     A
N1302  O1303   1.291   .     A
C1305  H1307   1.106   .     S
C1305  H1308   1.109   .     S
C1305  H1306   1.107   .     S
C1309  H1310   1.107   .     S
C1309  H1311   1.109   .     S
C1309  H1312   1.106   .     S
C1313  H1316   1.110   .     S
C1313  H1314   1.106   .     S
C1313  H1315   1.107   .     S
C1317  H1318   1.106   .     S
C1317  H1319   1.110   .     S
C1317  H1320   1.107   .     S
C1321  H1324   1.111   .     S
C1321  H1323   1.109   .     S
C1321  H1322   1.110   .     S
C1325  H1327   1.111   .     S
C1325  H1328   1.109   .     S
C1325  H1326   1.110   .     S
C1329  H1330   1.101   .     S
C1329  H1332   1.111   .     S
C1329  H1331   1.099   .     S
C1333  H1334   1.101   .     S
C1333  H1335   1.111   .     S
C1333  H1336   1.099   .     S
C1337  H1340   1.109   .     S
C1337  H1338   1.107   .     S
C1337  H1339   1.106   .     S
C1341  H1344   1.106   .     S
C1341  H1342   1.107   .     S
C1341  H1343   1.109   .     S
C1345  H1348   1.110   .     S
C1345  H1346   1.106   .     S
C1345  H1347   1.107   .     S
C1349  H1352   1.107   .     S
C1349  H1351   1.110   .     S
C1349  H1350   1.106   .     S
C1353  H1355   1.109   .     S
C1353  H1354   1.110   .     S
C1353  H1356   1.111   .     S
C1357  H1360   1.109   .     S
C1357  H1359   1.111   .     S
C1357  H1358   1.110   .     S
C1361  H1362   1.101   .     S
C1361  H1363   1.099   .     S
C1361  H1364   1.111   .     S
C1365  H1367   1.111   .     S
C1365  H1366   1.101   .     S
C1365  H1368   1.099   .     S
O1369  C1385   1.300   .     A
O1369  Zn1397  1.969   .     S
O1370  C1386   1.300   .     A
O1370  Zn1246  1.969   1_655 S
O1371  C1386   1.298   .     A
O1371  Zn1245  2.002   1_655 S
O1372  C1385   1.298   .     A
O1372  Zn1398  2.002   .     S
O1373  C1387   1.290   .     A
O1373  Zn1246  2.015   1_655 S
O1374  C1388   1.290   .     A
O1374  Zn1397  2.015   .     S
O1375  C1388   1.305   .     A
O1375  Zn1398  1.981   .     S
O1376  Zn1245  1.981   1_655 S
O1376  C1387   1.305   .     A
O1377  Zn1703  1.969   .     S
O1377  C1389   1.300   .     A
O1378  C1390   1.300   .     A
O1378  Zn1400  1.969   .     S
O1379  C1390   1.298   .     A
O1379  Zn1399  2.002   .     S
O1380  Zn1704  2.002   .     S
O1380  C1389   1.298   .     A
O1381  Zn1704  2.015   .     S
O1381  C1391   1.290   .     A
O1382  C1392   1.290   .     A
O1382  Zn1399  2.015   .     S
O1383  C1392   1.305   .     A
O1383  Zn1400  1.981   .     S
O1384  Zn1703  1.981   .     S
O1384  C1391   1.305   .     A
C1385  C1428   1.456   .     S
C1386  C1427   1.456   .     S
C1387  C1426   1.455   .     S
C1388  C1425   1.455   .     S
C1389  C1432   1.456   .     S
C1390  C1431   1.456   .     S
C1391  C1430   1.455   .     S
C1392  C1429   1.455   .     S
N1393  Zn1397  2.026   .     S
N1394  Zn1398  2.026   .     S
N1394  C1401   1.362   .     S
N1394  C1403   1.392   .     S
N1395  C1710   1.362   1_545 A
N1395  Zn1399  2.026   .     S
N1395  C1408   1.393   .     S
N1396  C1405   1.362   .     A
N1396  Zn1400  2.026   .     S
N1396  C1711   1.392   1_545 S
Zn1399 O1688   1.981   1_545 S
Zn1399 O1681   1.969   1_545 S
Zn1400 O1685   2.015   1_545 S
Zn1400 O1684   2.002   1_545 S
C1401  N1433   1.435   .     S
C1402  N1241   1.362   1_655 A
C1402  N1436   1.435   .     S
C1402  C35     1.425   1_656 S
C1403  N1439   1.448   .     S
C1404  N1442   1.449   .     S
C1404  N1241   1.393   1_655 A
C1404  C33     1.425   1_656 S
C1405  N1445   1.435   .     S
C1406  N1699   1.362   .     A
C1406  N1448   1.435   .     S
C1406  C191    1.425   1_556 S
C1407  N1451   1.448   .     S
C1407  N1700   1.392   .     S
C1408  N1454   1.449   .     S
C1408  C189    1.425   1_556 S
C1409  C1457   1.517   .     S
C1409  C1426   1.413   .     A
C1409  C1419   1.390   .     A
C1410  C1461   1.517   .     S
C1410  C1425   1.413   .     A
C1410  C1420   1.390   .     A
C1411  C1417   1.390   .     A
C1411  C1465   1.514   .     S
C1411  C1425   1.406   .     A
C1412  C1426   1.406   .     A
C1412  C1418   1.390   .     A
C1412  C1469   1.514   .     S
C1413  C1428   1.409   .     A
C1413  C1473   1.518   .     S
C1413  C1423   1.390   .     A
C1414  C1427   1.409   .     A
C1414  C1477   1.518   .     S
C1414  C1424   1.390   .     A
C1415  C1421   1.390   .     A
C1415  C1481   1.512   .     S
C1415  C1427   1.409   .     A
C1416  C1422   1.390   .     A
C1416  C1428   1.409   .     A
C1416  C1485   1.512   .     S
C1417  C1489   1.517   .     S
C1417  C1430   1.413   .     A
C1418  C1493   1.517   .     S
C1418  C1429   1.413   .     A
C1419  C1429   1.406   .     A
C1419  C1497   1.514   .     S
C1420  C1501   1.514   .     S
C1420  C1430   1.406   .     A
C1421  C1505   1.518   .     S
C1421  C1432   1.409   .     A
C1422  C1431   1.409   .     A
C1422  C1509   1.518   .     S
C1423  C1513   1.512   .     S
C1423  C1431   1.409   .     A
C1424  C1432   1.409   .     A
C1424  C1517   1.512   .     S
N1433  O1435   1.300   .     A
O1434  N1281   1.299   1_655 S
N1436  O1438   1.300   .     A
N1436  O1285   1.299   1_655 S
N1439  O1441   1.301   .     A
O1440  N1287   1.291   1_655 S
N1442  O1444   1.301   .     A
N1442  O1291   1.291   1_655 S
N1445  O1446   1.299   .     A
N1445  O1447   1.300   .     A
N1448  O1450   1.300   .     A
N1448  O1449   1.299   .     A
N1451  O1452   1.291   .     A
N1451  O1453   1.301   .     A
N1454  O1456   1.301   .     A
N1454  O1455   1.291   .     A
C1457  H1459   1.106   .     S
C1457  H1460   1.109   .     S
C1457  H1458   1.107   .     S
C1461  H1462   1.107   .     S
C1461  H1463   1.109   .     S
C1461  H1464   1.106   .     S
C1465  H1468   1.110   .     S
C1465  H1466   1.106   .     S
C1465  H1467   1.107   .     S
C1469  H1470   1.106   .     S
C1469  H1471   1.110   .     S
C1469  H1472   1.107   .     S
C1473  H1476   1.111   .     S
C1473  H1475   1.109   .     S
C1473  H1474   1.110   .     S
C1477  H1479   1.111   .     S
C1477  H1480   1.109   .     S
C1477  H1478   1.110   .     S
C1481  H1482   1.101   .     S
C1481  H1484   1.111   .     S
C1481  H1483   1.099   .     S
C1485  H1486   1.101   .     S
C1485  H1487   1.111   .     S
C1485  H1488   1.099   .     S
C1489  H1492   1.109   .     S
C1489  H1490   1.107   .     S
C1489  H1491   1.106   .     S
C1493  H1496   1.106   .     S
C1493  H1494   1.107   .     S
C1493  H1495   1.109   .     S
C1497  H1500   1.110   .     S
C1497  H1498   1.106   .     S
C1497  H1499   1.107   .     S
C1501  H1504   1.107   .     S
C1501  H1503   1.110   .     S
C1501  H1502   1.106   .     S
C1505  H1507   1.109   .     S
C1505  H1506   1.110   .     S
C1505  H1508   1.111   .     S
C1509  H1512   1.109   .     S
C1509  H1511   1.111   .     S
C1509  H1510   1.110   .     S
C1513  H1514   1.101   .     S
C1513  H1515   1.099   .     S
C1513  H1516   1.111   .     S
C1517  H1519   1.111   .     S
C1517  H1518   1.101   .     S
C1517  H1520   1.099   .     S
O1521  C1537   1.300   .     A
O1521  Zn1549  1.969   .     S
O1522  C1538   1.300   .     A
O1522  Zn1702  1.969   .     S
O1523  C1538   1.298   .     A
O1523  Zn1701  2.002   .     S
O1524  C1537   1.298   .     A
O1524  Zn1550  2.002   .     S
O1525  C1539   1.290   .     A
O1525  Zn1702  2.015   .     S
O1526  C1540   1.290   .     A
O1526  Zn1549  2.015   .     S
O1527  C1540   1.305   .     A
O1527  Zn1550  1.981   .     S
O1528  Zn1701  1.981   .     S
O1528  C1539   1.305   .     A
O1529  Zn1247  1.969   1_565 S
O1529  C1541   1.300   .     A
O1530  C1542   1.300   .     A
O1530  Zn1552  1.969   .     S
O1531  C1542   1.298   .     A
O1531  Zn1551  2.002   .     S
O1532  Zn1248  2.002   1_565 S
O1532  C1541   1.298   .     A
O1533  Zn1248  2.015   1_565 S
O1533  C1543   1.290   .     A
O1534  C1544   1.290   .     A
O1534  Zn1551  2.015   .     S
O1535  C1544   1.305   .     A
O1535  Zn1552  1.981   .     S
O1536  Zn1247  1.981   1_565 S
O1536  C1543   1.305   .     A
C1537  C1580   1.456   .     S
C1538  C1579   1.456   .     S
C1539  C1578   1.455   .     S
C1540  C1577   1.455   .     S
C1541  C1584   1.456   .     S
C1542  C1583   1.456   .     S
C1543  C1582   1.455   .     S
C1544  C1581   1.455   .     S
N1545  C1706   1.362   1_455 A
N1545  Zn1549  2.026   .     S
N1545  C1708   1.393   1_455 A
N1546  Zn1550  2.026   .     S
N1546  C1553   1.362   .     S
N1546  C1555   1.392   .     S
N1547  Zn1551  2.026   .     S
N1547  C1560   1.393   .     S
N1548  C1557   1.362   .     A
N1548  Zn1552  2.026   .     S
Zn1549 O1680   1.981   1_455 S
Zn1549 O1675   2.002   1_455 S
Zn1550 O1674   1.969   1_455 S
Zn1550 O1677   2.015   1_455 S
C1553  N1585   1.435   .     S
C1553  C1100   1.425   1_455 S
C1554  N1697   1.362   .     A
C1554  N1588   1.435   .     S
C1554  C491    1.425   1_556 S
C1555  N1591   1.448   .     S
C1555  C1098   1.425   1_455 S
C1556  N1594   1.449   .     S
C1556  N1697   1.393   .     A
C1556  C489    1.425   1_556 S
C1557  N1597   1.435   .     S
C1558  N1243   1.362   1_565 A
C1558  N1600   1.435   .     S
C1558  C343    1.425   1_556 S
C1559  N1603   1.448   .     S
C1559  N1244   1.392   1_565 S
C1560  N1606   1.449   .     S
C1560  C341    1.425   1_556 S
C1561  C1609   1.517   .     S
C1561  C1578   1.413   .     A
C1561  C1571   1.390   .     A
C1562  C1613   1.517   .     S
C1562  C1577   1.413   .     A
C1562  C1572   1.390   .     A
C1563  C1569   1.390   .     A
C1563  C1617   1.514   .     S
C1563  C1577   1.406   .     A
C1564  C1578   1.406   .     A
C1564  C1570   1.390   .     A
C1564  C1621   1.514   .     S
C1565  C1580   1.409   .     A
C1565  C1625   1.518   .     S
C1565  C1575   1.390   .     A
C1566  C1579   1.409   .     A
C1566  C1629   1.518   .     S
C1566  C1576   1.390   .     A
C1567  C1573   1.390   .     A
C1567  C1633   1.512   .     S
C1567  C1579   1.409   .     A
C1568  C1574   1.390   .     A
C1568  C1580   1.409   .     A
C1568  C1637   1.512   .     S
C1569  C1641   1.517   .     S
C1569  C1582   1.413   .     A
C1570  C1645   1.517   .     S
C1570  C1581   1.413   .     A
C1571  C1581   1.406   .     A
C1571  C1649   1.514   .     S
C1572  C1653   1.514   .     S
C1572  C1582   1.406   .     A
C1573  C1657   1.518   .     S
C1573  C1584   1.409   .     A
C1574  C1583   1.409   .     A
C1574  C1661   1.518   .     S
C1575  C1665   1.512   .     S
C1575  C1583   1.409   .     A
C1576  C1584   1.409   .     A
C1576  C1669   1.512   .     S
N1585  O1587   1.300   .     A
N1585  O1738   1.299   1_455 S
O1586  N1737   1.299   .     S
N1588  O1590   1.300   .     A
N1588  O1741   1.299   .     S
O1589  N1740   1.299   1_455 S
N1591  O1593   1.301   .     A
N1591  O1744   1.291   1_455 S
O1592  N1743   1.291   .     S
N1594  O1596   1.301   .     A
N1594  O1747   1.291   .     S
O1595  N1746   1.291   1_455 S
N1597  O1598   1.299   .     A
N1597  O1599   1.300   .     A
N1600  O1602   1.300   .     A
N1600  O1601   1.299   .     A
N1603  O1604   1.291   .     A
N1603  O1605   1.301   .     A
N1606  O1608   1.301   .     A
N1606  O1607   1.291   .     A
C1609  H1611   1.106   .     S
C1609  H1612   1.109   .     S
C1609  H1610   1.107   .     S
C1613  H1614   1.107   .     S
C1613  H1615   1.109   .     S
C1613  H1616   1.106   .     S
C1617  H1620   1.110   .     S
C1617  H1618   1.106   .     S
C1617  H1619   1.107   .     S
C1621  H1622   1.106   .     S
C1621  H1623   1.110   .     S
C1621  H1624   1.107   .     S
C1625  H1628   1.111   .     S
C1625  H1627   1.109   .     S
C1625  H1626   1.110   .     S
C1629  H1631   1.111   .     S
C1629  H1632   1.109   .     S
C1629  H1630   1.110   .     S
C1633  H1634   1.101   .     S
C1633  H1636   1.111   .     S
C1633  H1635   1.099   .     S
C1637  H1638   1.101   .     S
C1637  H1639   1.111   .     S
C1637  H1640   1.099   .     S
C1641  H1644   1.109   .     S
C1641  H1642   1.107   .     S
C1641  H1643   1.106   .     S
C1645  H1648   1.106   .     S
C1645  H1646   1.107   .     S
C1645  H1647   1.109   .     S
C1649  H1652   1.110   .     S
C1649  H1650   1.106   .     S
C1649  H1651   1.107   .     S
C1653  H1656   1.107   .     S
C1653  H1655   1.110   .     S
C1653  H1654   1.106   .     S
C1657  H1659   1.109   .     S
C1657  H1658   1.110   .     S
C1657  H1660   1.111   .     S
C1661  H1664   1.109   .     S
C1661  H1663   1.111   .     S
C1661  H1662   1.110   .     S
C1665  H1666   1.101   .     S
C1665  H1667   1.099   .     S
C1665  H1668   1.111   .     S
C1669  H1671   1.111   .     S
C1669  H1670   1.101   .     S
C1669  H1672   1.099   .     S
O1673  C1689   1.300   .     A
O1673  Zn1701  1.969   .     S
O1674  C1690   1.300   .     A
O1674  Zn1550  1.969   1_655 S
O1675  C1690   1.298   .     A
O1675  Zn1549  2.002   1_655 S
O1676  C1689   1.298   .     A
O1676  Zn1702  2.002   .     S
O1677  C1691   1.290   .     A
O1677  Zn1550  2.015   1_655 S
O1678  C1692   1.290   .     A
O1678  Zn1701  2.015   .     S
O1679  C1692   1.305   .     A
O1679  Zn1702  1.981   .     S
O1680  Zn1549  1.981   1_655 S
O1680  C1691   1.305   .     A
O1681  Zn1399  1.969   1_565 S
O1681  C1693   1.300   .     A
O1682  C1694   1.300   .     A
O1682  Zn1704  1.969   .     S
O1683  C1694   1.298   .     A
O1683  Zn1703  2.002   .     S
O1684  Zn1400  2.002   1_565 S
O1684  C1693   1.298   .     A
O1685  Zn1400  2.015   1_565 S
O1685  C1695   1.290   .     A
O1686  C1696   1.290   .     A
O1686  Zn1703  2.015   .     S
O1687  C1696   1.305   .     A
O1687  Zn1704  1.981   .     S
O1688  Zn1399  1.981   1_565 S
O1688  C1695   1.305   .     A
C1689  C1732   1.456   .     S
C1690  C1731   1.456   .     S
C1691  C1730   1.455   .     S
C1692  C1729   1.455   .     S
C1693  C1736   1.456   .     S
C1694  C1735   1.456   .     S
C1695  C1734   1.455   .     S
C1696  C1733   1.455   .     S
N1697  Zn1701  2.026   .     S
N1698  Zn1702  2.026   .     S
N1698  C1705   1.362   .     S
N1698  C1707   1.392   .     S
N1699  Zn1703  2.026   .     S
N1699  C1712   1.393   .     S
N1700  C1709   1.362   .     A
N1700  Zn1704  2.026   .     S
C1705  N1737   1.435   .     S
C1706  N1545   1.362   1_655 A
C1706  N1740   1.435   .     S
C1706  C339    1.425   1_656 S
C1707  N1743   1.448   .     S
C1708  N1746   1.449   .     S
C1708  N1545   1.393   1_655 A
C1708  C337    1.425   1_656 S
C1709  N1749   1.435   .     S
C1710  N1395   1.362   1_565 A
C1710  N1752   1.435   .     S
C1710  C495    1.425   1_556 S
C1711  N1755   1.448   .     S
C1711  N1396   1.392   1_565 S
C1712  N1758   1.449   .     S
C1712  C493    1.425   1_556 S
C1713  C1761   1.517   .     S
C1713  C1730   1.413   .     A
C1713  C1723   1.390   .     A
C1714  C1765   1.517   .     S
C1714  C1729   1.413   .     A
C1714  C1724   1.390   .     A
C1715  C1721   1.390   .     A
C1715  C1769   1.514   .     S
C1715  C1729   1.406   .     A
C1716  C1730   1.406   .     A
C1716  C1722   1.390   .     A
C1716  C1773   1.514   .     S
C1717  C1732   1.409   .     A
C1717  C1777   1.518   .     S
C1717  C1727   1.390   .     A
C1718  C1731   1.409   .     A
C1718  C1781   1.518   .     S
C1718  C1728   1.390   .     A
C1719  C1725   1.390   .     A
C1719  C1785   1.512   .     S
C1719  C1731   1.409   .     A
C1720  C1726   1.390   .     A
C1720  C1732   1.409   .     A
C1720  C1789   1.512   .     S
C1721  C1793   1.517   .     S
C1721  C1734   1.413   .     A
C1722  C1797   1.517   .     S
C1722  C1733   1.413   .     A
C1723  C1733   1.406   .     A
C1723  C1801   1.514   .     S
C1724  C1805   1.514   .     S
C1724  C1734   1.406   .     A
C1725  C1809   1.518   .     S
C1725  C1736   1.409   .     A
C1726  C1735   1.409   .     A
C1726  C1813   1.518   .     S
C1727  C1817   1.512   .     S
C1727  C1735   1.409   .     A
C1728  C1736   1.409   .     A
C1728  C1821   1.512   .     S
N1737  O1739   1.300   .     A
O1738  N1585   1.299   1_655 S
N1740  O1742   1.300   .     A
N1740  O1589   1.299   1_655 S
N1743  O1745   1.301   .     A
O1744  N1591   1.291   1_655 S
N1746  O1748   1.301   .     A
N1746  O1595   1.291   1_655 S
N1749  O1750   1.299   .     A
N1749  O1751   1.300   .     A
N1752  O1754   1.300   .     A
N1752  O1753   1.299   .     A
N1755  O1756   1.291   .     A
N1755  O1757   1.301   .     A
N1758  O1760   1.301   .     A
N1758  O1759   1.291   .     A
C1761  H1763   1.106   .     S
C1761  H1764   1.109   .     S
C1761  H1762   1.107   .     S
C1765  H1766   1.107   .     S
C1765  H1767   1.109   .     S
C1765  H1768   1.106   .     S
C1769  H1772   1.110   .     S
C1769  H1770   1.106   .     S
C1769  H1771   1.107   .     S
C1773  H1774   1.106   .     S
C1773  H1775   1.110   .     S
C1773  H1776   1.107   .     S
C1777  H1780   1.111   .     S
C1777  H1779   1.109   .     S
C1777  H1778   1.110   .     S
C1781  H1783   1.111   .     S
C1781  H1784   1.109   .     S
C1781  H1782   1.110   .     S
C1785  H1786   1.101   .     S
C1785  H1788   1.111   .     S
C1785  H1787   1.099   .     S
C1789  H1790   1.101   .     S
C1789  H1791   1.111   .     S
C1789  H1792   1.099   .     S
C1793  H1796   1.109   .     S
C1793  H1794   1.107   .     S
C1793  H1795   1.106   .     S
C1797  H1800   1.106   .     S
C1797  H1798   1.107   .     S
C1797  H1799   1.109   .     S
C1801  H1804   1.110   .     S
C1801  H1802   1.106   .     S
C1801  H1803   1.107   .     S
C1805  H1808   1.107   .     S
C1805  H1807   1.110   .     S
C1805  H1806   1.106   .     S
C1809  H1811   1.109   .     S
C1809  H1810   1.110   .     S
C1809  H1812   1.111   .     S
C1813  H1816   1.109   .     S
C1813  H1815   1.111   .     S
C1813  H1814   1.110   .     S
C1817  H1818   1.101   .     S
C1817  H1819   1.099   .     S
C1817  H1820   1.111   .     S
C1821  H1823   1.111   .     S
C1821  H1822   1.101   .     S
C1821  H1824   1.099   .     S
