data_str_m3_o1_o5_pcu_sym.69
_audit_creation_date              2020-01-03
_audit_creation_method            'Materials Studio'
_symmetry_space_group_name_H-M    'P1'
_symmetry_Int_Tables_number       1
_symmetry_cell_setting            triclinic
loop_
_symmetry_equiv_pos_as_xyz
  x,y,z
_cell_length_a                    32.1938
_cell_length_b                    29.7561
_cell_length_c                    26.7071
_cell_angle_alpha                 90.0084
_cell_angle_beta                  90.9989
_cell_angle_gamma                 89.9913
loop_
_atom_site_label
_atom_site_type_symbol
_atom_site_fract_x
_atom_site_fract_y
_atom_site_fract_z
_atom_site_U_iso_or_equiv
_atom_site_adp_type
_atom_site_occupancy
O1     O     0.10559   0.20487   0.16666   0.00000  Uiso   1.00
O2     O     0.22774   0.12846   0.16667   0.00000  Uiso   1.00
O3     O     0.22774   0.20487   0.16667   0.00000  Uiso   1.00
O4     O     0.10559   0.12846   0.16666   0.00000  Uiso   1.00
C5     C     0.08669   0.16667   0.16689   0.00000  Uiso   1.00
C6     C     0.24664   0.16666   0.16644   0.00000  Uiso   1.00
O7     O     0.16667   0.20488   0.09511   0.00000  Uiso   1.00
O8     O     0.16666   0.12845   0.23822   0.00000  Uiso   1.00
O9     O     0.16666   0.20488   0.23822   0.00000  Uiso   1.00
O10    O     0.16667   0.12845   0.09511   0.00000  Uiso   1.00
C11    C     0.16659   0.16666   0.07296   0.00000  Uiso   1.00
C12    C     0.16674   0.16667   0.26038   0.00000  Uiso   1.00
Zn13   Zn    0.16667   0.21771   0.16667   0.00000  Uiso   1.00
Zn14   Zn    0.16667   0.11563   0.16667   0.00000  Uiso   1.00
C15    C     0.16664   0.16666   0.02181   0.00000  Uiso   1.00
C16    C     0.16669   0.16667   0.31152   0.00000  Uiso   1.00
C17    C     0.02128   0.12571   0.16700   0.00000  Uiso   1.00
C18    C     0.31206   0.20762   0.16631   0.00000  Uiso   1.00
C19    C     0.31207   0.12571   0.16619   0.00000  Uiso   1.00
C20    C     0.02127   0.20762   0.16713   0.00000  Uiso   1.00
H21    H     0.03733   0.09375   0.16753   0.00000  Uiso   1.00
H22    H     0.29600   0.23959   0.16577   0.00000  Uiso   1.00
H23    H     0.29602   0.09374   0.16556   0.00000  Uiso   1.00
H24    H     0.03731   0.23959   0.16776   0.00000  Uiso   1.00
C25    C     0.29083   0.16666   0.16617   0.00000  Uiso   1.00
C26    C     0.04250   0.16667   0.16715   0.00000  Uiso   1.00
C27    C     0.18722   0.02394   0.20351   0.00000  Uiso   1.00
C28    C     0.14611   0.30940   0.12983   0.00000  Uiso   1.00
C29    C     0.14610   0.02394   0.12984   0.00000  Uiso   1.00
C30    C     0.18722   0.30940   0.20351   0.00000  Uiso   1.00
N31    N     0.16667   0.28573   0.16667   0.00000  Uiso   1.00
N32    N     0.16667   0.04760   0.16667   0.00000  Uiso   1.00
N33    N     0.20937   0.04741   0.24220   0.00000  Uiso   1.00
O34    O     0.24795   0.05840   0.23562   0.00000  Uiso   1.00
O35    O     0.19440   0.04867   0.28709   0.00000  Uiso   1.00
N36    N     0.12398   0.28593   0.09112   0.00000  Uiso   1.00
O37    O     0.08542   0.27483   0.09773   0.00000  Uiso   1.00
O38    O     0.13891   0.28478   0.04620   0.00000  Uiso   1.00
N39    N     0.12387   0.04741   0.09122   0.00000  Uiso   1.00
O40    O     0.13900   0.04908   0.04642   0.00000  Uiso   1.00
O41    O     0.08507   0.05768   0.09761   0.00000  Uiso   1.00
N42    N     0.20939   0.28593   0.24218   0.00000  Uiso   1.00
O43    O     0.19434   0.28450   0.28703   0.00000  Uiso   1.00
O44    O     0.24806   0.27520   0.23569   0.00000  Uiso   1.00
O45    O     0.43892   0.20487   0.16666   0.00000  Uiso   1.00
O46    O     0.56108   0.12846   0.16667   0.00000  Uiso   1.00
O47    O     0.56108   0.20487   0.16667   0.00000  Uiso   1.00
O48    O     0.43892   0.12846   0.16666   0.00000  Uiso   1.00
C49    C     0.42003   0.16667   0.16689   0.00000  Uiso   1.00
C50    C     0.57997   0.16666   0.16644   0.00000  Uiso   1.00
O51    O     0.50000   0.20488   0.09511   0.00000  Uiso   1.00
O52    O     0.50000   0.12845   0.23822   0.00000  Uiso   1.00
O53    O     0.50000   0.20488   0.23822   0.00000  Uiso   1.00
O54    O     0.50000   0.12845   0.09511   0.00000  Uiso   1.00
C55    C     0.49993   0.16666   0.07296   0.00000  Uiso   1.00
C56    C     0.50007   0.16667   0.26038   0.00000  Uiso   1.00
Zn57   Zn    0.50000   0.21771   0.16667   0.00000  Uiso   1.00
Zn58   Zn    0.50000   0.11563   0.16667   0.00000  Uiso   1.00
C59    C     0.49997   0.16666   0.02181   0.00000  Uiso   1.00
C60    C     0.50003   0.16667   0.31152   0.00000  Uiso   1.00
C61    C     0.35461   0.12571   0.16700   0.00000  Uiso   1.00
C62    C     0.64539   0.20762   0.16631   0.00000  Uiso   1.00
C63    C     0.64540   0.12571   0.16619   0.00000  Uiso   1.00
C64    C     0.35460   0.20762   0.16713   0.00000  Uiso   1.00
H65    H     0.37067   0.09375   0.16753   0.00000  Uiso   1.00
H66    H     0.62934   0.23959   0.16577   0.00000  Uiso   1.00
H67    H     0.62935   0.09374   0.16556   0.00000  Uiso   1.00
H68    H     0.37065   0.23959   0.16776   0.00000  Uiso   1.00
C69    C     0.62417   0.16666   0.16617   0.00000  Uiso   1.00
C70    C     0.37583   0.16667   0.16715   0.00000  Uiso   1.00
C71    C     0.52055   0.02394   0.20351   0.00000  Uiso   1.00
C72    C     0.47944   0.30940   0.12983   0.00000  Uiso   1.00
C73    C     0.47943   0.02394   0.12984   0.00000  Uiso   1.00
C74    C     0.52055   0.30940   0.20351   0.00000  Uiso   1.00
N75    N     0.50000   0.28573   0.16667   0.00000  Uiso   1.00
N76    N     0.50000   0.04760   0.16667   0.00000  Uiso   1.00
N77    N     0.54270   0.04741   0.24220   0.00000  Uiso   1.00
O78    O     0.58129   0.05840   0.23562   0.00000  Uiso   1.00
O79    O     0.52774   0.04867   0.28709   0.00000  Uiso   1.00
N80    N     0.45731   0.28593   0.09112   0.00000  Uiso   1.00
O81    O     0.41875   0.27483   0.09773   0.00000  Uiso   1.00
O82    O     0.47224   0.28478   0.04620   0.00000  Uiso   1.00
N83    N     0.45720   0.04741   0.09122   0.00000  Uiso   1.00
O84    O     0.47233   0.04908   0.04642   0.00000  Uiso   1.00
O85    O     0.41840   0.05768   0.09761   0.00000  Uiso   1.00
N86    N     0.54272   0.28593   0.24218   0.00000  Uiso   1.00
O87    O     0.52767   0.28450   0.28703   0.00000  Uiso   1.00
O88    O     0.58139   0.27520   0.23569   0.00000  Uiso   1.00
O89    O     0.77226   0.20487   0.16666   0.00000  Uiso   1.00
O90    O     0.89441   0.12846   0.16667   0.00000  Uiso   1.00
O91    O     0.89441   0.20487   0.16667   0.00000  Uiso   1.00
O92    O     0.77226   0.12846   0.16666   0.00000  Uiso   1.00
C93    C     0.75336   0.16667   0.16689   0.00000  Uiso   1.00
C94    C     0.91331   0.16666   0.16644   0.00000  Uiso   1.00
O95    O     0.83334   0.20488   0.09511   0.00000  Uiso   1.00
O96    O     0.83333   0.12845   0.23822   0.00000  Uiso   1.00
O97    O     0.83333   0.20488   0.23822   0.00000  Uiso   1.00
O98    O     0.83334   0.12845   0.09511   0.00000  Uiso   1.00
C99    C     0.83326   0.16666   0.07296   0.00000  Uiso   1.00
C100   C     0.83341   0.16667   0.26038   0.00000  Uiso   1.00
Zn101  Zn    0.83333   0.21771   0.16667   0.00000  Uiso   1.00
Zn102  Zn    0.83333   0.11563   0.16667   0.00000  Uiso   1.00
C103   C     0.83331   0.16666   0.02181   0.00000  Uiso   1.00
C104   C     0.83336   0.16667   0.31152   0.00000  Uiso   1.00
C105   C     0.68794   0.12571   0.16700   0.00000  Uiso   1.00
C106   C     0.97872   0.20762   0.16631   0.00000  Uiso   1.00
C107   C     0.97873   0.12571   0.16619   0.00000  Uiso   1.00
C108   C     0.68793   0.20762   0.16713   0.00000  Uiso   1.00
H109   H     0.70400   0.09375   0.16753   0.00000  Uiso   1.00
H110   H     0.96267   0.23959   0.16577   0.00000  Uiso   1.00
H111   H     0.96269   0.09374   0.16556   0.00000  Uiso   1.00
H112   H     0.70398   0.23959   0.16776   0.00000  Uiso   1.00
C113   C     0.95750   0.16666   0.16617   0.00000  Uiso   1.00
C114   C     0.70917   0.16667   0.16715   0.00000  Uiso   1.00
C115   C     0.85389   0.02394   0.20351   0.00000  Uiso   1.00
C116   C     0.81277   0.30940   0.12983   0.00000  Uiso   1.00
C117   C     0.81277   0.02394   0.12984   0.00000  Uiso   1.00
C118   C     0.85388   0.30940   0.20351   0.00000  Uiso   1.00
N119   N     0.83333   0.28573   0.16667   0.00000  Uiso   1.00
N120   N     0.83333   0.04760   0.16667   0.00000  Uiso   1.00
N121   N     0.87604   0.04741   0.24220   0.00000  Uiso   1.00
O122   O     0.91462   0.05840   0.23562   0.00000  Uiso   1.00
O123   O     0.86107   0.04867   0.28709   0.00000  Uiso   1.00
N124   N     0.79064   0.28593   0.09112   0.00000  Uiso   1.00
O125   O     0.75209   0.27483   0.09773   0.00000  Uiso   1.00
O126   O     0.80557   0.28478   0.04620   0.00000  Uiso   1.00
N127   N     0.79054   0.04741   0.09122   0.00000  Uiso   1.00
O128   O     0.80567   0.04908   0.04642   0.00000  Uiso   1.00
O129   O     0.75174   0.05768   0.09761   0.00000  Uiso   1.00
N130   N     0.87605   0.28593   0.24218   0.00000  Uiso   1.00
O131   O     0.86101   0.28450   0.28703   0.00000  Uiso   1.00
O132   O     0.91472   0.27520   0.23569   0.00000  Uiso   1.00
O133   O     0.10559   0.53821   0.16666   0.00000  Uiso   1.00
O134   O     0.22774   0.46179   0.16667   0.00000  Uiso   1.00
O135   O     0.22774   0.53821   0.16667   0.00000  Uiso   1.00
O136   O     0.10559   0.46179   0.16666   0.00000  Uiso   1.00
C137   C     0.08669   0.50000   0.16689   0.00000  Uiso   1.00
C138   C     0.24664   0.50000   0.16644   0.00000  Uiso   1.00
O139   O     0.16667   0.53821   0.09511   0.00000  Uiso   1.00
O140   O     0.16666   0.46179   0.23822   0.00000  Uiso   1.00
O141   O     0.16666   0.53821   0.23822   0.00000  Uiso   1.00
O142   O     0.16667   0.46179   0.09511   0.00000  Uiso   1.00
C143   C     0.16659   0.50000   0.07296   0.00000  Uiso   1.00
C144   C     0.16674   0.50000   0.26038   0.00000  Uiso   1.00
Zn145  Zn    0.16667   0.55104   0.16667   0.00000  Uiso   1.00
Zn146  Zn    0.16667   0.44896   0.16667   0.00000  Uiso   1.00
C147   C     0.16664   0.50000   0.02181   0.00000  Uiso   1.00
C148   C     0.16669   0.50000   0.31152   0.00000  Uiso   1.00
C149   C     0.02128   0.45905   0.16700   0.00000  Uiso   1.00
C150   C     0.31206   0.54095   0.16631   0.00000  Uiso   1.00
C151   C     0.31207   0.45904   0.16619   0.00000  Uiso   1.00
C152   C     0.02127   0.54095   0.16713   0.00000  Uiso   1.00
H153   H     0.03733   0.42708   0.16753   0.00000  Uiso   1.00
H154   H     0.29600   0.57292   0.16577   0.00000  Uiso   1.00
H155   H     0.29602   0.42708   0.16556   0.00000  Uiso   1.00
H156   H     0.03731   0.57292   0.16776   0.00000  Uiso   1.00
C157   C     0.29083   0.50000   0.16617   0.00000  Uiso   1.00
C158   C     0.04250   0.50000   0.16715   0.00000  Uiso   1.00
C159   C     0.18722   0.35727   0.20351   0.00000  Uiso   1.00
C160   C     0.14611   0.64273   0.12983   0.00000  Uiso   1.00
C161   C     0.14610   0.35727   0.12984   0.00000  Uiso   1.00
C162   C     0.18722   0.64273   0.20351   0.00000  Uiso   1.00
N163   N     0.16667   0.61907   0.16667   0.00000  Uiso   1.00
N164   N     0.16667   0.38093   0.16667   0.00000  Uiso   1.00
N165   N     0.20937   0.38074   0.24220   0.00000  Uiso   1.00
O166   O     0.24795   0.39174   0.23562   0.00000  Uiso   1.00
O167   O     0.19440   0.38200   0.28709   0.00000  Uiso   1.00
N168   N     0.12398   0.61927   0.09112   0.00000  Uiso   1.00
O169   O     0.08542   0.60816   0.09773   0.00000  Uiso   1.00
O170   O     0.13891   0.61811   0.04620   0.00000  Uiso   1.00
N171   N     0.12387   0.38074   0.09122   0.00000  Uiso   1.00
O172   O     0.13900   0.38241   0.04642   0.00000  Uiso   1.00
O173   O     0.08507   0.39101   0.09761   0.00000  Uiso   1.00
N174   N     0.20939   0.61926   0.24218   0.00000  Uiso   1.00
O175   O     0.19434   0.61783   0.28703   0.00000  Uiso   1.00
O176   O     0.24806   0.60854   0.23569   0.00000  Uiso   1.00
O177   O     0.43892   0.53821   0.16666   0.00000  Uiso   1.00
O178   O     0.56108   0.46179   0.16667   0.00000  Uiso   1.00
O179   O     0.56108   0.53821   0.16667   0.00000  Uiso   1.00
O180   O     0.43892   0.46179   0.16666   0.00000  Uiso   1.00
C181   C     0.42003   0.50000   0.16689   0.00000  Uiso   1.00
C182   C     0.57997   0.50000   0.16644   0.00000  Uiso   1.00
O183   O     0.50000   0.53821   0.09511   0.00000  Uiso   1.00
O184   O     0.50000   0.46179   0.23822   0.00000  Uiso   1.00
O185   O     0.50000   0.53821   0.23822   0.00000  Uiso   1.00
O186   O     0.50000   0.46179   0.09511   0.00000  Uiso   1.00
C187   C     0.49993   0.50000   0.07296   0.00000  Uiso   1.00
C188   C     0.50007   0.50000   0.26038   0.00000  Uiso   1.00
Zn189  Zn    0.50000   0.55104   0.16667   0.00000  Uiso   1.00
Zn190  Zn    0.50000   0.44896   0.16667   0.00000  Uiso   1.00
C191   C     0.49997   0.50000   0.02181   0.00000  Uiso   1.00
C192   C     0.50003   0.50000   0.31152   0.00000  Uiso   1.00
C193   C     0.35461   0.45905   0.16700   0.00000  Uiso   1.00
C194   C     0.64539   0.54095   0.16631   0.00000  Uiso   1.00
C195   C     0.64540   0.45904   0.16619   0.00000  Uiso   1.00
C196   C     0.35460   0.54095   0.16713   0.00000  Uiso   1.00
H197   H     0.37067   0.42708   0.16753   0.00000  Uiso   1.00
H198   H     0.62934   0.57292   0.16577   0.00000  Uiso   1.00
H199   H     0.62935   0.42708   0.16556   0.00000  Uiso   1.00
H200   H     0.37065   0.57292   0.16776   0.00000  Uiso   1.00
C201   C     0.62417   0.50000   0.16617   0.00000  Uiso   1.00
C202   C     0.37583   0.50000   0.16715   0.00000  Uiso   1.00
C203   C     0.52055   0.35727   0.20351   0.00000  Uiso   1.00
C204   C     0.47944   0.64273   0.12983   0.00000  Uiso   1.00
C205   C     0.47943   0.35727   0.12984   0.00000  Uiso   1.00
C206   C     0.52055   0.64273   0.20351   0.00000  Uiso   1.00
N207   N     0.50000   0.61907   0.16667   0.00000  Uiso   1.00
N208   N     0.50000   0.38093   0.16667   0.00000  Uiso   1.00
N209   N     0.54270   0.38074   0.24220   0.00000  Uiso   1.00
O210   O     0.58129   0.39174   0.23562   0.00000  Uiso   1.00
O211   O     0.52774   0.38200   0.28709   0.00000  Uiso   1.00
N212   N     0.45731   0.61927   0.09112   0.00000  Uiso   1.00
O213   O     0.41875   0.60816   0.09773   0.00000  Uiso   1.00
O214   O     0.47224   0.61811   0.04620   0.00000  Uiso   1.00
N215   N     0.45720   0.38074   0.09122   0.00000  Uiso   1.00
O216   O     0.47233   0.38241   0.04642   0.00000  Uiso   1.00
O217   O     0.41840   0.39101   0.09761   0.00000  Uiso   1.00
N218   N     0.54272   0.61926   0.24218   0.00000  Uiso   1.00
O219   O     0.52767   0.61783   0.28703   0.00000  Uiso   1.00
O220   O     0.58139   0.60854   0.23569   0.00000  Uiso   1.00
O221   O     0.77226   0.53821   0.16666   0.00000  Uiso   1.00
O222   O     0.89441   0.46179   0.16667   0.00000  Uiso   1.00
O223   O     0.89441   0.53821   0.16667   0.00000  Uiso   1.00
O224   O     0.77226   0.46179   0.16666   0.00000  Uiso   1.00
C225   C     0.75336   0.50000   0.16689   0.00000  Uiso   1.00
C226   C     0.91331   0.50000   0.16644   0.00000  Uiso   1.00
O227   O     0.83334   0.53821   0.09511   0.00000  Uiso   1.00
O228   O     0.83333   0.46179   0.23822   0.00000  Uiso   1.00
O229   O     0.83333   0.53821   0.23822   0.00000  Uiso   1.00
O230   O     0.83334   0.46179   0.09511   0.00000  Uiso   1.00
C231   C     0.83326   0.50000   0.07296   0.00000  Uiso   1.00
C232   C     0.83341   0.50000   0.26038   0.00000  Uiso   1.00
Zn233  Zn    0.83333   0.55104   0.16667   0.00000  Uiso   1.00
Zn234  Zn    0.83333   0.44896   0.16667   0.00000  Uiso   1.00
C235   C     0.83331   0.50000   0.02181   0.00000  Uiso   1.00
C236   C     0.83336   0.50000   0.31152   0.00000  Uiso   1.00
C237   C     0.68794   0.45905   0.16700   0.00000  Uiso   1.00
C238   C     0.97872   0.54095   0.16631   0.00000  Uiso   1.00
C239   C     0.97873   0.45904   0.16619   0.00000  Uiso   1.00
C240   C     0.68793   0.54095   0.16713   0.00000  Uiso   1.00
H241   H     0.70400   0.42708   0.16753   0.00000  Uiso   1.00
H242   H     0.96267   0.57292   0.16577   0.00000  Uiso   1.00
H243   H     0.96269   0.42708   0.16556   0.00000  Uiso   1.00
H244   H     0.70398   0.57292   0.16776   0.00000  Uiso   1.00
C245   C     0.95750   0.50000   0.16617   0.00000  Uiso   1.00
C246   C     0.70917   0.50000   0.16715   0.00000  Uiso   1.00
C247   C     0.85389   0.35727   0.20351   0.00000  Uiso   1.00
C248   C     0.81277   0.64273   0.12983   0.00000  Uiso   1.00
C249   C     0.81277   0.35727   0.12984   0.00000  Uiso   1.00
C250   C     0.85388   0.64273   0.20351   0.00000  Uiso   1.00
N251   N     0.83333   0.61907   0.16667   0.00000  Uiso   1.00
N252   N     0.83333   0.38093   0.16667   0.00000  Uiso   1.00
N253   N     0.87604   0.38074   0.24220   0.00000  Uiso   1.00
O254   O     0.91462   0.39174   0.23562   0.00000  Uiso   1.00
O255   O     0.86107   0.38200   0.28709   0.00000  Uiso   1.00
N256   N     0.79064   0.61927   0.09112   0.00000  Uiso   1.00
O257   O     0.75209   0.60816   0.09773   0.00000  Uiso   1.00
O258   O     0.80557   0.61811   0.04620   0.00000  Uiso   1.00
N259   N     0.79054   0.38074   0.09122   0.00000  Uiso   1.00
O260   O     0.80567   0.38241   0.04642   0.00000  Uiso   1.00
O261   O     0.75174   0.39101   0.09761   0.00000  Uiso   1.00
N262   N     0.87605   0.61926   0.24218   0.00000  Uiso   1.00
O263   O     0.86101   0.61783   0.28703   0.00000  Uiso   1.00
O264   O     0.91472   0.60854   0.23569   0.00000  Uiso   1.00
O265   O     0.10559   0.87154   0.16666   0.00000  Uiso   1.00
O266   O     0.22774   0.79513   0.16667   0.00000  Uiso   1.00
O267   O     0.22774   0.87154   0.16667   0.00000  Uiso   1.00
O268   O     0.10559   0.79513   0.16666   0.00000  Uiso   1.00
C269   C     0.08669   0.83333   0.16689   0.00000  Uiso   1.00
C270   C     0.24664   0.83333   0.16644   0.00000  Uiso   1.00
O271   O     0.16667   0.87155   0.09511   0.00000  Uiso   1.00
O272   O     0.16666   0.79512   0.23822   0.00000  Uiso   1.00
O273   O     0.16666   0.87155   0.23822   0.00000  Uiso   1.00
O274   O     0.16667   0.79512   0.09511   0.00000  Uiso   1.00
C275   C     0.16659   0.83333   0.07296   0.00000  Uiso   1.00
C276   C     0.16674   0.83334   0.26038   0.00000  Uiso   1.00
Zn277  Zn    0.16667   0.88437   0.16667   0.00000  Uiso   1.00
Zn278  Zn    0.16667   0.78229   0.16667   0.00000  Uiso   1.00
C279   C     0.16664   0.83333   0.02181   0.00000  Uiso   1.00
C280   C     0.16669   0.83334   0.31152   0.00000  Uiso   1.00
C281   C     0.02128   0.79238   0.16700   0.00000  Uiso   1.00
C282   C     0.31206   0.87429   0.16631   0.00000  Uiso   1.00
C283   C     0.31207   0.79238   0.16619   0.00000  Uiso   1.00
C284   C     0.02127   0.87429   0.16713   0.00000  Uiso   1.00
H285   H     0.03733   0.76041   0.16753   0.00000  Uiso   1.00
H286   H     0.29600   0.90625   0.16577   0.00000  Uiso   1.00
H287   H     0.29602   0.76041   0.16556   0.00000  Uiso   1.00
H288   H     0.03731   0.90625   0.16776   0.00000  Uiso   1.00
C289   C     0.29083   0.83333   0.16617   0.00000  Uiso   1.00
C290   C     0.04250   0.83333   0.16715   0.00000  Uiso   1.00
C291   C     0.18722   0.69060   0.20351   0.00000  Uiso   1.00
C292   C     0.14611   0.97606   0.12983   0.00000  Uiso   1.00
C293   C     0.14610   0.69060   0.12984   0.00000  Uiso   1.00
C294   C     0.18722   0.97606   0.20351   0.00000  Uiso   1.00
N295   N     0.16667   0.95240   0.16667   0.00000  Uiso   1.00
N296   N     0.16667   0.71427   0.16667   0.00000  Uiso   1.00
N297   N     0.20937   0.71407   0.24220   0.00000  Uiso   1.00
O298   O     0.24795   0.72507   0.23562   0.00000  Uiso   1.00
O299   O     0.19440   0.71534   0.28709   0.00000  Uiso   1.00
N300   N     0.12398   0.95260   0.09112   0.00000  Uiso   1.00
O301   O     0.08542   0.94150   0.09773   0.00000  Uiso   1.00
O302   O     0.13891   0.95145   0.04620   0.00000  Uiso   1.00
N303   N     0.12387   0.71408   0.09122   0.00000  Uiso   1.00
O304   O     0.13900   0.71575   0.04642   0.00000  Uiso   1.00
O305   O     0.08507   0.72435   0.09761   0.00000  Uiso   1.00
N306   N     0.20939   0.95259   0.24218   0.00000  Uiso   1.00
O307   O     0.19434   0.95116   0.28703   0.00000  Uiso   1.00
O308   O     0.24806   0.94187   0.23569   0.00000  Uiso   1.00
O309   O     0.43892   0.87154   0.16666   0.00000  Uiso   1.00
O310   O     0.56108   0.79513   0.16667   0.00000  Uiso   1.00
O311   O     0.56108   0.87154   0.16667   0.00000  Uiso   1.00
O312   O     0.43892   0.79513   0.16666   0.00000  Uiso   1.00
C313   C     0.42003   0.83333   0.16689   0.00000  Uiso   1.00
C314   C     0.57997   0.83333   0.16644   0.00000  Uiso   1.00
O315   O     0.50000   0.87155   0.09511   0.00000  Uiso   1.00
O316   O     0.50000   0.79512   0.23822   0.00000  Uiso   1.00
O317   O     0.50000   0.87155   0.23822   0.00000  Uiso   1.00
O318   O     0.50000   0.79512   0.09511   0.00000  Uiso   1.00
C319   C     0.49993   0.83333   0.07296   0.00000  Uiso   1.00
C320   C     0.50007   0.83334   0.26038   0.00000  Uiso   1.00
Zn321  Zn    0.50000   0.88437   0.16667   0.00000  Uiso   1.00
Zn322  Zn    0.50000   0.78229   0.16667   0.00000  Uiso   1.00
C323   C     0.49997   0.83333   0.02181   0.00000  Uiso   1.00
C324   C     0.50003   0.83334   0.31152   0.00000  Uiso   1.00
C325   C     0.35461   0.79238   0.16700   0.00000  Uiso   1.00
C326   C     0.64539   0.87429   0.16631   0.00000  Uiso   1.00
C327   C     0.64540   0.79238   0.16619   0.00000  Uiso   1.00
C328   C     0.35460   0.87429   0.16713   0.00000  Uiso   1.00
H329   H     0.37067   0.76041   0.16753   0.00000  Uiso   1.00
H330   H     0.62934   0.90625   0.16577   0.00000  Uiso   1.00
H331   H     0.62935   0.76041   0.16556   0.00000  Uiso   1.00
H332   H     0.37065   0.90625   0.16776   0.00000  Uiso   1.00
C333   C     0.62417   0.83333   0.16617   0.00000  Uiso   1.00
C334   C     0.37583   0.83333   0.16715   0.00000  Uiso   1.00
C335   C     0.52055   0.69060   0.20351   0.00000  Uiso   1.00
C336   C     0.47944   0.97606   0.12983   0.00000  Uiso   1.00
C337   C     0.47943   0.69060   0.12984   0.00000  Uiso   1.00
C338   C     0.52055   0.97606   0.20351   0.00000  Uiso   1.00
N339   N     0.50000   0.95240   0.16667   0.00000  Uiso   1.00
N340   N     0.50000   0.71427   0.16667   0.00000  Uiso   1.00
N341   N     0.54270   0.71407   0.24220   0.00000  Uiso   1.00
O342   O     0.58129   0.72507   0.23562   0.00000  Uiso   1.00
O343   O     0.52774   0.71534   0.28709   0.00000  Uiso   1.00
N344   N     0.45731   0.95260   0.09112   0.00000  Uiso   1.00
O345   O     0.41875   0.94150   0.09773   0.00000  Uiso   1.00
O346   O     0.47224   0.95145   0.04620   0.00000  Uiso   1.00
N347   N     0.45720   0.71408   0.09122   0.00000  Uiso   1.00
O348   O     0.47233   0.71575   0.04642   0.00000  Uiso   1.00
O349   O     0.41840   0.72435   0.09761   0.00000  Uiso   1.00
N350   N     0.54272   0.95259   0.24218   0.00000  Uiso   1.00
O351   O     0.52767   0.95116   0.28703   0.00000  Uiso   1.00
O352   O     0.58139   0.94187   0.23569   0.00000  Uiso   1.00
O353   O     0.77226   0.87154   0.16666   0.00000  Uiso   1.00
O354   O     0.89441   0.79513   0.16667   0.00000  Uiso   1.00
O355   O     0.89441   0.87154   0.16667   0.00000  Uiso   1.00
O356   O     0.77226   0.79513   0.16666   0.00000  Uiso   1.00
C357   C     0.75336   0.83333   0.16689   0.00000  Uiso   1.00
C358   C     0.91331   0.83333   0.16644   0.00000  Uiso   1.00
O359   O     0.83334   0.87155   0.09511   0.00000  Uiso   1.00
O360   O     0.83333   0.79512   0.23822   0.00000  Uiso   1.00
O361   O     0.83333   0.87155   0.23822   0.00000  Uiso   1.00
O362   O     0.83334   0.79512   0.09511   0.00000  Uiso   1.00
C363   C     0.83326   0.83333   0.07296   0.00000  Uiso   1.00
C364   C     0.83341   0.83334   0.26038   0.00000  Uiso   1.00
Zn365  Zn    0.83333   0.88437   0.16667   0.00000  Uiso   1.00
Zn366  Zn    0.83333   0.78229   0.16667   0.00000  Uiso   1.00
C367   C     0.83331   0.83333   0.02181   0.00000  Uiso   1.00
C368   C     0.83336   0.83334   0.31152   0.00000  Uiso   1.00
C369   C     0.68794   0.79238   0.16700   0.00000  Uiso   1.00
C370   C     0.97872   0.87429   0.16631   0.00000  Uiso   1.00
C371   C     0.97873   0.79238   0.16619   0.00000  Uiso   1.00
C372   C     0.68793   0.87429   0.16713   0.00000  Uiso   1.00
H373   H     0.70400   0.76041   0.16753   0.00000  Uiso   1.00
H374   H     0.96267   0.90625   0.16577   0.00000  Uiso   1.00
H375   H     0.96269   0.76041   0.16556   0.00000  Uiso   1.00
H376   H     0.70398   0.90625   0.16776   0.00000  Uiso   1.00
C377   C     0.95750   0.83333   0.16617   0.00000  Uiso   1.00
C378   C     0.70917   0.83333   0.16715   0.00000  Uiso   1.00
C379   C     0.85389   0.69060   0.20351   0.00000  Uiso   1.00
C380   C     0.81277   0.97606   0.12983   0.00000  Uiso   1.00
C381   C     0.81277   0.69060   0.12984   0.00000  Uiso   1.00
C382   C     0.85388   0.97606   0.20351   0.00000  Uiso   1.00
N383   N     0.83333   0.95240   0.16667   0.00000  Uiso   1.00
N384   N     0.83333   0.71427   0.16667   0.00000  Uiso   1.00
N385   N     0.87604   0.71407   0.24220   0.00000  Uiso   1.00
O386   O     0.91462   0.72507   0.23562   0.00000  Uiso   1.00
O387   O     0.86107   0.71534   0.28709   0.00000  Uiso   1.00
N388   N     0.79064   0.95260   0.09112   0.00000  Uiso   1.00
O389   O     0.75209   0.94150   0.09773   0.00000  Uiso   1.00
O390   O     0.80557   0.95145   0.04620   0.00000  Uiso   1.00
N391   N     0.79054   0.71408   0.09122   0.00000  Uiso   1.00
O392   O     0.80567   0.71575   0.04642   0.00000  Uiso   1.00
O393   O     0.75174   0.72435   0.09761   0.00000  Uiso   1.00
N394   N     0.87605   0.95259   0.24218   0.00000  Uiso   1.00
O395   O     0.86101   0.95116   0.28703   0.00000  Uiso   1.00
O396   O     0.91472   0.94187   0.23569   0.00000  Uiso   1.00
O397   O     0.10559   0.20487   0.50000   0.00000  Uiso   1.00
O398   O     0.22774   0.12846   0.50000   0.00000  Uiso   1.00
O399   O     0.22774   0.20487   0.50000   0.00000  Uiso   1.00
O400   O     0.10559   0.12846   0.50000   0.00000  Uiso   1.00
C401   C     0.08669   0.16667   0.50023   0.00000  Uiso   1.00
C402   C     0.24664   0.16666   0.49977   0.00000  Uiso   1.00
O403   O     0.16667   0.20488   0.42845   0.00000  Uiso   1.00
O404   O     0.16666   0.12845   0.57155   0.00000  Uiso   1.00
O405   O     0.16666   0.20488   0.57155   0.00000  Uiso   1.00
O406   O     0.16667   0.12845   0.42845   0.00000  Uiso   1.00
C407   C     0.16659   0.16666   0.40629   0.00000  Uiso   1.00
C408   C     0.16674   0.16667   0.59371   0.00000  Uiso   1.00
Zn409  Zn    0.16667   0.21771   0.50000   0.00000  Uiso   1.00
Zn410  Zn    0.16667   0.11563   0.50000   0.00000  Uiso   1.00
C411   C     0.16664   0.16666   0.35515   0.00000  Uiso   1.00
C412   C     0.16669   0.16667   0.64485   0.00000  Uiso   1.00
C413   C     0.02128   0.12571   0.50033   0.00000  Uiso   1.00
C414   C     0.31206   0.20762   0.49964   0.00000  Uiso   1.00
C415   C     0.31207   0.12571   0.49952   0.00000  Uiso   1.00
C416   C     0.02127   0.20762   0.50046   0.00000  Uiso   1.00
H417   H     0.03733   0.09375   0.50086   0.00000  Uiso   1.00
H418   H     0.29600   0.23959   0.49911   0.00000  Uiso   1.00
H419   H     0.29602   0.09374   0.49889   0.00000  Uiso   1.00
H420   H     0.03731   0.23959   0.50110   0.00000  Uiso   1.00
C421   C     0.29083   0.16666   0.49950   0.00000  Uiso   1.00
C422   C     0.04250   0.16667   0.50048   0.00000  Uiso   1.00
C423   C     0.18722   0.02394   0.53685   0.00000  Uiso   1.00
C424   C     0.14611   0.30940   0.46316   0.00000  Uiso   1.00
C425   C     0.14610   0.02394   0.46317   0.00000  Uiso   1.00
C426   C     0.18722   0.30940   0.53685   0.00000  Uiso   1.00
N427   N     0.16667   0.28573   0.50000   0.00000  Uiso   1.00
N428   N     0.16667   0.04760   0.50000   0.00000  Uiso   1.00
N429   N     0.20937   0.04741   0.57553   0.00000  Uiso   1.00
O430   O     0.24795   0.05840   0.56895   0.00000  Uiso   1.00
O431   O     0.19440   0.04867   0.62043   0.00000  Uiso   1.00
N432   N     0.12398   0.28593   0.42446   0.00000  Uiso   1.00
O433   O     0.08542   0.27483   0.43106   0.00000  Uiso   1.00
O434   O     0.13891   0.28478   0.37954   0.00000  Uiso   1.00
N435   N     0.12387   0.04741   0.42456   0.00000  Uiso   1.00
O436   O     0.13900   0.04908   0.37976   0.00000  Uiso   1.00
O437   O     0.08507   0.05768   0.43094   0.00000  Uiso   1.00
N438   N     0.20939   0.28593   0.57551   0.00000  Uiso   1.00
O439   O     0.19434   0.28450   0.62036   0.00000  Uiso   1.00
O440   O     0.24806   0.27520   0.56902   0.00000  Uiso   1.00
O441   O     0.43892   0.20487   0.50000   0.00000  Uiso   1.00
O442   O     0.56108   0.12846   0.50000   0.00000  Uiso   1.00
O443   O     0.56108   0.20487   0.50000   0.00000  Uiso   1.00
O444   O     0.43892   0.12846   0.50000   0.00000  Uiso   1.00
C445   C     0.42003   0.16667   0.50023   0.00000  Uiso   1.00
C446   C     0.57997   0.16666   0.49977   0.00000  Uiso   1.00
O447   O     0.50000   0.20488   0.42845   0.00000  Uiso   1.00
O448   O     0.50000   0.12845   0.57155   0.00000  Uiso   1.00
O449   O     0.50000   0.20488   0.57155   0.00000  Uiso   1.00
O450   O     0.50000   0.12845   0.42845   0.00000  Uiso   1.00
C451   C     0.49993   0.16666   0.40629   0.00000  Uiso   1.00
C452   C     0.50007   0.16667   0.59371   0.00000  Uiso   1.00
Zn453  Zn    0.50000   0.21771   0.50000   0.00000  Uiso   1.00
Zn454  Zn    0.50000   0.11563   0.50000   0.00000  Uiso   1.00
C455   C     0.49997   0.16666   0.35515   0.00000  Uiso   1.00
C456   C     0.50003   0.16667   0.64485   0.00000  Uiso   1.00
C457   C     0.35461   0.12571   0.50033   0.00000  Uiso   1.00
C458   C     0.64539   0.20762   0.49964   0.00000  Uiso   1.00
C459   C     0.64540   0.12571   0.49952   0.00000  Uiso   1.00
C460   C     0.35460   0.20762   0.50046   0.00000  Uiso   1.00
H461   H     0.37067   0.09375   0.50086   0.00000  Uiso   1.00
H462   H     0.62934   0.23959   0.49911   0.00000  Uiso   1.00
H463   H     0.62935   0.09374   0.49889   0.00000  Uiso   1.00
H464   H     0.37065   0.23959   0.50110   0.00000  Uiso   1.00
C465   C     0.62417   0.16666   0.49950   0.00000  Uiso   1.00
C466   C     0.37583   0.16667   0.50048   0.00000  Uiso   1.00
C467   C     0.52055   0.02394   0.53685   0.00000  Uiso   1.00
C468   C     0.47944   0.30940   0.46316   0.00000  Uiso   1.00
C469   C     0.47943   0.02394   0.46317   0.00000  Uiso   1.00
C470   C     0.52055   0.30940   0.53685   0.00000  Uiso   1.00
N471   N     0.50000   0.28573   0.50000   0.00000  Uiso   1.00
N472   N     0.50000   0.04760   0.50000   0.00000  Uiso   1.00
N473   N     0.54270   0.04741   0.57553   0.00000  Uiso   1.00
O474   O     0.58129   0.05840   0.56895   0.00000  Uiso   1.00
O475   O     0.52774   0.04867   0.62043   0.00000  Uiso   1.00
N476   N     0.45731   0.28593   0.42446   0.00000  Uiso   1.00
O477   O     0.41875   0.27483   0.43106   0.00000  Uiso   1.00
O478   O     0.47224   0.28478   0.37954   0.00000  Uiso   1.00
N479   N     0.45720   0.04741   0.42456   0.00000  Uiso   1.00
O480   O     0.47233   0.04908   0.37976   0.00000  Uiso   1.00
O481   O     0.41840   0.05768   0.43094   0.00000  Uiso   1.00
N482   N     0.54272   0.28593   0.57551   0.00000  Uiso   1.00
O483   O     0.52767   0.28450   0.62036   0.00000  Uiso   1.00
O484   O     0.58139   0.27520   0.56902   0.00000  Uiso   1.00
O485   O     0.77226   0.20487   0.50000   0.00000  Uiso   1.00
O486   O     0.89441   0.12846   0.50000   0.00000  Uiso   1.00
O487   O     0.89441   0.20487   0.50000   0.00000  Uiso   1.00
O488   O     0.77226   0.12846   0.50000   0.00000  Uiso   1.00
C489   C     0.75336   0.16667   0.50023   0.00000  Uiso   1.00
C490   C     0.91331   0.16666   0.49977   0.00000  Uiso   1.00
O491   O     0.83334   0.20488   0.42845   0.00000  Uiso   1.00
O492   O     0.83333   0.12845   0.57155   0.00000  Uiso   1.00
O493   O     0.83333   0.20488   0.57155   0.00000  Uiso   1.00
O494   O     0.83334   0.12845   0.42845   0.00000  Uiso   1.00
C495   C     0.83326   0.16666   0.40629   0.00000  Uiso   1.00
C496   C     0.83341   0.16667   0.59371   0.00000  Uiso   1.00
Zn497  Zn    0.83333   0.21771   0.50000   0.00000  Uiso   1.00
Zn498  Zn    0.83333   0.11563   0.50000   0.00000  Uiso   1.00
C499   C     0.83331   0.16666   0.35515   0.00000  Uiso   1.00
C500   C     0.83336   0.16667   0.64485   0.00000  Uiso   1.00
C501   C     0.68794   0.12571   0.50033   0.00000  Uiso   1.00
C502   C     0.97872   0.20762   0.49964   0.00000  Uiso   1.00
C503   C     0.97873   0.12571   0.49952   0.00000  Uiso   1.00
C504   C     0.68793   0.20762   0.50046   0.00000  Uiso   1.00
H505   H     0.70400   0.09375   0.50086   0.00000  Uiso   1.00
H506   H     0.96267   0.23959   0.49911   0.00000  Uiso   1.00
H507   H     0.96269   0.09374   0.49889   0.00000  Uiso   1.00
H508   H     0.70398   0.23959   0.50110   0.00000  Uiso   1.00
C509   C     0.95750   0.16666   0.49950   0.00000  Uiso   1.00
C510   C     0.70917   0.16667   0.50048   0.00000  Uiso   1.00
C511   C     0.85389   0.02394   0.53685   0.00000  Uiso   1.00
C512   C     0.81277   0.30940   0.46316   0.00000  Uiso   1.00
C513   C     0.81277   0.02394   0.46317   0.00000  Uiso   1.00
C514   C     0.85388   0.30940   0.53685   0.00000  Uiso   1.00
N515   N     0.83333   0.28573   0.50000   0.00000  Uiso   1.00
N516   N     0.83333   0.04760   0.50000   0.00000  Uiso   1.00
N517   N     0.87604   0.04741   0.57553   0.00000  Uiso   1.00
O518   O     0.91462   0.05840   0.56895   0.00000  Uiso   1.00
O519   O     0.86107   0.04867   0.62043   0.00000  Uiso   1.00
N520   N     0.79064   0.28593   0.42446   0.00000  Uiso   1.00
O521   O     0.75209   0.27483   0.43106   0.00000  Uiso   1.00
O522   O     0.80557   0.28478   0.37954   0.00000  Uiso   1.00
N523   N     0.79054   0.04741   0.42456   0.00000  Uiso   1.00
O524   O     0.80567   0.04908   0.37976   0.00000  Uiso   1.00
O525   O     0.75174   0.05768   0.43094   0.00000  Uiso   1.00
N526   N     0.87605   0.28593   0.57551   0.00000  Uiso   1.00
O527   O     0.86101   0.28450   0.62036   0.00000  Uiso   1.00
O528   O     0.91472   0.27520   0.56902   0.00000  Uiso   1.00
O529   O     0.10559   0.53821   0.50000   0.00000  Uiso   1.00
O530   O     0.22774   0.46179   0.50000   0.00000  Uiso   1.00
O531   O     0.22774   0.53821   0.50000   0.00000  Uiso   1.00
O532   O     0.10559   0.46179   0.50000   0.00000  Uiso   1.00
C533   C     0.08669   0.50000   0.50023   0.00000  Uiso   1.00
C534   C     0.24664   0.50000   0.49977   0.00000  Uiso   1.00
O535   O     0.16667   0.53821   0.42845   0.00000  Uiso   1.00
O536   O     0.16666   0.46179   0.57155   0.00000  Uiso   1.00
O537   O     0.16666   0.53821   0.57155   0.00000  Uiso   1.00
O538   O     0.16667   0.46179   0.42845   0.00000  Uiso   1.00
C539   C     0.16659   0.50000   0.40629   0.00000  Uiso   1.00
C540   C     0.16674   0.50000   0.59371   0.00000  Uiso   1.00
Zn541  Zn    0.16667   0.55104   0.50000   0.00000  Uiso   1.00
Zn542  Zn    0.16667   0.44896   0.50000   0.00000  Uiso   1.00
C543   C     0.16664   0.50000   0.35515   0.00000  Uiso   1.00
C544   C     0.16669   0.50000   0.64485   0.00000  Uiso   1.00
C545   C     0.02128   0.45905   0.50033   0.00000  Uiso   1.00
C546   C     0.31206   0.54095   0.49964   0.00000  Uiso   1.00
C547   C     0.31207   0.45904   0.49952   0.00000  Uiso   1.00
C548   C     0.02127   0.54095   0.50046   0.00000  Uiso   1.00
H549   H     0.03733   0.42708   0.50086   0.00000  Uiso   1.00
H550   H     0.29600   0.57292   0.49911   0.00000  Uiso   1.00
H551   H     0.29602   0.42708   0.49889   0.00000  Uiso   1.00
H552   H     0.03731   0.57292   0.50110   0.00000  Uiso   1.00
C553   C     0.29083   0.50000   0.49950   0.00000  Uiso   1.00
C554   C     0.04250   0.50000   0.50048   0.00000  Uiso   1.00
C555   C     0.18722   0.35727   0.53685   0.00000  Uiso   1.00
C556   C     0.14611   0.64273   0.46316   0.00000  Uiso   1.00
C557   C     0.14610   0.35727   0.46317   0.00000  Uiso   1.00
C558   C     0.18722   0.64273   0.53685   0.00000  Uiso   1.00
N559   N     0.16667   0.61907   0.50000   0.00000  Uiso   1.00
N560   N     0.16667   0.38093   0.50000   0.00000  Uiso   1.00
N561   N     0.20937   0.38074   0.57553   0.00000  Uiso   1.00
O562   O     0.24795   0.39174   0.56895   0.00000  Uiso   1.00
O563   O     0.19440   0.38200   0.62043   0.00000  Uiso   1.00
N564   N     0.12398   0.61927   0.42446   0.00000  Uiso   1.00
O565   O     0.08542   0.60816   0.43106   0.00000  Uiso   1.00
O566   O     0.13891   0.61811   0.37954   0.00000  Uiso   1.00
N567   N     0.12387   0.38074   0.42456   0.00000  Uiso   1.00
O568   O     0.13900   0.38241   0.37976   0.00000  Uiso   1.00
O569   O     0.08507   0.39101   0.43094   0.00000  Uiso   1.00
N570   N     0.20939   0.61926   0.57551   0.00000  Uiso   1.00
O571   O     0.19434   0.61783   0.62036   0.00000  Uiso   1.00
O572   O     0.24806   0.60854   0.56902   0.00000  Uiso   1.00
O573   O     0.43892   0.53821   0.50000   0.00000  Uiso   1.00
O574   O     0.56108   0.46179   0.50000   0.00000  Uiso   1.00
O575   O     0.56108   0.53821   0.50000   0.00000  Uiso   1.00
O576   O     0.43892   0.46179   0.50000   0.00000  Uiso   1.00
C577   C     0.42003   0.50000   0.50023   0.00000  Uiso   1.00
C578   C     0.57997   0.50000   0.49977   0.00000  Uiso   1.00
O579   O     0.50000   0.53821   0.42845   0.00000  Uiso   1.00
O580   O     0.50000   0.46179   0.57155   0.00000  Uiso   1.00
O581   O     0.50000   0.53821   0.57155   0.00000  Uiso   1.00
O582   O     0.50000   0.46179   0.42845   0.00000  Uiso   1.00
C583   C     0.49993   0.50000   0.40629   0.00000  Uiso   1.00
C584   C     0.50007   0.50000   0.59371   0.00000  Uiso   1.00
Zn585  Zn    0.50000   0.55104   0.50000   0.00000  Uiso   1.00
Zn586  Zn    0.50000   0.44896   0.50000   0.00000  Uiso   1.00
C587   C     0.49997   0.50000   0.35515   0.00000  Uiso   1.00
C588   C     0.50003   0.50000   0.64485   0.00000  Uiso   1.00
C589   C     0.35461   0.45905   0.50033   0.00000  Uiso   1.00
C590   C     0.64539   0.54095   0.49964   0.00000  Uiso   1.00
C591   C     0.64540   0.45904   0.49952   0.00000  Uiso   1.00
C592   C     0.35460   0.54095   0.50046   0.00000  Uiso   1.00
H593   H     0.37067   0.42708   0.50086   0.00000  Uiso   1.00
H594   H     0.62934   0.57292   0.49911   0.00000  Uiso   1.00
H595   H     0.62935   0.42708   0.49889   0.00000  Uiso   1.00
H596   H     0.37065   0.57292   0.50110   0.00000  Uiso   1.00
C597   C     0.62417   0.50000   0.49950   0.00000  Uiso   1.00
C598   C     0.37583   0.50000   0.50048   0.00000  Uiso   1.00
C599   C     0.52055   0.35727   0.53685   0.00000  Uiso   1.00
C600   C     0.47944   0.64273   0.46316   0.00000  Uiso   1.00
C601   C     0.47943   0.35727   0.46317   0.00000  Uiso   1.00
C602   C     0.52055   0.64273   0.53685   0.00000  Uiso   1.00
N603   N     0.50000   0.61907   0.50000   0.00000  Uiso   1.00
N604   N     0.50000   0.38093   0.50000   0.00000  Uiso   1.00
N605   N     0.54270   0.38074   0.57553   0.00000  Uiso   1.00
O606   O     0.58129   0.39174   0.56895   0.00000  Uiso   1.00
O607   O     0.52774   0.38200   0.62043   0.00000  Uiso   1.00
N608   N     0.45731   0.61927   0.42446   0.00000  Uiso   1.00
O609   O     0.41875   0.60816   0.43106   0.00000  Uiso   1.00
O610   O     0.47224   0.61811   0.37954   0.00000  Uiso   1.00
N611   N     0.45720   0.38074   0.42456   0.00000  Uiso   1.00
O612   O     0.47233   0.38241   0.37976   0.00000  Uiso   1.00
O613   O     0.41840   0.39101   0.43094   0.00000  Uiso   1.00
N614   N     0.54272   0.61926   0.57551   0.00000  Uiso   1.00
O615   O     0.52767   0.61783   0.62036   0.00000  Uiso   1.00
O616   O     0.58139   0.60854   0.56902   0.00000  Uiso   1.00
O617   O     0.77226   0.53821   0.50000   0.00000  Uiso   1.00
O618   O     0.89441   0.46179   0.50000   0.00000  Uiso   1.00
O619   O     0.89441   0.53821   0.50000   0.00000  Uiso   1.00
O620   O     0.77226   0.46179   0.50000   0.00000  Uiso   1.00
C621   C     0.75336   0.50000   0.50023   0.00000  Uiso   1.00
C622   C     0.91331   0.50000   0.49977   0.00000  Uiso   1.00
O623   O     0.83334   0.53821   0.42845   0.00000  Uiso   1.00
O624   O     0.83333   0.46179   0.57155   0.00000  Uiso   1.00
O625   O     0.83333   0.53821   0.57155   0.00000  Uiso   1.00
O626   O     0.83334   0.46179   0.42845   0.00000  Uiso   1.00
C627   C     0.83326   0.50000   0.40629   0.00000  Uiso   1.00
C628   C     0.83341   0.50000   0.59371   0.00000  Uiso   1.00
Zn629  Zn    0.83333   0.55104   0.50000   0.00000  Uiso   1.00
Zn630  Zn    0.83333   0.44896   0.50000   0.00000  Uiso   1.00
C631   C     0.83331   0.50000   0.35515   0.00000  Uiso   1.00
C632   C     0.83336   0.50000   0.64485   0.00000  Uiso   1.00
C633   C     0.68794   0.45905   0.50033   0.00000  Uiso   1.00
C634   C     0.97872   0.54095   0.49964   0.00000  Uiso   1.00
C635   C     0.97873   0.45904   0.49952   0.00000  Uiso   1.00
C636   C     0.68793   0.54095   0.50046   0.00000  Uiso   1.00
H637   H     0.70400   0.42708   0.50086   0.00000  Uiso   1.00
H638   H     0.96267   0.57292   0.49911   0.00000  Uiso   1.00
H639   H     0.96269   0.42708   0.49889   0.00000  Uiso   1.00
H640   H     0.70398   0.57292   0.50110   0.00000  Uiso   1.00
C641   C     0.95750   0.50000   0.49950   0.00000  Uiso   1.00
C642   C     0.70917   0.50000   0.50048   0.00000  Uiso   1.00
C643   C     0.85389   0.35727   0.53685   0.00000  Uiso   1.00
C644   C     0.81277   0.64273   0.46316   0.00000  Uiso   1.00
C645   C     0.81277   0.35727   0.46317   0.00000  Uiso   1.00
C646   C     0.85388   0.64273   0.53685   0.00000  Uiso   1.00
N647   N     0.83333   0.61907   0.50000   0.00000  Uiso   1.00
N648   N     0.83333   0.38093   0.50000   0.00000  Uiso   1.00
N649   N     0.87604   0.38074   0.57553   0.00000  Uiso   1.00
O650   O     0.91462   0.39174   0.56895   0.00000  Uiso   1.00
O651   O     0.86107   0.38200   0.62043   0.00000  Uiso   1.00
N652   N     0.79064   0.61927   0.42446   0.00000  Uiso   1.00
O653   O     0.75209   0.60816   0.43106   0.00000  Uiso   1.00
O654   O     0.80557   0.61811   0.37954   0.00000  Uiso   1.00
N655   N     0.79054   0.38074   0.42456   0.00000  Uiso   1.00
O656   O     0.80567   0.38241   0.37976   0.00000  Uiso   1.00
O657   O     0.75174   0.39101   0.43094   0.00000  Uiso   1.00
N658   N     0.87605   0.61926   0.57551   0.00000  Uiso   1.00
O659   O     0.86101   0.61783   0.62036   0.00000  Uiso   1.00
O660   O     0.91472   0.60854   0.56902   0.00000  Uiso   1.00
O661   O     0.10559   0.87154   0.50000   0.00000  Uiso   1.00
O662   O     0.22774   0.79513   0.50000   0.00000  Uiso   1.00
O663   O     0.22774   0.87154   0.50000   0.00000  Uiso   1.00
O664   O     0.10559   0.79513   0.50000   0.00000  Uiso   1.00
C665   C     0.08669   0.83333   0.50023   0.00000  Uiso   1.00
C666   C     0.24664   0.83333   0.49977   0.00000  Uiso   1.00
O667   O     0.16667   0.87155   0.42845   0.00000  Uiso   1.00
O668   O     0.16666   0.79512   0.57155   0.00000  Uiso   1.00
O669   O     0.16666   0.87155   0.57155   0.00000  Uiso   1.00
O670   O     0.16667   0.79512   0.42845   0.00000  Uiso   1.00
C671   C     0.16659   0.83333   0.40629   0.00000  Uiso   1.00
C672   C     0.16674   0.83334   0.59371   0.00000  Uiso   1.00
Zn673  Zn    0.16667   0.88437   0.50000   0.00000  Uiso   1.00
Zn674  Zn    0.16667   0.78229   0.50000   0.00000  Uiso   1.00
C675   C     0.16664   0.83333   0.35515   0.00000  Uiso   1.00
C676   C     0.16669   0.83334   0.64485   0.00000  Uiso   1.00
C677   C     0.02128   0.79238   0.50033   0.00000  Uiso   1.00
C678   C     0.31206   0.87429   0.49964   0.00000  Uiso   1.00
C679   C     0.31207   0.79238   0.49952   0.00000  Uiso   1.00
C680   C     0.02127   0.87429   0.50046   0.00000  Uiso   1.00
H681   H     0.03733   0.76041   0.50086   0.00000  Uiso   1.00
H682   H     0.29600   0.90625   0.49911   0.00000  Uiso   1.00
H683   H     0.29602   0.76041   0.49889   0.00000  Uiso   1.00
H684   H     0.03731   0.90625   0.50110   0.00000  Uiso   1.00
C685   C     0.29083   0.83333   0.49950   0.00000  Uiso   1.00
C686   C     0.04250   0.83333   0.50048   0.00000  Uiso   1.00
C687   C     0.18722   0.69060   0.53685   0.00000  Uiso   1.00
C688   C     0.14611   0.97606   0.46316   0.00000  Uiso   1.00
C689   C     0.14610   0.69060   0.46317   0.00000  Uiso   1.00
C690   C     0.18722   0.97606   0.53685   0.00000  Uiso   1.00
N691   N     0.16667   0.95240   0.50000   0.00000  Uiso   1.00
N692   N     0.16667   0.71427   0.50000   0.00000  Uiso   1.00
N693   N     0.20937   0.71407   0.57553   0.00000  Uiso   1.00
O694   O     0.24795   0.72507   0.56895   0.00000  Uiso   1.00
O695   O     0.19440   0.71534   0.62043   0.00000  Uiso   1.00
N696   N     0.12398   0.95260   0.42446   0.00000  Uiso   1.00
O697   O     0.08542   0.94150   0.43106   0.00000  Uiso   1.00
O698   O     0.13891   0.95145   0.37954   0.00000  Uiso   1.00
N699   N     0.12387   0.71408   0.42456   0.00000  Uiso   1.00
O700   O     0.13900   0.71575   0.37976   0.00000  Uiso   1.00
O701   O     0.08507   0.72435   0.43094   0.00000  Uiso   1.00
N702   N     0.20939   0.95259   0.57551   0.00000  Uiso   1.00
O703   O     0.19434   0.95116   0.62036   0.00000  Uiso   1.00
O704   O     0.24806   0.94187   0.56902   0.00000  Uiso   1.00
O705   O     0.43892   0.87154   0.50000   0.00000  Uiso   1.00
O706   O     0.56108   0.79513   0.50000   0.00000  Uiso   1.00
O707   O     0.56108   0.87154   0.50000   0.00000  Uiso   1.00
O708   O     0.43892   0.79513   0.50000   0.00000  Uiso   1.00
C709   C     0.42003   0.83333   0.50023   0.00000  Uiso   1.00
C710   C     0.57997   0.83333   0.49977   0.00000  Uiso   1.00
O711   O     0.50000   0.87155   0.42845   0.00000  Uiso   1.00
O712   O     0.50000   0.79512   0.57155   0.00000  Uiso   1.00
O713   O     0.50000   0.87155   0.57155   0.00000  Uiso   1.00
O714   O     0.50000   0.79512   0.42845   0.00000  Uiso   1.00
C715   C     0.49993   0.83333   0.40629   0.00000  Uiso   1.00
C716   C     0.50007   0.83334   0.59371   0.00000  Uiso   1.00
Zn717  Zn    0.50000   0.88437   0.50000   0.00000  Uiso   1.00
Zn718  Zn    0.50000   0.78229   0.50000   0.00000  Uiso   1.00
C719   C     0.49997   0.83333   0.35515   0.00000  Uiso   1.00
C720   C     0.50003   0.83334   0.64485   0.00000  Uiso   1.00
C721   C     0.35461   0.79238   0.50033   0.00000  Uiso   1.00
C722   C     0.64539   0.87429   0.49964   0.00000  Uiso   1.00
C723   C     0.64540   0.79238   0.49952   0.00000  Uiso   1.00
C724   C     0.35460   0.87429   0.50046   0.00000  Uiso   1.00
H725   H     0.37067   0.76041   0.50086   0.00000  Uiso   1.00
H726   H     0.62934   0.90625   0.49911   0.00000  Uiso   1.00
H727   H     0.62935   0.76041   0.49889   0.00000  Uiso   1.00
H728   H     0.37065   0.90625   0.50110   0.00000  Uiso   1.00
C729   C     0.62417   0.83333   0.49950   0.00000  Uiso   1.00
C730   C     0.37583   0.83333   0.50048   0.00000  Uiso   1.00
C731   C     0.52055   0.69060   0.53685   0.00000  Uiso   1.00
C732   C     0.47944   0.97606   0.46316   0.00000  Uiso   1.00
C733   C     0.47943   0.69060   0.46317   0.00000  Uiso   1.00
C734   C     0.52055   0.97606   0.53685   0.00000  Uiso   1.00
N735   N     0.50000   0.95240   0.50000   0.00000  Uiso   1.00
N736   N     0.50000   0.71427   0.50000   0.00000  Uiso   1.00
N737   N     0.54270   0.71407   0.57553   0.00000  Uiso   1.00
O738   O     0.58129   0.72507   0.56895   0.00000  Uiso   1.00
O739   O     0.52774   0.71534   0.62043   0.00000  Uiso   1.00
N740   N     0.45731   0.95260   0.42446   0.00000  Uiso   1.00
O741   O     0.41875   0.94150   0.43106   0.00000  Uiso   1.00
O742   O     0.47224   0.95145   0.37954   0.00000  Uiso   1.00
N743   N     0.45720   0.71408   0.42456   0.00000  Uiso   1.00
O744   O     0.47233   0.71575   0.37976   0.00000  Uiso   1.00
O745   O     0.41840   0.72435   0.43094   0.00000  Uiso   1.00
N746   N     0.54272   0.95259   0.57551   0.00000  Uiso   1.00
O747   O     0.52767   0.95116   0.62036   0.00000  Uiso   1.00
O748   O     0.58139   0.94187   0.56902   0.00000  Uiso   1.00
O749   O     0.77226   0.87154   0.50000   0.00000  Uiso   1.00
O750   O     0.89441   0.79513   0.50000   0.00000  Uiso   1.00
O751   O     0.89441   0.87154   0.50000   0.00000  Uiso   1.00
O752   O     0.77226   0.79513   0.50000   0.00000  Uiso   1.00
C753   C     0.75336   0.83333   0.50023   0.00000  Uiso   1.00
C754   C     0.91331   0.83333   0.49977   0.00000  Uiso   1.00
O755   O     0.83334   0.87155   0.42845   0.00000  Uiso   1.00
O756   O     0.83333   0.79512   0.57155   0.00000  Uiso   1.00
O757   O     0.83333   0.87155   0.57155   0.00000  Uiso   1.00
O758   O     0.83334   0.79512   0.42845   0.00000  Uiso   1.00
C759   C     0.83326   0.83333   0.40629   0.00000  Uiso   1.00
C760   C     0.83341   0.83334   0.59371   0.00000  Uiso   1.00
Zn761  Zn    0.83333   0.88437   0.50000   0.00000  Uiso   1.00
Zn762  Zn    0.83333   0.78229   0.50000   0.00000  Uiso   1.00
C763   C     0.83331   0.83333   0.35515   0.00000  Uiso   1.00
C764   C     0.83336   0.83334   0.64485   0.00000  Uiso   1.00
C765   C     0.68794   0.79238   0.50033   0.00000  Uiso   1.00
C766   C     0.97872   0.87429   0.49964   0.00000  Uiso   1.00
C767   C     0.97873   0.79238   0.49952   0.00000  Uiso   1.00
C768   C     0.68793   0.87429   0.50046   0.00000  Uiso   1.00
H769   H     0.70400   0.76041   0.50086   0.00000  Uiso   1.00
H770   H     0.96267   0.90625   0.49911   0.00000  Uiso   1.00
H771   H     0.96269   0.76041   0.49889   0.00000  Uiso   1.00
H772   H     0.70398   0.90625   0.50110   0.00000  Uiso   1.00
C773   C     0.95750   0.83333   0.49950   0.00000  Uiso   1.00
C774   C     0.70917   0.83333   0.50048   0.00000  Uiso   1.00
C775   C     0.85389   0.69060   0.53685   0.00000  Uiso   1.00
C776   C     0.81277   0.97606   0.46316   0.00000  Uiso   1.00
C777   C     0.81277   0.69060   0.46317   0.00000  Uiso   1.00
C778   C     0.85388   0.97606   0.53685   0.00000  Uiso   1.00
N779   N     0.83333   0.95240   0.50000   0.00000  Uiso   1.00
N780   N     0.83333   0.71427   0.50000   0.00000  Uiso   1.00
N781   N     0.87604   0.71407   0.57553   0.00000  Uiso   1.00
O782   O     0.91462   0.72507   0.56895   0.00000  Uiso   1.00
O783   O     0.86107   0.71534   0.62043   0.00000  Uiso   1.00
N784   N     0.79064   0.95260   0.42446   0.00000  Uiso   1.00
O785   O     0.75209   0.94150   0.43106   0.00000  Uiso   1.00
O786   O     0.80557   0.95145   0.37954   0.00000  Uiso   1.00
N787   N     0.79054   0.71408   0.42456   0.00000  Uiso   1.00
O788   O     0.80567   0.71575   0.37976   0.00000  Uiso   1.00
O789   O     0.75174   0.72435   0.43094   0.00000  Uiso   1.00
N790   N     0.87605   0.95259   0.57551   0.00000  Uiso   1.00
O791   O     0.86101   0.95116   0.62036   0.00000  Uiso   1.00
O792   O     0.91472   0.94187   0.56902   0.00000  Uiso   1.00
O793   O     0.10559   0.20487   0.83333   0.00000  Uiso   1.00
O794   O     0.22774   0.12846   0.83334   0.00000  Uiso   1.00
O795   O     0.22774   0.20487   0.83334   0.00000  Uiso   1.00
O796   O     0.10559   0.12846   0.83333   0.00000  Uiso   1.00
C797   C     0.08669   0.16667   0.83356   0.00000  Uiso   1.00
C798   C     0.24664   0.16666   0.83310   0.00000  Uiso   1.00
O799   O     0.16667   0.20488   0.76178   0.00000  Uiso   1.00
O800   O     0.16666   0.12845   0.90489   0.00000  Uiso   1.00
O801   O     0.16666   0.20488   0.90489   0.00000  Uiso   1.00
O802   O     0.16667   0.12845   0.76178   0.00000  Uiso   1.00
C803   C     0.16659   0.16666   0.73962   0.00000  Uiso   1.00
C804   C     0.16674   0.16667   0.92704   0.00000  Uiso   1.00
Zn805  Zn    0.16667   0.21771   0.83333   0.00000  Uiso   1.00
Zn806  Zn    0.16667   0.11563   0.83333   0.00000  Uiso   1.00
C807   C     0.16664   0.16666   0.68848   0.00000  Uiso   1.00
C808   C     0.16669   0.16667   0.97819   0.00000  Uiso   1.00
C809   C     0.02128   0.12571   0.83367   0.00000  Uiso   1.00
C810   C     0.31206   0.20762   0.83298   0.00000  Uiso   1.00
C811   C     0.31207   0.12571   0.83286   0.00000  Uiso   1.00
C812   C     0.02127   0.20762   0.83379   0.00000  Uiso   1.00
H813   H     0.03733   0.09375   0.83420   0.00000  Uiso   1.00
H814   H     0.29600   0.23959   0.83244   0.00000  Uiso   1.00
H815   H     0.29602   0.09374   0.83222   0.00000  Uiso   1.00
H816   H     0.03731   0.23959   0.83443   0.00000  Uiso   1.00
C817   C     0.29083   0.16666   0.83284   0.00000  Uiso   1.00
C818   C     0.04250   0.16667   0.83381   0.00000  Uiso   1.00
C819   C     0.18722   0.02394   0.87018   0.00000  Uiso   1.00
C820   C     0.14611   0.30940   0.79649   0.00000  Uiso   1.00
C821   C     0.14610   0.02394   0.79650   0.00000  Uiso   1.00
C822   C     0.18722   0.30940   0.87018   0.00000  Uiso   1.00
N823   N     0.16667   0.28573   0.83333   0.00000  Uiso   1.00
N824   N     0.16667   0.04760   0.83333   0.00000  Uiso   1.00
N825   N     0.20937   0.04741   0.90887   0.00000  Uiso   1.00
O826   O     0.24795   0.05840   0.90228   0.00000  Uiso   1.00
O827   O     0.19440   0.04867   0.95376   0.00000  Uiso   1.00
N828   N     0.12398   0.28593   0.75779   0.00000  Uiso   1.00
O829   O     0.08542   0.27483   0.76440   0.00000  Uiso   1.00
O830   O     0.13891   0.28478   0.71287   0.00000  Uiso   1.00
N831   N     0.12387   0.04741   0.75789   0.00000  Uiso   1.00
O832   O     0.13900   0.04908   0.71309   0.00000  Uiso   1.00
O833   O     0.08507   0.05768   0.76427   0.00000  Uiso   1.00
N834   N     0.20939   0.28593   0.90885   0.00000  Uiso   1.00
O835   O     0.19434   0.28450   0.95369   0.00000  Uiso   1.00
O836   O     0.24806   0.27520   0.90236   0.00000  Uiso   1.00
O837   O     0.43892   0.20487   0.83333   0.00000  Uiso   1.00
O838   O     0.56108   0.12846   0.83334   0.00000  Uiso   1.00
O839   O     0.56108   0.20487   0.83334   0.00000  Uiso   1.00
O840   O     0.43892   0.12846   0.83333   0.00000  Uiso   1.00
C841   C     0.42003   0.16667   0.83356   0.00000  Uiso   1.00
C842   C     0.57997   0.16666   0.83310   0.00000  Uiso   1.00
O843   O     0.50000   0.20488   0.76178   0.00000  Uiso   1.00
O844   O     0.50000   0.12845   0.90489   0.00000  Uiso   1.00
O845   O     0.50000   0.20488   0.90489   0.00000  Uiso   1.00
O846   O     0.50000   0.12845   0.76178   0.00000  Uiso   1.00
C847   C     0.49993   0.16666   0.73962   0.00000  Uiso   1.00
C848   C     0.50007   0.16667   0.92704   0.00000  Uiso   1.00
Zn849  Zn    0.50000   0.21771   0.83333   0.00000  Uiso   1.00
Zn850  Zn    0.50000   0.11563   0.83333   0.00000  Uiso   1.00
C851   C     0.49997   0.16666   0.68848   0.00000  Uiso   1.00
C852   C     0.50003   0.16667   0.97819   0.00000  Uiso   1.00
C853   C     0.35461   0.12571   0.83367   0.00000  Uiso   1.00
C854   C     0.64539   0.20762   0.83298   0.00000  Uiso   1.00
C855   C     0.64540   0.12571   0.83286   0.00000  Uiso   1.00
C856   C     0.35460   0.20762   0.83379   0.00000  Uiso   1.00
H857   H     0.37067   0.09375   0.83420   0.00000  Uiso   1.00
H858   H     0.62934   0.23959   0.83244   0.00000  Uiso   1.00
H859   H     0.62935   0.09374   0.83222   0.00000  Uiso   1.00
H860   H     0.37065   0.23959   0.83443   0.00000  Uiso   1.00
C861   C     0.62417   0.16666   0.83284   0.00000  Uiso   1.00
C862   C     0.37583   0.16667   0.83381   0.00000  Uiso   1.00
C863   C     0.52055   0.02394   0.87018   0.00000  Uiso   1.00
C864   C     0.47944   0.30940   0.79649   0.00000  Uiso   1.00
C865   C     0.47943   0.02394   0.79650   0.00000  Uiso   1.00
C866   C     0.52055   0.30940   0.87018   0.00000  Uiso   1.00
N867   N     0.50000   0.28573   0.83333   0.00000  Uiso   1.00
N868   N     0.50000   0.04760   0.83333   0.00000  Uiso   1.00
N869   N     0.54270   0.04741   0.90887   0.00000  Uiso   1.00
O870   O     0.58129   0.05840   0.90228   0.00000  Uiso   1.00
O871   O     0.52774   0.04867   0.95376   0.00000  Uiso   1.00
N872   N     0.45731   0.28593   0.75779   0.00000  Uiso   1.00
O873   O     0.41875   0.27483   0.76440   0.00000  Uiso   1.00
O874   O     0.47224   0.28478   0.71287   0.00000  Uiso   1.00
N875   N     0.45720   0.04741   0.75789   0.00000  Uiso   1.00
O876   O     0.47233   0.04908   0.71309   0.00000  Uiso   1.00
O877   O     0.41840   0.05768   0.76427   0.00000  Uiso   1.00
N878   N     0.54272   0.28593   0.90885   0.00000  Uiso   1.00
O879   O     0.52767   0.28450   0.95369   0.00000  Uiso   1.00
O880   O     0.58139   0.27520   0.90236   0.00000  Uiso   1.00
O881   O     0.77226   0.20487   0.83333   0.00000  Uiso   1.00
O882   O     0.89441   0.12846   0.83334   0.00000  Uiso   1.00
O883   O     0.89441   0.20487   0.83334   0.00000  Uiso   1.00
O884   O     0.77226   0.12846   0.83333   0.00000  Uiso   1.00
C885   C     0.75336   0.16667   0.83356   0.00000  Uiso   1.00
C886   C     0.91331   0.16666   0.83310   0.00000  Uiso   1.00
O887   O     0.83334   0.20488   0.76178   0.00000  Uiso   1.00
O888   O     0.83333   0.12845   0.90489   0.00000  Uiso   1.00
O889   O     0.83333   0.20488   0.90489   0.00000  Uiso   1.00
O890   O     0.83334   0.12845   0.76178   0.00000  Uiso   1.00
C891   C     0.83326   0.16666   0.73962   0.00000  Uiso   1.00
C892   C     0.83341   0.16667   0.92704   0.00000  Uiso   1.00
Zn893  Zn    0.83333   0.21771   0.83333   0.00000  Uiso   1.00
Zn894  Zn    0.83333   0.11563   0.83333   0.00000  Uiso   1.00
C895   C     0.83331   0.16666   0.68848   0.00000  Uiso   1.00
C896   C     0.83336   0.16667   0.97819   0.00000  Uiso   1.00
C897   C     0.68794   0.12571   0.83367   0.00000  Uiso   1.00
C898   C     0.97872   0.20762   0.83298   0.00000  Uiso   1.00
C899   C     0.97873   0.12571   0.83286   0.00000  Uiso   1.00
C900   C     0.68793   0.20762   0.83379   0.00000  Uiso   1.00
H901   H     0.70400   0.09375   0.83420   0.00000  Uiso   1.00
H902   H     0.96267   0.23959   0.83244   0.00000  Uiso   1.00
H903   H     0.96269   0.09374   0.83222   0.00000  Uiso   1.00
H904   H     0.70398   0.23959   0.83443   0.00000  Uiso   1.00
C905   C     0.95750   0.16666   0.83284   0.00000  Uiso   1.00
C906   C     0.70917   0.16667   0.83381   0.00000  Uiso   1.00
C907   C     0.85389   0.02394   0.87018   0.00000  Uiso   1.00
C908   C     0.81277   0.30940   0.79649   0.00000  Uiso   1.00
C909   C     0.81277   0.02394   0.79650   0.00000  Uiso   1.00
C910   C     0.85388   0.30940   0.87018   0.00000  Uiso   1.00
N911   N     0.83333   0.28573   0.83333   0.00000  Uiso   1.00
N912   N     0.83333   0.04760   0.83333   0.00000  Uiso   1.00
N913   N     0.87604   0.04741   0.90887   0.00000  Uiso   1.00
O914   O     0.91462   0.05840   0.90228   0.00000  Uiso   1.00
O915   O     0.86107   0.04867   0.95376   0.00000  Uiso   1.00
N916   N     0.79064   0.28593   0.75779   0.00000  Uiso   1.00
O917   O     0.75209   0.27483   0.76440   0.00000  Uiso   1.00
O918   O     0.80557   0.28478   0.71287   0.00000  Uiso   1.00
N919   N     0.79054   0.04741   0.75789   0.00000  Uiso   1.00
O920   O     0.80567   0.04908   0.71309   0.00000  Uiso   1.00
O921   O     0.75174   0.05768   0.76427   0.00000  Uiso   1.00
N922   N     0.87605   0.28593   0.90885   0.00000  Uiso   1.00
O923   O     0.86101   0.28450   0.95369   0.00000  Uiso   1.00
O924   O     0.91472   0.27520   0.90236   0.00000  Uiso   1.00
O925   O     0.10559   0.53821   0.83333   0.00000  Uiso   1.00
O926   O     0.22774   0.46179   0.83334   0.00000  Uiso   1.00
O927   O     0.22774   0.53821   0.83334   0.00000  Uiso   1.00
O928   O     0.10559   0.46179   0.83333   0.00000  Uiso   1.00
C929   C     0.08669   0.50000   0.83356   0.00000  Uiso   1.00
C930   C     0.24664   0.50000   0.83310   0.00000  Uiso   1.00
O931   O     0.16667   0.53821   0.76178   0.00000  Uiso   1.00
O932   O     0.16666   0.46179   0.90489   0.00000  Uiso   1.00
O933   O     0.16666   0.53821   0.90489   0.00000  Uiso   1.00
O934   O     0.16667   0.46179   0.76178   0.00000  Uiso   1.00
C935   C     0.16659   0.50000   0.73962   0.00000  Uiso   1.00
C936   C     0.16674   0.50000   0.92704   0.00000  Uiso   1.00
Zn937  Zn    0.16667   0.55104   0.83333   0.00000  Uiso   1.00
Zn938  Zn    0.16667   0.44896   0.83333   0.00000  Uiso   1.00
C939   C     0.16664   0.50000   0.68848   0.00000  Uiso   1.00
C940   C     0.16669   0.50000   0.97819   0.00000  Uiso   1.00
C941   C     0.02128   0.45905   0.83367   0.00000  Uiso   1.00
C942   C     0.31206   0.54095   0.83298   0.00000  Uiso   1.00
C943   C     0.31207   0.45904   0.83286   0.00000  Uiso   1.00
C944   C     0.02127   0.54095   0.83379   0.00000  Uiso   1.00
H945   H     0.03733   0.42708   0.83420   0.00000  Uiso   1.00
H946   H     0.29600   0.57292   0.83244   0.00000  Uiso   1.00
H947   H     0.29602   0.42708   0.83222   0.00000  Uiso   1.00
H948   H     0.03731   0.57292   0.83443   0.00000  Uiso   1.00
C949   C     0.29083   0.50000   0.83284   0.00000  Uiso   1.00
C950   C     0.04250   0.50000   0.83381   0.00000  Uiso   1.00
C951   C     0.18722   0.35727   0.87018   0.00000  Uiso   1.00
C952   C     0.14611   0.64273   0.79649   0.00000  Uiso   1.00
C953   C     0.14610   0.35727   0.79650   0.00000  Uiso   1.00
C954   C     0.18722   0.64273   0.87018   0.00000  Uiso   1.00
N955   N     0.16667   0.61907   0.83333   0.00000  Uiso   1.00
N956   N     0.16667   0.38093   0.83333   0.00000  Uiso   1.00
N957   N     0.20937   0.38074   0.90887   0.00000  Uiso   1.00
O958   O     0.24795   0.39174   0.90228   0.00000  Uiso   1.00
O959   O     0.19440   0.38200   0.95376   0.00000  Uiso   1.00
N960   N     0.12398   0.61927   0.75779   0.00000  Uiso   1.00
O961   O     0.08542   0.60816   0.76440   0.00000  Uiso   1.00
O962   O     0.13891   0.61811   0.71287   0.00000  Uiso   1.00
N963   N     0.12387   0.38074   0.75789   0.00000  Uiso   1.00
O964   O     0.13900   0.38241   0.71309   0.00000  Uiso   1.00
O965   O     0.08507   0.39101   0.76427   0.00000  Uiso   1.00
N966   N     0.20939   0.61926   0.90885   0.00000  Uiso   1.00
O967   O     0.19434   0.61783   0.95369   0.00000  Uiso   1.00
O968   O     0.24806   0.60854   0.90236   0.00000  Uiso   1.00
O969   O     0.43892   0.53821   0.83333   0.00000  Uiso   1.00
O970   O     0.56108   0.46179   0.83334   0.00000  Uiso   1.00
O971   O     0.56108   0.53821   0.83334   0.00000  Uiso   1.00
O972   O     0.43892   0.46179   0.83333   0.00000  Uiso   1.00
C973   C     0.42003   0.50000   0.83356   0.00000  Uiso   1.00
C974   C     0.57997   0.50000   0.83310   0.00000  Uiso   1.00
O975   O     0.50000   0.53821   0.76178   0.00000  Uiso   1.00
O976   O     0.50000   0.46179   0.90489   0.00000  Uiso   1.00
O977   O     0.50000   0.53821   0.90489   0.00000  Uiso   1.00
O978   O     0.50000   0.46179   0.76178   0.00000  Uiso   1.00
C979   C     0.49993   0.50000   0.73962   0.00000  Uiso   1.00
C980   C     0.50007   0.50000   0.92704   0.00000  Uiso   1.00
Zn981  Zn    0.50000   0.55104   0.83333   0.00000  Uiso   1.00
Zn982  Zn    0.50000   0.44896   0.83333   0.00000  Uiso   1.00
C983   C     0.49997   0.50000   0.68848   0.00000  Uiso   1.00
C984   C     0.50003   0.50000   0.97819   0.00000  Uiso   1.00
C985   C     0.35461   0.45905   0.83367   0.00000  Uiso   1.00
C986   C     0.64539   0.54095   0.83298   0.00000  Uiso   1.00
C987   C     0.64540   0.45904   0.83286   0.00000  Uiso   1.00
C988   C     0.35460   0.54095   0.83379   0.00000  Uiso   1.00
H989   H     0.37067   0.42708   0.83420   0.00000  Uiso   1.00
H990   H     0.62934   0.57292   0.83244   0.00000  Uiso   1.00
H991   H     0.62935   0.42708   0.83222   0.00000  Uiso   1.00
H992   H     0.37065   0.57292   0.83443   0.00000  Uiso   1.00
C993   C     0.62417   0.50000   0.83284   0.00000  Uiso   1.00
C994   C     0.37583   0.50000   0.83381   0.00000  Uiso   1.00
C995   C     0.52055   0.35727   0.87018   0.00000  Uiso   1.00
C996   C     0.47944   0.64273   0.79649   0.00000  Uiso   1.00
C997   C     0.47943   0.35727   0.79650   0.00000  Uiso   1.00
C998   C     0.52055   0.64273   0.87018   0.00000  Uiso   1.00
N999   N     0.50000   0.61907   0.83333   0.00000  Uiso   1.00
N1000  N     0.50000   0.38093   0.83333   0.00000  Uiso   1.00
N1001  N     0.54270   0.38074   0.90887   0.00000  Uiso   1.00
O1002  O     0.58129   0.39174   0.90228   0.00000  Uiso   1.00
O1003  O     0.52774   0.38200   0.95376   0.00000  Uiso   1.00
N1004  N     0.45731   0.61927   0.75779   0.00000  Uiso   1.00
O1005  O     0.41875   0.60816   0.76440   0.00000  Uiso   1.00
O1006  O     0.47224   0.61811   0.71287   0.00000  Uiso   1.00
N1007  N     0.45720   0.38074   0.75789   0.00000  Uiso   1.00
O1008  O     0.47233   0.38241   0.71309   0.00000  Uiso   1.00
O1009  O     0.41840   0.39101   0.76427   0.00000  Uiso   1.00
N1010  N     0.54272   0.61926   0.90885   0.00000  Uiso   1.00
O1011  O     0.52767   0.61783   0.95369   0.00000  Uiso   1.00
O1012  O     0.58139   0.60854   0.90236   0.00000  Uiso   1.00
O1013  O     0.77226   0.53821   0.83333   0.00000  Uiso   1.00
O1014  O     0.89441   0.46179   0.83334   0.00000  Uiso   1.00
O1015  O     0.89441   0.53821   0.83334   0.00000  Uiso   1.00
O1016  O     0.77226   0.46179   0.83333   0.00000  Uiso   1.00
C1017  C     0.75336   0.50000   0.83356   0.00000  Uiso   1.00
C1018  C     0.91331   0.50000   0.83310   0.00000  Uiso   1.00
O1019  O     0.83334   0.53821   0.76178   0.00000  Uiso   1.00
O1020  O     0.83333   0.46179   0.90489   0.00000  Uiso   1.00
O1021  O     0.83333   0.53821   0.90489   0.00000  Uiso   1.00
O1022  O     0.83334   0.46179   0.76178   0.00000  Uiso   1.00
C1023  C     0.83326   0.50000   0.73962   0.00000  Uiso   1.00
C1024  C     0.83341   0.50000   0.92704   0.00000  Uiso   1.00
Zn1025 Zn    0.83333   0.55104   0.83333   0.00000  Uiso   1.00
Zn1026 Zn    0.83333   0.44896   0.83333   0.00000  Uiso   1.00
C1027  C     0.83331   0.50000   0.68848   0.00000  Uiso   1.00
C1028  C     0.83336   0.50000   0.97819   0.00000  Uiso   1.00
C1029  C     0.68794   0.45905   0.83367   0.00000  Uiso   1.00
C1030  C     0.97872   0.54095   0.83298   0.00000  Uiso   1.00
C1031  C     0.97873   0.45904   0.83286   0.00000  Uiso   1.00
C1032  C     0.68793   0.54095   0.83379   0.00000  Uiso   1.00
H1033  H     0.70400   0.42708   0.83420   0.00000  Uiso   1.00
H1034  H     0.96267   0.57292   0.83244   0.00000  Uiso   1.00
H1035  H     0.96269   0.42708   0.83222   0.00000  Uiso   1.00
H1036  H     0.70398   0.57292   0.83443   0.00000  Uiso   1.00
C1037  C     0.95750   0.50000   0.83284   0.00000  Uiso   1.00
C1038  C     0.70917   0.50000   0.83381   0.00000  Uiso   1.00
C1039  C     0.85389   0.35727   0.87018   0.00000  Uiso   1.00
C1040  C     0.81277   0.64273   0.79649   0.00000  Uiso   1.00
C1041  C     0.81277   0.35727   0.79650   0.00000  Uiso   1.00
C1042  C     0.85388   0.64273   0.87018   0.00000  Uiso   1.00
N1043  N     0.83333   0.61907   0.83333   0.00000  Uiso   1.00
N1044  N     0.83333   0.38093   0.83333   0.00000  Uiso   1.00
N1045  N     0.87604   0.38074   0.90887   0.00000  Uiso   1.00
O1046  O     0.91462   0.39174   0.90228   0.00000  Uiso   1.00
O1047  O     0.86107   0.38200   0.95376   0.00000  Uiso   1.00
N1048  N     0.79064   0.61927   0.75779   0.00000  Uiso   1.00
O1049  O     0.75209   0.60816   0.76440   0.00000  Uiso   1.00
O1050  O     0.80557   0.61811   0.71287   0.00000  Uiso   1.00
N1051  N     0.79054   0.38074   0.75789   0.00000  Uiso   1.00
O1052  O     0.80567   0.38241   0.71309   0.00000  Uiso   1.00
O1053  O     0.75174   0.39101   0.76427   0.00000  Uiso   1.00
N1054  N     0.87605   0.61926   0.90885   0.00000  Uiso   1.00
O1055  O     0.86101   0.61783   0.95369   0.00000  Uiso   1.00
O1056  O     0.91472   0.60854   0.90236   0.00000  Uiso   1.00
O1057  O     0.10559   0.87154   0.83333   0.00000  Uiso   1.00
O1058  O     0.22774   0.79513   0.83334   0.00000  Uiso   1.00
O1059  O     0.22774   0.87154   0.83334   0.00000  Uiso   1.00
O1060  O     0.10559   0.79513   0.83333   0.00000  Uiso   1.00
C1061  C     0.08669   0.83333   0.83356   0.00000  Uiso   1.00
C1062  C     0.24664   0.83333   0.83310   0.00000  Uiso   1.00
O1063  O     0.16667   0.87155   0.76178   0.00000  Uiso   1.00
O1064  O     0.16666   0.79512   0.90489   0.00000  Uiso   1.00
O1065  O     0.16666   0.87155   0.90489   0.00000  Uiso   1.00
O1066  O     0.16667   0.79512   0.76178   0.00000  Uiso   1.00
C1067  C     0.16659   0.83333   0.73962   0.00000  Uiso   1.00
C1068  C     0.16674   0.83334   0.92704   0.00000  Uiso   1.00
Zn1069 Zn    0.16667   0.88437   0.83333   0.00000  Uiso   1.00
Zn1070 Zn    0.16667   0.78229   0.83333   0.00000  Uiso   1.00
C1071  C     0.16664   0.83333   0.68848   0.00000  Uiso   1.00
C1072  C     0.16669   0.83334   0.97819   0.00000  Uiso   1.00
C1073  C     0.02128   0.79238   0.83367   0.00000  Uiso   1.00
C1074  C     0.31206   0.87429   0.83298   0.00000  Uiso   1.00
C1075  C     0.31207   0.79238   0.83286   0.00000  Uiso   1.00
C1076  C     0.02127   0.87429   0.83379   0.00000  Uiso   1.00
H1077  H     0.03733   0.76041   0.83420   0.00000  Uiso   1.00
H1078  H     0.29600   0.90625   0.83244   0.00000  Uiso   1.00
H1079  H     0.29602   0.76041   0.83222   0.00000  Uiso   1.00
H1080  H     0.03731   0.90625   0.83443   0.00000  Uiso   1.00
C1081  C     0.29083   0.83333   0.83284   0.00000  Uiso   1.00
C1082  C     0.04250   0.83333   0.83381   0.00000  Uiso   1.00
C1083  C     0.18722   0.69060   0.87018   0.00000  Uiso   1.00
C1084  C     0.14611   0.97606   0.79649   0.00000  Uiso   1.00
C1085  C     0.14610   0.69060   0.79650   0.00000  Uiso   1.00
C1086  C     0.18722   0.97606   0.87018   0.00000  Uiso   1.00
N1087  N     0.16667   0.95240   0.83333   0.00000  Uiso   1.00
N1088  N     0.16667   0.71427   0.83333   0.00000  Uiso   1.00
N1089  N     0.20937   0.71407   0.90887   0.00000  Uiso   1.00
O1090  O     0.24795   0.72507   0.90228   0.00000  Uiso   1.00
O1091  O     0.19440   0.71534   0.95376   0.00000  Uiso   1.00
N1092  N     0.12398   0.95260   0.75779   0.00000  Uiso   1.00
O1093  O     0.08542   0.94150   0.76440   0.00000  Uiso   1.00
O1094  O     0.13891   0.95145   0.71287   0.00000  Uiso   1.00
N1095  N     0.12387   0.71408   0.75789   0.00000  Uiso   1.00
O1096  O     0.13900   0.71575   0.71309   0.00000  Uiso   1.00
O1097  O     0.08507   0.72435   0.76427   0.00000  Uiso   1.00
N1098  N     0.20939   0.95259   0.90885   0.00000  Uiso   1.00
O1099  O     0.19434   0.95116   0.95369   0.00000  Uiso   1.00
O1100  O     0.24806   0.94187   0.90236   0.00000  Uiso   1.00
O1101  O     0.43892   0.87154   0.83333   0.00000  Uiso   1.00
O1102  O     0.56108   0.79513   0.83334   0.00000  Uiso   1.00
O1103  O     0.56108   0.87154   0.83334   0.00000  Uiso   1.00
O1104  O     0.43892   0.79513   0.83333   0.00000  Uiso   1.00
C1105  C     0.42003   0.83333   0.83356   0.00000  Uiso   1.00
C1106  C     0.57997   0.83333   0.83310   0.00000  Uiso   1.00
O1107  O     0.50000   0.87155   0.76178   0.00000  Uiso   1.00
O1108  O     0.50000   0.79512   0.90489   0.00000  Uiso   1.00
O1109  O     0.50000   0.87155   0.90489   0.00000  Uiso   1.00
O1110  O     0.50000   0.79512   0.76178   0.00000  Uiso   1.00
C1111  C     0.49993   0.83333   0.73962   0.00000  Uiso   1.00
C1112  C     0.50007   0.83334   0.92704   0.00000  Uiso   1.00
Zn1113 Zn    0.50000   0.88437   0.83333   0.00000  Uiso   1.00
Zn1114 Zn    0.50000   0.78229   0.83333   0.00000  Uiso   1.00
C1115  C     0.49997   0.83333   0.68848   0.00000  Uiso   1.00
C1116  C     0.50003   0.83334   0.97819   0.00000  Uiso   1.00
C1117  C     0.35461   0.79238   0.83367   0.00000  Uiso   1.00
C1118  C     0.64539   0.87429   0.83298   0.00000  Uiso   1.00
C1119  C     0.64540   0.79238   0.83286   0.00000  Uiso   1.00
C1120  C     0.35460   0.87429   0.83379   0.00000  Uiso   1.00
H1121  H     0.37067   0.76041   0.83420   0.00000  Uiso   1.00
H1122  H     0.62934   0.90625   0.83244   0.00000  Uiso   1.00
H1123  H     0.62935   0.76041   0.83222   0.00000  Uiso   1.00
H1124  H     0.37065   0.90625   0.83443   0.00000  Uiso   1.00
C1125  C     0.62417   0.83333   0.83284   0.00000  Uiso   1.00
C1126  C     0.37583   0.83333   0.83381   0.00000  Uiso   1.00
C1127  C     0.52055   0.69060   0.87018   0.00000  Uiso   1.00
C1128  C     0.47944   0.97606   0.79649   0.00000  Uiso   1.00
C1129  C     0.47943   0.69060   0.79650   0.00000  Uiso   1.00
C1130  C     0.52055   0.97606   0.87018   0.00000  Uiso   1.00
N1131  N     0.50000   0.95240   0.83333   0.00000  Uiso   1.00
N1132  N     0.50000   0.71427   0.83333   0.00000  Uiso   1.00
N1133  N     0.54270   0.71407   0.90887   0.00000  Uiso   1.00
O1134  O     0.58129   0.72507   0.90228   0.00000  Uiso   1.00
O1135  O     0.52774   0.71534   0.95376   0.00000  Uiso   1.00
N1136  N     0.45731   0.95260   0.75779   0.00000  Uiso   1.00
O1137  O     0.41875   0.94150   0.76440   0.00000  Uiso   1.00
O1138  O     0.47224   0.95145   0.71287   0.00000  Uiso   1.00
N1139  N     0.45720   0.71408   0.75789   0.00000  Uiso   1.00
O1140  O     0.47233   0.71575   0.71309   0.00000  Uiso   1.00
O1141  O     0.41840   0.72435   0.76427   0.00000  Uiso   1.00
N1142  N     0.54272   0.95259   0.90885   0.00000  Uiso   1.00
O1143  O     0.52767   0.95116   0.95369   0.00000  Uiso   1.00
O1144  O     0.58139   0.94187   0.90236   0.00000  Uiso   1.00
O1145  O     0.77226   0.87154   0.83333   0.00000  Uiso   1.00
O1146  O     0.89441   0.79513   0.83334   0.00000  Uiso   1.00
O1147  O     0.89441   0.87154   0.83334   0.00000  Uiso   1.00
O1148  O     0.77226   0.79513   0.83333   0.00000  Uiso   1.00
C1149  C     0.75336   0.83333   0.83356   0.00000  Uiso   1.00
C1150  C     0.91331   0.83333   0.83310   0.00000  Uiso   1.00
O1151  O     0.83334   0.87155   0.76178   0.00000  Uiso   1.00
O1152  O     0.83333   0.79512   0.90489   0.00000  Uiso   1.00
O1153  O     0.83333   0.87155   0.90489   0.00000  Uiso   1.00
O1154  O     0.83334   0.79512   0.76178   0.00000  Uiso   1.00
C1155  C     0.83326   0.83333   0.73962   0.00000  Uiso   1.00
C1156  C     0.83341   0.83334   0.92704   0.00000  Uiso   1.00
Zn1157 Zn    0.83333   0.88437   0.83333   0.00000  Uiso   1.00
Zn1158 Zn    0.83333   0.78229   0.83333   0.00000  Uiso   1.00
C1159  C     0.83331   0.83333   0.68848   0.00000  Uiso   1.00
C1160  C     0.83336   0.83334   0.97819   0.00000  Uiso   1.00
C1161  C     0.68794   0.79238   0.83367   0.00000  Uiso   1.00
C1162  C     0.97872   0.87429   0.83298   0.00000  Uiso   1.00
C1163  C     0.97873   0.79238   0.83286   0.00000  Uiso   1.00
C1164  C     0.68793   0.87429   0.83379   0.00000  Uiso   1.00
H1165  H     0.70400   0.76041   0.83420   0.00000  Uiso   1.00
H1166  H     0.96267   0.90625   0.83244   0.00000  Uiso   1.00
H1167  H     0.96269   0.76041   0.83222   0.00000  Uiso   1.00
H1168  H     0.70398   0.90625   0.83443   0.00000  Uiso   1.00
C1169  C     0.95750   0.83333   0.83284   0.00000  Uiso   1.00
C1170  C     0.70917   0.83333   0.83381   0.00000  Uiso   1.00
C1171  C     0.85389   0.69060   0.87018   0.00000  Uiso   1.00
C1172  C     0.81277   0.97606   0.79649   0.00000  Uiso   1.00
C1173  C     0.81277   0.69060   0.79650   0.00000  Uiso   1.00
C1174  C     0.85388   0.97606   0.87018   0.00000  Uiso   1.00
N1175  N     0.83333   0.95240   0.83333   0.00000  Uiso   1.00
N1176  N     0.83333   0.71427   0.83333   0.00000  Uiso   1.00
N1177  N     0.87604   0.71407   0.90887   0.00000  Uiso   1.00
O1178  O     0.91462   0.72507   0.90228   0.00000  Uiso   1.00
O1179  O     0.86107   0.71534   0.95376   0.00000  Uiso   1.00
N1180  N     0.79064   0.95260   0.75779   0.00000  Uiso   1.00
O1181  O     0.75209   0.94150   0.76440   0.00000  Uiso   1.00
O1182  O     0.80557   0.95145   0.71287   0.00000  Uiso   1.00
N1183  N     0.79054   0.71408   0.75789   0.00000  Uiso   1.00
O1184  O     0.80567   0.71575   0.71309   0.00000  Uiso   1.00
O1185  O     0.75174   0.72435   0.76427   0.00000  Uiso   1.00
N1186  N     0.87605   0.95259   0.90885   0.00000  Uiso   1.00
O1187  O     0.86101   0.95116   0.95369   0.00000  Uiso   1.00
O1188  O     0.91472   0.94187   0.90236   0.00000  Uiso   1.00
loop_
_geom_bond_atom_site_label_1
_geom_bond_atom_site_label_2
_geom_bond_distance
_geom_bond_site_symmetry_2
_ccdc_geom_bond_type
O1     C5      1.290   .     A
O1     Zn13    2.003   .     S
O2     Zn14    2.003   .     S
O2     C6      1.289   .     A
O3     Zn13    2.003   .     S
O3     C6      1.289   .     A
O4     Zn14    2.003   .     S
O4     C5      1.289   .     A
C5     C26     1.423   .     S
C6     C25     1.423   .     S
O7     C11     1.282   .     A
O7     Zn13    1.949   .     S
O8     C12     1.282   .     A
O8     Zn14    1.949   .     S
O9     C12     1.282   .     A
O9     Zn13    1.949   .     S
O10    C11     1.282   .     A
O10    Zn14    1.949   .     S
C11    C15     1.366   .     S
C12    C16     1.366   .     S
Zn13   N31     2.024   .     S
Zn14   N32     2.024   .     S
C15    C808    1.165   1_554 S
C16    C411    1.165   .     S
C17    C26     1.397   .     A
C17    H21     1.082   .     S
C17    C107    1.369   1_455 S
C18    C25     1.397   .     A
C18    H22     1.082   .     S
C18    C64     1.369   .     S
C19    H23     1.082   .     S
C19    C25     1.397   .     A
C19    C61     1.369   .     S
C20    H24     1.082   .     S
C20    C26     1.397   .     A
C20    C106    1.369   1_455 S
C27    N33     1.428   .     S
C27    N32     1.371   .     A
C27    C294    1.425   1_545 S
C28    N36     1.428   .     S
C28    N31     1.371   .     A
C28    C161    1.425   .     S
C29    N39     1.427   .     S
C29    N32     1.371   .     A
C29    C292    1.425   1_545 S
C30    N42     1.428   .     S
C30    N31     1.371   .     A
C30    C159    1.425   .     S
N33    O34     1.300   .     A
N33    O35     1.301   .     A
N36    O38     1.301   .     A
N36    O37     1.300   .     A
N39    O41     1.300   .     A
N39    O40     1.301   .     A
N42    O44     1.300   .     A
N42    O43     1.301   .     A
O45    C49     1.290   .     A
O45    Zn57    2.003   .     S
O46    Zn58    2.003   .     S
O46    C50     1.289   .     A
O47    Zn57    2.003   .     S
O47    C50     1.289   .     A
O48    Zn58    2.003   .     S
O48    C49     1.289   .     A
C49    C70     1.423   .     S
C50    C69     1.423   .     S
O51    C55     1.282   .     A
O51    Zn57    1.949   .     S
O52    C56     1.282   .     A
O52    Zn58    1.949   .     S
O53    C56     1.282   .     A
O53    Zn57    1.949   .     S
O54    C55     1.282   .     A
O54    Zn58    1.949   .     S
C55    C59     1.366   .     S
C56    C60     1.366   .     S
Zn57   N75     2.024   .     S
Zn58   N76     2.024   .     S
C59    C852    1.165   1_554 S
C60    C455    1.165   .     S
C61    C70     1.397   .     A
C61    H65     1.082   .     S
C62    C69     1.397   .     A
C62    H66     1.082   .     S
C62    C108    1.369   .     S
C63    H67     1.082   .     S
C63    C69     1.397   .     A
C63    C105    1.369   .     S
C64    H68     1.082   .     S
C64    C70     1.397   .     A
C71    N77     1.428   .     S
C71    N76     1.371   .     A
C71    C338    1.425   1_545 S
C72    N80     1.428   .     S
C72    N75     1.371   .     A
C72    C205    1.425   .     S
C73    N83     1.427   .     S
C73    N76     1.371   .     A
C73    C336    1.425   1_545 S
C74    N86     1.428   .     S
C74    N75     1.371   .     A
C74    C203    1.425   .     S
N77    O78     1.300   .     A
N77    O79     1.301   .     A
N80    O82     1.301   .     A
N80    O81     1.300   .     A
N83    O85     1.300   .     A
N83    O84     1.301   .     A
N86    O88     1.300   .     A
N86    O87     1.301   .     A
O89    C93     1.290   .     A
O89    Zn101   2.003   .     S
O90    Zn102   2.003   .     S
O90    C94     1.289   .     A
O91    Zn101   2.003   .     S
O91    C94     1.289   .     A
O92    Zn102   2.003   .     S
O92    C93     1.289   .     A
C93    C114    1.423   .     S
C94    C113    1.423   .     S
O95    C99     1.282   .     A
O95    Zn101   1.949   .     S
O96    C100    1.282   .     A
O96    Zn102   1.949   .     S
O97    C100    1.282   .     A
O97    Zn101   1.949   .     S
O98    C99     1.282   .     A
O98    Zn102   1.949   .     S
C99    C103    1.366   .     S
C100   C104    1.366   .     S
Zn101  N119    2.024   .     S
Zn102  N120    2.024   .     S
C103   C896    1.165   1_554 S
C104   C499    1.165   .     S
C105   C114    1.397   .     A
C105   H109    1.082   .     S
C106   C113    1.397   .     A
C106   H110    1.082   .     S
C106   C20     1.369   1_655 S
C107   H111    1.082   .     S
C107   C113    1.397   .     A
C107   C17     1.369   1_655 S
C108   H112    1.082   .     S
C108   C114    1.397   .     A
C115   N121    1.428   .     S
C115   N120    1.371   .     A
C115   C382    1.425   1_545 S
C116   N124    1.428   .     S
C116   N119    1.371   .     A
C116   C249    1.425   .     S
C117   N127    1.427   .     S
C117   N120    1.371   .     A
C117   C380    1.425   1_545 S
C118   N130    1.428   .     S
C118   N119    1.371   .     A
C118   C247    1.425   .     S
N121   O122    1.300   .     A
N121   O123    1.301   .     A
N124   O126    1.301   .     A
N124   O125    1.300   .     A
N127   O129    1.300   .     A
N127   O128    1.301   .     A
N130   O132    1.300   .     A
N130   O131    1.301   .     A
O133   C137    1.290   .     A
O133   Zn145   2.003   .     S
O134   Zn146   2.003   .     S
O134   C138    1.289   .     A
O135   Zn145   2.003   .     S
O135   C138    1.289   .     A
O136   Zn146   2.003   .     S
O136   C137    1.289   .     A
C137   C158    1.423   .     S
C138   C157    1.423   .     S
O139   C143    1.282   .     A
O139   Zn145   1.949   .     S
O140   C144    1.282   .     A
O140   Zn146   1.949   .     S
O141   C144    1.282   .     A
O141   Zn145   1.949   .     S
O142   C143    1.282   .     A
O142   Zn146   1.949   .     S
C143   C147    1.366   .     S
C144   C148    1.366   .     S
Zn145  N163    2.024   .     S
Zn146  N164    2.024   .     S
C147   C940    1.165   1_554 S
C148   C543    1.165   .     S
C149   C158    1.397   .     A
C149   H153    1.082   .     S
C149   C239    1.369   1_455 S
C150   C157    1.397   .     A
C150   H154    1.082   .     S
C150   C196    1.369   .     S
C151   H155    1.082   .     S
C151   C157    1.397   .     A
C151   C193    1.369   .     S
C152   H156    1.082   .     S
C152   C158    1.397   .     A
C152   C238    1.369   1_455 S
C159   N165    1.428   .     S
C159   N164    1.371   .     A
C160   N168    1.428   .     S
C160   N163    1.371   .     A
C160   C293    1.425   .     S
C161   N171    1.427   .     S
C161   N164    1.371   .     A
C162   N174    1.428   .     S
C162   N163    1.371   .     A
C162   C291    1.425   .     S
N165   O166    1.300   .     A
N165   O167    1.301   .     A
N168   O170    1.301   .     A
N168   O169    1.300   .     A
N171   O173    1.300   .     A
N171   O172    1.301   .     A
N174   O176    1.300   .     A
N174   O175    1.301   .     A
O177   C181    1.290   .     A
O177   Zn189   2.003   .     S
O178   Zn190   2.003   .     S
O178   C182    1.289   .     A
O179   Zn189   2.003   .     S
O179   C182    1.289   .     A
O180   Zn190   2.003   .     S
O180   C181    1.289   .     A
C181   C202    1.423   .     S
C182   C201    1.423   .     S
O183   C187    1.282   .     A
O183   Zn189   1.949   .     S
O184   C188    1.282   .     A
O184   Zn190   1.949   .     S
O185   C188    1.282   .     A
O185   Zn189   1.949   .     S
O186   C187    1.282   .     A
O186   Zn190   1.949   .     S
C187   C191    1.366   .     S
C188   C192    1.366   .     S
Zn189  N207    2.024   .     S
Zn190  N208    2.024   .     S
C191   C984    1.165   1_554 S
C192   C587    1.165   .     S
C193   C202    1.397   .     A
C193   H197    1.082   .     S
C194   C201    1.397   .     A
C194   H198    1.082   .     S
C194   C240    1.369   .     S
C195   H199    1.082   .     S
C195   C201    1.397   .     A
C195   C237    1.369   .     S
C196   H200    1.082   .     S
C196   C202    1.397   .     A
C203   N209    1.428   .     S
C203   N208    1.371   .     A
C204   N212    1.428   .     S
C204   N207    1.371   .     A
C204   C337    1.425   .     S
C205   N215    1.427   .     S
C205   N208    1.371   .     A
C206   N218    1.428   .     S
C206   N207    1.371   .     A
C206   C335    1.425   .     S
N209   O210    1.300   .     A
N209   O211    1.301   .     A
N212   O214    1.301   .     A
N212   O213    1.300   .     A
N215   O217    1.300   .     A
N215   O216    1.301   .     A
N218   O220    1.300   .     A
N218   O219    1.301   .     A
O221   C225    1.290   .     A
O221   Zn233   2.003   .     S
O222   Zn234   2.003   .     S
O222   C226    1.289   .     A
O223   Zn233   2.003   .     S
O223   C226    1.289   .     A
O224   Zn234   2.003   .     S
O224   C225    1.289   .     A
C225   C246    1.423   .     S
C226   C245    1.423   .     S
O227   C231    1.282   .     A
O227   Zn233   1.949   .     S
O228   C232    1.282   .     A
O228   Zn234   1.949   .     S
O229   C232    1.282   .     A
O229   Zn233   1.949   .     S
O230   C231    1.282   .     A
O230   Zn234   1.949   .     S
C231   C235    1.366   .     S
C232   C236    1.366   .     S
Zn233  N251    2.024   .     S
Zn234  N252    2.024   .     S
C235   C1028   1.165   1_554 S
C236   C631    1.165   .     S
C237   C246    1.397   .     A
C237   H241    1.082   .     S
C238   C245    1.397   .     A
C238   H242    1.082   .     S
C238   C152    1.369   1_655 S
C239   H243    1.082   .     S
C239   C245    1.397   .     A
C239   C149    1.369   1_655 S
C240   H244    1.082   .     S
C240   C246    1.397   .     A
C247   N253    1.428   .     S
C247   N252    1.371   .     A
C248   N256    1.428   .     S
C248   N251    1.371   .     A
C248   C381    1.425   .     S
C249   N259    1.427   .     S
C249   N252    1.371   .     A
C250   N262    1.428   .     S
C250   N251    1.371   .     A
C250   C379    1.425   .     S
N253   O254    1.300   .     A
N253   O255    1.301   .     A
N256   O258    1.301   .     A
N256   O257    1.300   .     A
N259   O261    1.300   .     A
N259   O260    1.301   .     A
N262   O264    1.300   .     A
N262   O263    1.301   .     A
O265   C269    1.290   .     A
O265   Zn277   2.003   .     S
O266   Zn278   2.003   .     S
O266   C270    1.289   .     A
O267   Zn277   2.003   .     S
O267   C270    1.289   .     A
O268   Zn278   2.003   .     S
O268   C269    1.289   .     A
C269   C290    1.423   .     S
C270   C289    1.423   .     S
O271   C275    1.282   .     A
O271   Zn277   1.949   .     S
O272   C276    1.282   .     A
O272   Zn278   1.949   .     S
O273   C276    1.282   .     A
O273   Zn277   1.949   .     S
O274   C275    1.282   .     A
O274   Zn278   1.949   .     S
C275   C279    1.366   .     S
C276   C280    1.366   .     S
Zn277  N295    2.024   .     S
Zn278  N296    2.024   .     S
C279   C1072   1.165   1_554 S
C280   C675    1.165   .     S
C281   C290    1.397   .     A
C281   H285    1.082   .     S
C281   C371    1.369   1_455 S
C282   C289    1.397   .     A
C282   H286    1.082   .     S
C282   C328    1.369   .     S
C283   H287    1.082   .     S
C283   C289    1.397   .     A
C283   C325    1.369   .     S
C284   H288    1.082   .     S
C284   C290    1.397   .     A
C284   C370    1.369   1_455 S
C291   N297    1.428   .     S
C291   N296    1.371   .     A
C292   N300    1.428   .     S
C292   N295    1.371   .     A
C292   C29     1.425   1_565 S
C293   N303    1.427   .     S
C293   N296    1.371   .     A
C294   N306    1.428   .     S
C294   N295    1.371   .     A
C294   C27     1.425   1_565 S
N297   O298    1.300   .     A
N297   O299    1.301   .     A
N300   O302    1.301   .     A
N300   O301    1.300   .     A
N303   O305    1.300   .     A
N303   O304    1.301   .     A
N306   O308    1.300   .     A
N306   O307    1.301   .     A
O309   C313    1.290   .     A
O309   Zn321   2.003   .     S
O310   Zn322   2.003   .     S
O310   C314    1.289   .     A
O311   Zn321   2.003   .     S
O311   C314    1.289   .     A
O312   Zn322   2.003   .     S
O312   C313    1.289   .     A
C313   C334    1.423   .     S
C314   C333    1.423   .     S
O315   C319    1.282   .     A
O315   Zn321   1.949   .     S
O316   C320    1.282   .     A
O316   Zn322   1.949   .     S
O317   C320    1.282   .     A
O317   Zn321   1.949   .     S
O318   C319    1.282   .     A
O318   Zn322   1.949   .     S
C319   C323    1.366   .     S
C320   C324    1.366   .     S
Zn321  N339    2.024   .     S
Zn322  N340    2.024   .     S
C323   C1116   1.165   1_554 S
C324   C719    1.165   .     S
C325   C334    1.397   .     A
C325   H329    1.082   .     S
C326   C333    1.397   .     A
C326   H330    1.082   .     S
C326   C372    1.369   .     S
C327   H331    1.082   .     S
C327   C333    1.397   .     A
C327   C369    1.369   .     S
C328   H332    1.082   .     S
C328   C334    1.397   .     A
C335   N341    1.428   .     S
C335   N340    1.371   .     A
C336   N344    1.428   .     S
C336   N339    1.371   .     A
C336   C73     1.425   1_565 S
C337   N347    1.427   .     S
C337   N340    1.371   .     A
C338   N350    1.428   .     S
C338   N339    1.371   .     A
C338   C71     1.425   1_565 S
N341   O342    1.300   .     A
N341   O343    1.301   .     A
N344   O346    1.301   .     A
N344   O345    1.300   .     A
N347   O349    1.300   .     A
N347   O348    1.301   .     A
N350   O352    1.300   .     A
N350   O351    1.301   .     A
O353   C357    1.290   .     A
O353   Zn365   2.003   .     S
O354   Zn366   2.003   .     S
O354   C358    1.289   .     A
O355   Zn365   2.003   .     S
O355   C358    1.289   .     A
O356   Zn366   2.003   .     S
O356   C357    1.289   .     A
C357   C378    1.423   .     S
C358   C377    1.423   .     S
O359   C363    1.282   .     A
O359   Zn365   1.949   .     S
O360   C364    1.282   .     A
O360   Zn366   1.949   .     S
O361   C364    1.282   .     A
O361   Zn365   1.949   .     S
O362   C363    1.282   .     A
O362   Zn366   1.949   .     S
C363   C367    1.366   .     S
C364   C368    1.366   .     S
Zn365  N383    2.024   .     S
Zn366  N384    2.024   .     S
C367   C1160   1.165   1_554 S
C368   C763    1.165   .     S
C369   C378    1.397   .     A
C369   H373    1.082   .     S
C370   C377    1.397   .     A
C370   H374    1.082   .     S
C370   C284    1.369   1_655 S
C371   H375    1.082   .     S
C371   C377    1.397   .     A
C371   C281    1.369   1_655 S
C372   H376    1.082   .     S
C372   C378    1.397   .     A
C379   N385    1.428   .     S
C379   N384    1.371   .     A
C380   N388    1.428   .     S
C380   N383    1.371   .     A
C380   C117    1.425   1_565 S
C381   N391    1.427   .     S
C381   N384    1.371   .     A
C382   N394    1.428   .     S
C382   N383    1.371   .     A
C382   C115    1.425   1_565 S
N385   O386    1.300   .     A
N385   O387    1.301   .     A
N388   O390    1.301   .     A
N388   O389    1.300   .     A
N391   O393    1.300   .     A
N391   O392    1.301   .     A
N394   O396    1.300   .     A
N394   O395    1.301   .     A
O397   C401    1.290   .     A
O397   Zn409   2.003   .     S
O398   Zn410   2.003   .     S
O398   C402    1.289   .     A
O399   Zn409   2.003   .     S
O399   C402    1.289   .     A
O400   Zn410   2.003   .     S
O400   C401    1.289   .     A
C401   C422    1.423   .     S
C402   C421    1.423   .     S
O403   C407    1.282   .     A
O403   Zn409   1.949   .     S
O404   C408    1.282   .     A
O404   Zn410   1.949   .     S
O405   C408    1.282   .     A
O405   Zn409   1.949   .     S
O406   C407    1.282   .     A
O406   Zn410   1.949   .     S
C407   C411    1.366   .     S
C408   C412    1.366   .     S
Zn409  N427    2.024   .     S
Zn410  N428    2.024   .     S
C412   C807    1.165   .     S
C413   C422    1.397   .     A
C413   H417    1.082   .     S
C413   C503    1.369   1_455 S
C414   C421    1.397   .     A
C414   H418    1.082   .     S
C414   C460    1.369   .     S
C415   H419    1.082   .     S
C415   C421    1.397   .     A
C415   C457    1.369   .     S
C416   H420    1.082   .     S
C416   C422    1.397   .     A
C416   C502    1.369   1_455 S
C423   N429    1.428   .     S
C423   N428    1.371   .     A
C423   C690    1.425   1_545 S
C424   N432    1.428   .     S
C424   N427    1.371   .     A
C424   C557    1.425   .     S
C425   N435    1.427   .     S
C425   N428    1.371   .     A
C425   C688    1.425   1_545 S
C426   N438    1.428   .     S
C426   N427    1.371   .     A
C426   C555    1.425   .     S
N429   O430    1.300   .     A
N429   O431    1.301   .     A
N432   O434    1.301   .     A
N432   O433    1.300   .     A
N435   O437    1.300   .     A
N435   O436    1.301   .     A
N438   O440    1.300   .     A
N438   O439    1.301   .     A
O441   C445    1.290   .     A
O441   Zn453   2.003   .     S
O442   Zn454   2.003   .     S
O442   C446    1.289   .     A
O443   Zn453   2.003   .     S
O443   C446    1.289   .     A
O444   Zn454   2.003   .     S
O444   C445    1.289   .     A
C445   C466    1.423   .     S
C446   C465    1.423   .     S
O447   C451    1.282   .     A
O447   Zn453   1.949   .     S
O448   C452    1.282   .     A
O448   Zn454   1.949   .     S
O449   C452    1.282   .     A
O449   Zn453   1.949   .     S
O450   C451    1.282   .     A
O450   Zn454   1.949   .     S
C451   C455    1.366   .     S
C452   C456    1.366   .     S
Zn453  N471    2.024   .     S
Zn454  N472    2.024   .     S
C456   C851    1.165   .     S
C457   C466    1.397   .     A
C457   H461    1.082   .     S
C458   C465    1.397   .     A
C458   H462    1.082   .     S
C458   C504    1.369   .     S
C459   H463    1.082   .     S
C459   C465    1.397   .     A
C459   C501    1.369   .     S
C460   H464    1.082   .     S
C460   C466    1.397   .     A
C467   N473    1.428   .     S
C467   N472    1.371   .     A
C467   C734    1.425   1_545 S
C468   N476    1.428   .     S
C468   N471    1.371   .     A
C468   C601    1.425   .     S
C469   N479    1.427   .     S
C469   N472    1.371   .     A
C469   C732    1.425   1_545 S
C470   N482    1.428   .     S
C470   N471    1.371   .     A
C470   C599    1.425   .     S
N473   O474    1.300   .     A
N473   O475    1.301   .     A
N476   O478    1.301   .     A
N476   O477    1.300   .     A
N479   O481    1.300   .     A
N479   O480    1.301   .     A
N482   O484    1.300   .     A
N482   O483    1.301   .     A
O485   C489    1.290   .     A
O485   Zn497   2.003   .     S
O486   Zn498   2.003   .     S
O486   C490    1.289   .     A
O487   Zn497   2.003   .     S
O487   C490    1.289   .     A
O488   Zn498   2.003   .     S
O488   C489    1.289   .     A
C489   C510    1.423   .     S
C490   C509    1.423   .     S
O491   C495    1.282   .     A
O491   Zn497   1.949   .     S
O492   C496    1.282   .     A
O492   Zn498   1.949   .     S
O493   C496    1.282   .     A
O493   Zn497   1.949   .     S
O494   C495    1.282   .     A
O494   Zn498   1.949   .     S
C495   C499    1.366   .     S
C496   C500    1.366   .     S
Zn497  N515    2.024   .     S
Zn498  N516    2.024   .     S
C500   C895    1.165   .     S
C501   C510    1.397   .     A
C501   H505    1.082   .     S
C502   C509    1.397   .     A
C502   H506    1.082   .     S
C502   C416    1.369   1_655 S
C503   H507    1.082   .     S
C503   C509    1.397   .     A
C503   C413    1.369   1_655 S
C504   H508    1.082   .     S
C504   C510    1.397   .     A
C511   N517    1.428   .     S
C511   N516    1.371   .     A
C511   C778    1.425   1_545 S
C512   N520    1.428   .     S
C512   N515    1.371   .     A
C512   C645    1.425   .     S
C513   N523    1.427   .     S
C513   N516    1.371   .     A
C513   C776    1.425   1_545 S
C514   N526    1.428   .     S
C514   N515    1.371   .     A
C514   C643    1.425   .     S
N517   O518    1.300   .     A
N517   O519    1.301   .     A
N520   O522    1.301   .     A
N520   O521    1.300   .     A
N523   O525    1.300   .     A
N523   O524    1.301   .     A
N526   O528    1.300   .     A
N526   O527    1.301   .     A
O529   C533    1.290   .     A
O529   Zn541   2.003   .     S
O530   Zn542   2.003   .     S
O530   C534    1.289   .     A
O531   Zn541   2.003   .     S
O531   C534    1.289   .     A
O532   Zn542   2.003   .     S
O532   C533    1.289   .     A
C533   C554    1.423   .     S
C534   C553    1.423   .     S
O535   C539    1.282   .     A
O535   Zn541   1.949   .     S
O536   C540    1.282   .     A
O536   Zn542   1.949   .     S
O537   C540    1.282   .     A
O537   Zn541   1.949   .     S
O538   C539    1.282   .     A
O538   Zn542   1.949   .     S
C539   C543    1.366   .     S
C540   C544    1.366   .     S
Zn541  N559    2.024   .     S
Zn542  N560    2.024   .     S
C544   C939    1.165   .     S
C545   C554    1.397   .     A
C545   H549    1.082   .     S
C545   C635    1.369   1_455 S
C546   C553    1.397   .     A
C546   H550    1.082   .     S
C546   C592    1.369   .     S
C547   H551    1.082   .     S
C547   C553    1.397   .     A
C547   C589    1.369   .     S
C548   H552    1.082   .     S
C548   C554    1.397   .     A
C548   C634    1.369   1_455 S
C555   N561    1.428   .     S
C555   N560    1.371   .     A
C556   N564    1.428   .     S
C556   N559    1.371   .     A
C556   C689    1.425   .     S
C557   N567    1.427   .     S
C557   N560    1.371   .     A
C558   N570    1.428   .     S
C558   N559    1.371   .     A
C558   C687    1.425   .     S
N561   O562    1.300   .     A
N561   O563    1.301   .     A
N564   O566    1.301   .     A
N564   O565    1.300   .     A
N567   O569    1.300   .     A
N567   O568    1.301   .     A
N570   O572    1.300   .     A
N570   O571    1.301   .     A
O573   C577    1.290   .     A
O573   Zn585   2.003   .     S
O574   Zn586   2.003   .     S
O574   C578    1.289   .     A
O575   Zn585   2.003   .     S
O575   C578    1.289   .     A
O576   Zn586   2.003   .     S
O576   C577    1.289   .     A
C577   C598    1.423   .     S
C578   C597    1.423   .     S
O579   C583    1.282   .     A
O579   Zn585   1.949   .     S
O580   C584    1.282   .     A
O580   Zn586   1.949   .     S
O581   C584    1.282   .     A
O581   Zn585   1.949   .     S
O582   C583    1.282   .     A
O582   Zn586   1.949   .     S
C583   C587    1.366   .     S
C584   C588    1.366   .     S
Zn585  N603    2.024   .     S
Zn586  N604    2.024   .     S
C588   C983    1.165   .     S
C589   C598    1.397   .     A
C589   H593    1.082   .     S
C590   C597    1.397   .     A
C590   H594    1.082   .     S
C590   C636    1.369   .     S
C591   H595    1.082   .     S
C591   C597    1.397   .     A
C591   C633    1.369   .     S
C592   H596    1.082   .     S
C592   C598    1.397   .     A
C599   N605    1.428   .     S
C599   N604    1.371   .     A
C600   N608    1.428   .     S
C600   N603    1.371   .     A
C600   C733    1.425   .     S
C601   N611    1.427   .     S
C601   N604    1.371   .     A
C602   N614    1.428   .     S
C602   N603    1.371   .     A
C602   C731    1.425   .     S
N605   O606    1.300   .     A
N605   O607    1.301   .     A
N608   O610    1.301   .     A
N608   O609    1.300   .     A
N611   O613    1.300   .     A
N611   O612    1.301   .     A
N614   O616    1.300   .     A
N614   O615    1.301   .     A
O617   C621    1.290   .     A
O617   Zn629   2.003   .     S
O618   Zn630   2.003   .     S
O618   C622    1.289   .     A
O619   Zn629   2.003   .     S
O619   C622    1.289   .     A
O620   Zn630   2.003   .     S
O620   C621    1.289   .     A
C621   C642    1.423   .     S
C622   C641    1.423   .     S
O623   C627    1.282   .     A
O623   Zn629   1.949   .     S
O624   C628    1.282   .     A
O624   Zn630   1.949   .     S
O625   C628    1.282   .     A
O625   Zn629   1.949   .     S
O626   C627    1.282   .     A
O626   Zn630   1.949   .     S
C627   C631    1.366   .     S
C628   C632    1.366   .     S
Zn629  N647    2.024   .     S
Zn630  N648    2.024   .     S
C632   C1027   1.165   .     S
C633   C642    1.397   .     A
C633   H637    1.082   .     S
C634   C641    1.397   .     A
C634   H638    1.082   .     S
C634   C548    1.369   1_655 S
C635   H639    1.082   .     S
C635   C641    1.397   .     A
C635   C545    1.369   1_655 S
C636   H640    1.082   .     S
C636   C642    1.397   .     A
C643   N649    1.428   .     S
C643   N648    1.371   .     A
C644   N652    1.428   .     S
C644   N647    1.371   .     A
C644   C777    1.425   .     S
C645   N655    1.427   .     S
C645   N648    1.371   .     A
C646   N658    1.428   .     S
C646   N647    1.371   .     A
C646   C775    1.425   .     S
N649   O650    1.300   .     A
N649   O651    1.301   .     A
N652   O654    1.301   .     A
N652   O653    1.300   .     A
N655   O657    1.300   .     A
N655   O656    1.301   .     A
N658   O660    1.300   .     A
N658   O659    1.301   .     A
O661   C665    1.290   .     A
O661   Zn673   2.003   .     S
O662   Zn674   2.003   .     S
O662   C666    1.289   .     A
O663   Zn673   2.003   .     S
O663   C666    1.289   .     A
O664   Zn674   2.003   .     S
O664   C665    1.289   .     A
C665   C686    1.423   .     S
C666   C685    1.423   .     S
O667   C671    1.282   .     A
O667   Zn673   1.949   .     S
O668   C672    1.282   .     A
O668   Zn674   1.949   .     S
O669   C672    1.282   .     A
O669   Zn673   1.949   .     S
O670   C671    1.282   .     A
O670   Zn674   1.949   .     S
C671   C675    1.366   .     S
C672   C676    1.366   .     S
Zn673  N691    2.024   .     S
Zn674  N692    2.024   .     S
C676   C1071   1.165   .     S
C677   C686    1.397   .     A
C677   H681    1.082   .     S
C677   C767    1.369   1_455 S
C678   C685    1.397   .     A
C678   H682    1.082   .     S
C678   C724    1.369   .     S
C679   H683    1.082   .     S
C679   C685    1.397   .     A
C679   C721    1.369   .     S
C680   H684    1.082   .     S
C680   C686    1.397   .     A
C680   C766    1.369   1_455 S
C687   N693    1.428   .     S
C687   N692    1.371   .     A
C688   N696    1.428   .     S
C688   N691    1.371   .     A
C688   C425    1.425   1_565 S
C689   N699    1.427   .     S
C689   N692    1.371   .     A
C690   N702    1.428   .     S
C690   N691    1.371   .     A
C690   C423    1.425   1_565 S
N693   O694    1.300   .     A
N693   O695    1.301   .     A
N696   O698    1.301   .     A
N696   O697    1.300   .     A
N699   O701    1.300   .     A
N699   O700    1.301   .     A
N702   O704    1.300   .     A
N702   O703    1.301   .     A
O705   C709    1.290   .     A
O705   Zn717   2.003   .     S
O706   Zn718   2.003   .     S
O706   C710    1.289   .     A
O707   Zn717   2.003   .     S
O707   C710    1.289   .     A
O708   Zn718   2.003   .     S
O708   C709    1.289   .     A
C709   C730    1.423   .     S
C710   C729    1.423   .     S
O711   C715    1.282   .     A
O711   Zn717   1.949   .     S
O712   C716    1.282   .     A
O712   Zn718   1.949   .     S
O713   C716    1.282   .     A
O713   Zn717   1.949   .     S
O714   C715    1.282   .     A
O714   Zn718   1.949   .     S
C715   C719    1.366   .     S
C716   C720    1.366   .     S
Zn717  N735    2.024   .     S
Zn718  N736    2.024   .     S
C720   C1115   1.165   .     S
C721   C730    1.397   .     A
C721   H725    1.082   .     S
C722   C729    1.397   .     A
C722   H726    1.082   .     S
C722   C768    1.369   .     S
C723   H727    1.082   .     S
C723   C729    1.397   .     A
C723   C765    1.369   .     S
C724   H728    1.082   .     S
C724   C730    1.397   .     A
C731   N737    1.428   .     S
C731   N736    1.371   .     A
C732   N740    1.428   .     S
C732   N735    1.371   .     A
C732   C469    1.425   1_565 S
C733   N743    1.427   .     S
C733   N736    1.371   .     A
C734   N746    1.428   .     S
C734   N735    1.371   .     A
C734   C467    1.425   1_565 S
N737   O738    1.300   .     A
N737   O739    1.301   .     A
N740   O742    1.301   .     A
N740   O741    1.300   .     A
N743   O745    1.300   .     A
N743   O744    1.301   .     A
N746   O748    1.300   .     A
N746   O747    1.301   .     A
O749   C753    1.290   .     A
O749   Zn761   2.003   .     S
O750   Zn762   2.003   .     S
O750   C754    1.289   .     A
O751   Zn761   2.003   .     S
O751   C754    1.289   .     A
O752   Zn762   2.003   .     S
O752   C753    1.289   .     A
C753   C774    1.423   .     S
C754   C773    1.423   .     S
O755   C759    1.282   .     A
O755   Zn761   1.949   .     S
O756   C760    1.282   .     A
O756   Zn762   1.949   .     S
O757   C760    1.282   .     A
O757   Zn761   1.949   .     S
O758   C759    1.282   .     A
O758   Zn762   1.949   .     S
C759   C763    1.366   .     S
C760   C764    1.366   .     S
Zn761  N779    2.024   .     S
Zn762  N780    2.024   .     S
C764   C1159   1.165   .     S
C765   C774    1.397   .     A
C765   H769    1.082   .     S
C766   C773    1.397   .     A
C766   H770    1.082   .     S
C766   C680    1.369   1_655 S
C767   H771    1.082   .     S
C767   C773    1.397   .     A
C767   C677    1.369   1_655 S
C768   H772    1.082   .     S
C768   C774    1.397   .     A
C775   N781    1.428   .     S
C775   N780    1.371   .     A
C776   N784    1.428   .     S
C776   N779    1.371   .     A
C776   C513    1.425   1_565 S
C777   N787    1.427   .     S
C777   N780    1.371   .     A
C778   N790    1.428   .     S
C778   N779    1.371   .     A
C778   C511    1.425   1_565 S
N781   O782    1.300   .     A
N781   O783    1.301   .     A
N784   O786    1.301   .     A
N784   O785    1.300   .     A
N787   O789    1.300   .     A
N787   O788    1.301   .     A
N790   O792    1.300   .     A
N790   O791    1.301   .     A
O793   C797    1.290   .     A
O793   Zn805   2.003   .     S
O794   Zn806   2.003   .     S
O794   C798    1.289   .     A
O795   Zn805   2.003   .     S
O795   C798    1.289   .     A
O796   Zn806   2.003   .     S
O796   C797    1.289   .     A
C797   C818    1.423   .     S
C798   C817    1.423   .     S
O799   C803    1.282   .     A
O799   Zn805   1.949   .     S
O800   C804    1.282   .     A
O800   Zn806   1.949   .     S
O801   C804    1.282   .     A
O801   Zn805   1.949   .     S
O802   C803    1.282   .     A
O802   Zn806   1.949   .     S
C803   C807    1.366   .     S
C804   C808    1.366   .     S
Zn805  N823    2.024   .     S
Zn806  N824    2.024   .     S
C808   C15     1.165   1_556 S
C809   C818    1.397   .     A
C809   H813    1.082   .     S
C809   C899    1.369   1_455 S
C810   C817    1.397   .     A
C810   H814    1.082   .     S
C810   C856    1.369   .     S
C811   H815    1.082   .     S
C811   C817    1.397   .     A
C811   C853    1.369   .     S
C812   H816    1.082   .     S
C812   C818    1.397   .     A
C812   C898    1.369   1_455 S
C819   N825    1.428   .     S
C819   N824    1.371   .     A
C819   C1086   1.425   1_545 S
C820   N828    1.428   .     S
C820   N823    1.371   .     A
C820   C953    1.425   .     S
C821   N831    1.427   .     S
C821   N824    1.371   .     A
C821   C1084   1.425   1_545 S
C822   N834    1.428   .     S
C822   N823    1.371   .     A
C822   C951    1.425   .     S
N825   O826    1.300   .     A
N825   O827    1.301   .     A
N828   O830    1.301   .     A
N828   O829    1.300   .     A
N831   O833    1.300   .     A
N831   O832    1.301   .     A
N834   O836    1.300   .     A
N834   O835    1.301   .     A
O837   C841    1.290   .     A
O837   Zn849   2.003   .     S
O838   Zn850   2.003   .     S
O838   C842    1.289   .     A
O839   Zn849   2.003   .     S
O839   C842    1.289   .     A
O840   Zn850   2.003   .     S
O840   C841    1.289   .     A
C841   C862    1.423   .     S
C842   C861    1.423   .     S
O843   C847    1.282   .     A
O843   Zn849   1.949   .     S
O844   C848    1.282   .     A
O844   Zn850   1.949   .     S
O845   C848    1.282   .     A
O845   Zn849   1.949   .     S
O846   C847    1.282   .     A
O846   Zn850   1.949   .     S
C847   C851    1.366   .     S
C848   C852    1.366   .     S
Zn849  N867    2.024   .     S
Zn850  N868    2.024   .     S
C852   C59     1.165   1_556 S
C853   C862    1.397   .     A
C853   H857    1.082   .     S
C854   C861    1.397   .     A
C854   H858    1.082   .     S
C854   C900    1.369   .     S
C855   H859    1.082   .     S
C855   C861    1.397   .     A
C855   C897    1.369   .     S
C856   H860    1.082   .     S
C856   C862    1.397   .     A
C863   N869    1.428   .     S
C863   N868    1.371   .     A
C863   C1130   1.425   1_545 S
C864   N872    1.428   .     S
C864   N867    1.371   .     A
C864   C997    1.425   .     S
C865   N875    1.427   .     S
C865   N868    1.371   .     A
C865   C1128   1.425   1_545 S
C866   N878    1.428   .     S
C866   N867    1.371   .     A
C866   C995    1.425   .     S
N869   O870    1.300   .     A
N869   O871    1.301   .     A
N872   O874    1.301   .     A
N872   O873    1.300   .     A
N875   O877    1.300   .     A
N875   O876    1.301   .     A
N878   O880    1.300   .     A
N878   O879    1.301   .     A
O881   C885    1.290   .     A
O881   Zn893   2.003   .     S
O882   Zn894   2.003   .     S
O882   C886    1.289   .     A
O883   Zn893   2.003   .     S
O883   C886    1.289   .     A
O884   Zn894   2.003   .     S
O884   C885    1.289   .     A
C885   C906    1.423   .     S
C886   C905    1.423   .     S
O887   C891    1.282   .     A
O887   Zn893   1.949   .     S
O888   C892    1.282   .     A
O888   Zn894   1.949   .     S
O889   C892    1.282   .     A
O889   Zn893   1.949   .     S
O890   C891    1.282   .     A
O890   Zn894   1.949   .     S
C891   C895    1.366   .     S
C892   C896    1.366   .     S
Zn893  N911    2.024   .     S
Zn894  N912    2.024   .     S
C896   C103    1.165   1_556 S
C897   C906    1.397   .     A
C897   H901    1.082   .     S
C898   C905    1.397   .     A
C898   H902    1.082   .     S
C898   C812    1.369   1_655 S
C899   H903    1.082   .     S
C899   C905    1.397   .     A
C899   C809    1.369   1_655 S
C900   H904    1.082   .     S
C900   C906    1.397   .     A
C907   N913    1.428   .     S
C907   N912    1.371   .     A
C907   C1174   1.425   1_545 S
C908   N916    1.428   .     S
C908   N911    1.371   .     A
C908   C1041   1.425   .     S
C909   N919    1.427   .     S
C909   N912    1.371   .     A
C909   C1172   1.425   1_545 S
C910   N922    1.428   .     S
C910   N911    1.371   .     A
C910   C1039   1.425   .     S
N913   O914    1.300   .     A
N913   O915    1.301   .     A
N916   O918    1.301   .     A
N916   O917    1.300   .     A
N919   O921    1.300   .     A
N919   O920    1.301   .     A
N922   O924    1.300   .     A
N922   O923    1.301   .     A
O925   C929    1.290   .     A
O925   Zn937   2.003   .     S
O926   Zn938   2.003   .     S
O926   C930    1.289   .     A
O927   Zn937   2.003   .     S
O927   C930    1.289   .     A
O928   Zn938   2.003   .     S
O928   C929    1.289   .     A
C929   C950    1.423   .     S
C930   C949    1.423   .     S
O931   C935    1.282   .     A
O931   Zn937   1.949   .     S
O932   C936    1.282   .     A
O932   Zn938   1.949   .     S
O933   C936    1.282   .     A
O933   Zn937   1.949   .     S
O934   C935    1.282   .     A
O934   Zn938   1.949   .     S
C935   C939    1.366   .     S
C936   C940    1.366   .     S
Zn937  N955    2.024   .     S
Zn938  N956    2.024   .     S
C940   C147    1.165   1_556 S
C941   C950    1.397   .     A
C941   H945    1.082   .     S
C941   C1031   1.369   1_455 S
C942   C949    1.397   .     A
C942   H946    1.082   .     S
C942   C988    1.369   .     S
C943   H947    1.082   .     S
C943   C949    1.397   .     A
C943   C985    1.369   .     S
C944   H948    1.082   .     S
C944   C950    1.397   .     A
C944   C1030   1.369   1_455 S
C951   N957    1.428   .     S
C951   N956    1.371   .     A
C952   N960    1.428   .     S
C952   N955    1.371   .     A
C952   C1085   1.425   .     S
C953   N963    1.427   .     S
C953   N956    1.371   .     A
C954   N966    1.428   .     S
C954   N955    1.371   .     A
C954   C1083   1.425   .     S
N957   O958    1.300   .     A
N957   O959    1.301   .     A
N960   O962    1.301   .     A
N960   O961    1.300   .     A
N963   O965    1.300   .     A
N963   O964    1.301   .     A
N966   O968    1.300   .     A
N966   O967    1.301   .     A
O969   C973    1.290   .     A
O969   Zn981   2.003   .     S
O970   Zn982   2.003   .     S
O970   C974    1.289   .     A
O971   Zn981   2.003   .     S
O971   C974    1.289   .     A
O972   Zn982   2.003   .     S
O972   C973    1.289   .     A
C973   C994    1.423   .     S
C974   C993    1.423   .     S
O975   C979    1.282   .     A
O975   Zn981   1.949   .     S
O976   C980    1.282   .     A
O976   Zn982   1.949   .     S
O977   C980    1.282   .     A
O977   Zn981   1.949   .     S
O978   C979    1.282   .     A
O978   Zn982   1.949   .     S
C979   C983    1.366   .     S
C980   C984    1.366   .     S
Zn981  N999    2.024   .     S
Zn982  N1000   2.024   .     S
C984   C191    1.165   1_556 S
C985   C994    1.397   .     A
C985   H989    1.082   .     S
C986   C993    1.397   .     A
C986   H990    1.082   .     S
C986   C1032   1.369   .     S
C987   H991    1.082   .     S
C987   C993    1.397   .     A
C987   C1029   1.369   .     S
C988   H992    1.082   .     S
C988   C994    1.397   .     A
C995   N1001   1.428   .     S
C995   N1000   1.371   .     A
C996   N1004   1.428   .     S
C996   N999    1.371   .     A
C996   C1129   1.425   .     S
C997   N1007   1.427   .     S
C997   N1000   1.371   .     A
C998   N1010   1.428   .     S
C998   N999    1.371   .     A
C998   C1127   1.425   .     S
N1001  O1002   1.300   .     A
N1001  O1003   1.301   .     A
N1004  O1006   1.301   .     A
N1004  O1005   1.300   .     A
N1007  O1009   1.300   .     A
N1007  O1008   1.301   .     A
N1010  O1012   1.300   .     A
N1010  O1011   1.301   .     A
O1013  C1017   1.290   .     A
O1013  Zn1025  2.003   .     S
O1014  Zn1026  2.003   .     S
O1014  C1018   1.289   .     A
O1015  Zn1025  2.003   .     S
O1015  C1018   1.289   .     A
O1016  Zn1026  2.003   .     S
O1016  C1017   1.289   .     A
C1017  C1038   1.423   .     S
C1018  C1037   1.423   .     S
O1019  C1023   1.282   .     A
O1019  Zn1025  1.949   .     S
O1020  C1024   1.282   .     A
O1020  Zn1026  1.949   .     S
O1021  C1024   1.282   .     A
O1021  Zn1025  1.949   .     S
O1022  C1023   1.282   .     A
O1022  Zn1026  1.949   .     S
C1023  C1027   1.366   .     S
C1024  C1028   1.366   .     S
Zn1025 N1043   2.024   .     S
Zn1026 N1044   2.024   .     S
C1028  C235    1.165   1_556 S
C1029  C1038   1.397   .     A
C1029  H1033   1.082   .     S
C1030  C1037   1.397   .     A
C1030  H1034   1.082   .     S
C1030  C944    1.369   1_655 S
C1031  H1035   1.082   .     S
C1031  C1037   1.397   .     A
C1031  C941    1.369   1_655 S
C1032  H1036   1.082   .     S
C1032  C1038   1.397   .     A
C1039  N1045   1.428   .     S
C1039  N1044   1.371   .     A
C1040  N1048   1.428   .     S
C1040  N1043   1.371   .     A
C1040  C1173   1.425   .     S
C1041  N1051   1.427   .     S
C1041  N1044   1.371   .     A
C1042  N1054   1.428   .     S
C1042  N1043   1.371   .     A
C1042  C1171   1.425   .     S
N1045  O1046   1.300   .     A
N1045  O1047   1.301   .     A
N1048  O1050   1.301   .     A
N1048  O1049   1.300   .     A
N1051  O1053   1.300   .     A
N1051  O1052   1.301   .     A
N1054  O1056   1.300   .     A
N1054  O1055   1.301   .     A
O1057  C1061   1.290   .     A
O1057  Zn1069  2.003   .     S
O1058  Zn1070  2.003   .     S
O1058  C1062   1.289   .     A
O1059  Zn1069  2.003   .     S
O1059  C1062   1.289   .     A
O1060  Zn1070  2.003   .     S
O1060  C1061   1.289   .     A
C1061  C1082   1.423   .     S
C1062  C1081   1.423   .     S
O1063  C1067   1.282   .     A
O1063  Zn1069  1.949   .     S
O1064  C1068   1.282   .     A
O1064  Zn1070  1.949   .     S
O1065  C1068   1.282   .     A
O1065  Zn1069  1.949   .     S
O1066  C1067   1.282   .     A
O1066  Zn1070  1.949   .     S
C1067  C1071   1.366   .     S
C1068  C1072   1.366   .     S
Zn1069 N1087   2.024   .     S
Zn1070 N1088   2.024   .     S
C1072  C279    1.165   1_556 S
C1073  C1082   1.397   .     A
C1073  H1077   1.082   .     S
C1073  C1163   1.369   1_455 S
C1074  C1081   1.397   .     A
C1074  H1078   1.082   .     S
C1074  C1120   1.369   .     S
C1075  H1079   1.082   .     S
C1075  C1081   1.397   .     A
C1075  C1117   1.369   .     S
C1076  H1080   1.082   .     S
C1076  C1082   1.397   .     A
C1076  C1162   1.369   1_455 S
C1083  N1089   1.428   .     S
C1083  N1088   1.371   .     A
C1084  N1092   1.428   .     S
C1084  N1087   1.371   .     A
C1084  C821    1.425   1_565 S
C1085  N1095   1.427   .     S
C1085  N1088   1.371   .     A
C1086  N1098   1.428   .     S
C1086  N1087   1.371   .     A
C1086  C819    1.425   1_565 S
N1089  O1090   1.300   .     A
N1089  O1091   1.301   .     A
N1092  O1094   1.301   .     A
N1092  O1093   1.300   .     A
N1095  O1097   1.300   .     A
N1095  O1096   1.301   .     A
N1098  O1100   1.300   .     A
N1098  O1099   1.301   .     A
O1101  C1105   1.290   .     A
O1101  Zn1113  2.003   .     S
O1102  Zn1114  2.003   .     S
O1102  C1106   1.289   .     A
O1103  Zn1113  2.003   .     S
O1103  C1106   1.289   .     A
O1104  Zn1114  2.003   .     S
O1104  C1105   1.289   .     A
C1105  C1126   1.423   .     S
C1106  C1125   1.423   .     S
O1107  C1111   1.282   .     A
O1107  Zn1113  1.949   .     S
O1108  C1112   1.282   .     A
O1108  Zn1114  1.949   .     S
O1109  C1112   1.282   .     A
O1109  Zn1113  1.949   .     S
O1110  C1111   1.282   .     A
O1110  Zn1114  1.949   .     S
C1111  C1115   1.366   .     S
C1112  C1116   1.366   .     S
Zn1113 N1131   2.024   .     S
Zn1114 N1132   2.024   .     S
C1116  C323    1.165   1_556 S
C1117  C1126   1.397   .     A
C1117  H1121   1.082   .     S
C1118  C1125   1.397   .     A
C1118  H1122   1.082   .     S
C1118  C1164   1.369   .     S
C1119  H1123   1.082   .     S
C1119  C1125   1.397   .     A
C1119  C1161   1.369   .     S
C1120  H1124   1.082   .     S
C1120  C1126   1.397   .     A
C1127  N1133   1.428   .     S
C1127  N1132   1.371   .     A
C1128  N1136   1.428   .     S
C1128  N1131   1.371   .     A
C1128  C865    1.425   1_565 S
C1129  N1139   1.427   .     S
C1129  N1132   1.371   .     A
C1130  N1142   1.428   .     S
C1130  N1131   1.371   .     A
C1130  C863    1.425   1_565 S
N1133  O1134   1.300   .     A
N1133  O1135   1.301   .     A
N1136  O1138   1.301   .     A
N1136  O1137   1.300   .     A
N1139  O1141   1.300   .     A
N1139  O1140   1.301   .     A
N1142  O1144   1.300   .     A
N1142  O1143   1.301   .     A
O1145  C1149   1.290   .     A
O1145  Zn1157  2.003   .     S
O1146  Zn1158  2.003   .     S
O1146  C1150   1.289   .     A
O1147  Zn1157  2.003   .     S
O1147  C1150   1.289   .     A
O1148  Zn1158  2.003   .     S
O1148  C1149   1.289   .     A
C1149  C1170   1.423   .     S
C1150  C1169   1.423   .     S
O1151  C1155   1.282   .     A
O1151  Zn1157  1.949   .     S
O1152  C1156   1.282   .     A
O1152  Zn1158  1.949   .     S
O1153  C1156   1.282   .     A
O1153  Zn1157  1.949   .     S
O1154  C1155   1.282   .     A
O1154  Zn1158  1.949   .     S
C1155  C1159   1.366   .     S
C1156  C1160   1.366   .     S
Zn1157 N1175   2.024   .     S
Zn1158 N1176   2.024   .     S
C1160  C367    1.165   1_556 S
C1161  C1170   1.397   .     A
C1161  H1165   1.082   .     S
C1162  C1169   1.397   .     A
C1162  H1166   1.082   .     S
C1162  C1076   1.369   1_655 S
C1163  H1167   1.082   .     S
C1163  C1169   1.397   .     A
C1163  C1073   1.369   1_655 S
C1164  H1168   1.082   .     S
C1164  C1170   1.397   .     A
C1171  N1177   1.428   .     S
C1171  N1176   1.371   .     A
C1172  N1180   1.428   .     S
C1172  N1175   1.371   .     A
C1172  C909    1.425   1_565 S
C1173  N1183   1.427   .     S
C1173  N1176   1.371   .     A
C1174  N1186   1.428   .     S
C1174  N1175   1.371   .     A
C1174  C907    1.425   1_565 S
N1177  O1178   1.300   .     A
N1177  O1179   1.301   .     A
N1180  O1182   1.301   .     A
N1180  O1181   1.300   .     A
N1183  O1185   1.300   .     A
N1183  O1184   1.301   .     A
N1186  O1188   1.300   .     A
N1186  O1187   1.301   .     A
