data_str_m3_o1_o5_pcu_sym.104
_audit_creation_date              2020-01-03
_audit_creation_method            'Materials Studio'
_symmetry_space_group_name_H-M    'P1'
_symmetry_Int_Tables_number       1
_symmetry_cell_setting            triclinic
loop_
_symmetry_equiv_pos_as_xyz
  x,y,z
_cell_length_a                    32.0610
_cell_length_b                    29.6242
_cell_length_c                    26.7958
_cell_angle_alpha                 90.0038
_cell_angle_beta                  91.9161
_cell_angle_gamma                 89.9967
loop_
_atom_site_label
_atom_site_type_symbol
_atom_site_fract_x
_atom_site_fract_y
_atom_site_fract_z
_atom_site_U_iso_or_equiv
_atom_site_adp_type
_atom_site_occupancy
C1     C     0.08688   0.16685   0.17228   0.00000  Uiso   1.00
C2     C     0.24645   0.16684   0.16104   0.00000  Uiso   1.00
C3     C     0.16650   0.16665   0.07288   0.00000  Uiso   1.00
C4     C     0.16683   0.16666   0.26045   0.00000  Uiso   1.00
C5     C     0.16662   0.16661   0.02178   0.00000  Uiso   1.00
C6     C     0.16672   0.16661   0.31155   0.00000  Uiso   1.00
C7     C     0.02040   0.12669   0.17551   0.00000  Uiso   1.00
C8     C     0.31249   0.20924   0.15915   0.00000  Uiso   1.00
C9     C     0.31294   0.12669   0.15779   0.00000  Uiso   1.00
C10    C     0.02083   0.20925   0.17412   0.00000  Uiso   1.00
C11    C     0.29108   0.16768   0.15566   0.00000  Uiso   1.00
C12    C     0.04225   0.16769   0.17763   0.00000  Uiso   1.00
C13    C     0.19058   0.02426   0.20124   0.00000  Uiso   1.00
C14    C     0.14282   0.30915   0.13208   0.00000  Uiso   1.00
C15    C     0.14275   0.02426   0.13209   0.00000  Uiso   1.00
C16    C     0.19052   0.30915   0.20125   0.00000  Uiso   1.00
N17    N     0.16667   0.28573   0.16667   0.00000  Uiso   1.00
N18    N     0.16667   0.04760   0.16667   0.00000  Uiso   1.00
O19    O     0.10559   0.20487   0.16666   0.00000  Uiso   1.00
O20    O     0.22774   0.12846   0.16667   0.00000  Uiso   1.00
O21    O     0.22774   0.20487   0.16667   0.00000  Uiso   1.00
O22    O     0.10559   0.12846   0.16666   0.00000  Uiso   1.00
O23    O     0.16667   0.20488   0.09511   0.00000  Uiso   1.00
O24    O     0.16666   0.12845   0.23822   0.00000  Uiso   1.00
O25    O     0.16666   0.20488   0.23822   0.00000  Uiso   1.00
O26    O     0.16667   0.12845   0.09511   0.00000  Uiso   1.00
Zn27   Zn    0.16667   0.21771   0.16667   0.00000  Uiso   1.00
Zn28   Zn    0.16667   0.11563   0.16667   0.00000  Uiso   1.00
Br29   Br    0.04195   0.07239   0.20691   0.00000  Uiso   1.00
Br30   Br    0.28814   0.26597   0.13636   0.00000  Uiso   1.00
Br31   Br    0.29138   0.07235   0.12645   0.00000  Uiso   1.00
Br32   Br    0.04516   0.26600   0.19685   0.00000  Uiso   1.00
N33    N     0.21227   0.04917   0.23934   0.00000  Uiso   1.00
H34    H     0.19694   0.05235   0.27236   0.00000  Uiso   1.00
C35    C     0.25724   0.04550   0.24418   0.00000  Uiso   1.00
H36    H     0.26643   0.02897   0.28006   0.00000  Uiso   1.00
H37    H     0.27104   0.07981   0.24411   0.00000  Uiso   1.00
H38    H     0.27026   0.02574   0.21322   0.00000  Uiso   1.00
N39    N     0.11822   0.28424   0.09664   0.00000  Uiso   1.00
H40    H     0.08649   0.28858   0.09866   0.00000  Uiso   1.00
C41    C     0.13290   0.28424   0.04627   0.00000  Uiso   1.00
H42    H     0.12356   0.31554   0.02628   0.00000  Uiso   1.00
H43    H     0.11888   0.25526   0.02552   0.00000  Uiso   1.00
H44    H     0.16740   0.28086   0.04671   0.00000  Uiso   1.00
N45    N     0.12107   0.04917   0.09399   0.00000  Uiso   1.00
H46    H     0.13639   0.05230   0.06096   0.00000  Uiso   1.00
C47    C     0.07609   0.04550   0.08916   0.00000  Uiso   1.00
H48    H     0.06692   0.02887   0.05332   0.00000  Uiso   1.00
H49    H     0.06228   0.07983   0.08911   0.00000  Uiso   1.00
H50    H     0.06307   0.02581   0.12018   0.00000  Uiso   1.00
N51    N     0.21510   0.28423   0.23669   0.00000  Uiso   1.00
H52    H     0.24684   0.28854   0.23467   0.00000  Uiso   1.00
C53    C     0.20043   0.28426   0.28706   0.00000  Uiso   1.00
H54    H     0.20979   0.31556   0.30705   0.00000  Uiso   1.00
H55    H     0.21443   0.25526   0.30781   0.00000  Uiso   1.00
H56    H     0.16592   0.28090   0.28662   0.00000  Uiso   1.00
C57    C     0.42021   0.16685   0.17228   0.00000  Uiso   1.00
C58    C     0.57979   0.16684   0.16104   0.00000  Uiso   1.00
C59    C     0.49984   0.16665   0.07288   0.00000  Uiso   1.00
C60    C     0.50016   0.16666   0.26045   0.00000  Uiso   1.00
C61    C     0.49995   0.16661   0.02178   0.00000  Uiso   1.00
C62    C     0.50005   0.16661   0.31155   0.00000  Uiso   1.00
C63    C     0.35373   0.12669   0.17551   0.00000  Uiso   1.00
C64    C     0.64582   0.20924   0.15915   0.00000  Uiso   1.00
C65    C     0.64627   0.12669   0.15779   0.00000  Uiso   1.00
C66    C     0.35416   0.20925   0.17412   0.00000  Uiso   1.00
C67    C     0.62441   0.16768   0.15566   0.00000  Uiso   1.00
C68    C     0.37558   0.16769   0.17763   0.00000  Uiso   1.00
C69    C     0.52392   0.02426   0.20124   0.00000  Uiso   1.00
C70    C     0.47615   0.30915   0.13208   0.00000  Uiso   1.00
C71    C     0.47608   0.02426   0.13209   0.00000  Uiso   1.00
C72    C     0.52385   0.30915   0.20125   0.00000  Uiso   1.00
N73    N     0.50000   0.28573   0.16667   0.00000  Uiso   1.00
N74    N     0.50000   0.04760   0.16667   0.00000  Uiso   1.00
O75    O     0.43892   0.20487   0.16666   0.00000  Uiso   1.00
O76    O     0.56108   0.12846   0.16667   0.00000  Uiso   1.00
O77    O     0.56108   0.20487   0.16667   0.00000  Uiso   1.00
O78    O     0.43892   0.12846   0.16666   0.00000  Uiso   1.00
O79    O     0.50000   0.20488   0.09511   0.00000  Uiso   1.00
O80    O     0.50000   0.12845   0.23822   0.00000  Uiso   1.00
O81    O     0.50000   0.20488   0.23822   0.00000  Uiso   1.00
O82    O     0.50000   0.12845   0.09511   0.00000  Uiso   1.00
Zn83   Zn    0.50000   0.21771   0.16667   0.00000  Uiso   1.00
Zn84   Zn    0.50000   0.11563   0.16667   0.00000  Uiso   1.00
Br85   Br    0.37529   0.07239   0.20691   0.00000  Uiso   1.00
Br86   Br    0.62148   0.26597   0.13636   0.00000  Uiso   1.00
Br87   Br    0.62471   0.07235   0.12645   0.00000  Uiso   1.00
Br88   Br    0.37850   0.26600   0.19685   0.00000  Uiso   1.00
N89    N     0.54560   0.04917   0.23934   0.00000  Uiso   1.00
H90    H     0.53027   0.05235   0.27236   0.00000  Uiso   1.00
C91    C     0.59058   0.04550   0.24418   0.00000  Uiso   1.00
H92    H     0.59976   0.02897   0.28006   0.00000  Uiso   1.00
H93    H     0.60438   0.07981   0.24411   0.00000  Uiso   1.00
H94    H     0.60359   0.02574   0.21322   0.00000  Uiso   1.00
N95    N     0.45156   0.28424   0.09664   0.00000  Uiso   1.00
H96    H     0.41982   0.28858   0.09866   0.00000  Uiso   1.00
C97    C     0.46624   0.28424   0.04627   0.00000  Uiso   1.00
H98    H     0.45690   0.31554   0.02628   0.00000  Uiso   1.00
H99    H     0.45221   0.25526   0.02552   0.00000  Uiso   1.00
H100   H     0.50073   0.28086   0.04671   0.00000  Uiso   1.00
N101   N     0.45440   0.04917   0.09399   0.00000  Uiso   1.00
H102   H     0.46972   0.05230   0.06096   0.00000  Uiso   1.00
C103   C     0.40942   0.04550   0.08916   0.00000  Uiso   1.00
H104   H     0.40025   0.02887   0.05332   0.00000  Uiso   1.00
H105   H     0.39561   0.07983   0.08911   0.00000  Uiso   1.00
H106   H     0.39640   0.02581   0.12018   0.00000  Uiso   1.00
N107   N     0.54844   0.28423   0.23669   0.00000  Uiso   1.00
H108   H     0.58017   0.28854   0.23467   0.00000  Uiso   1.00
C109   C     0.53376   0.28426   0.28706   0.00000  Uiso   1.00
H110   H     0.54313   0.31556   0.30705   0.00000  Uiso   1.00
H111   H     0.54777   0.25526   0.30781   0.00000  Uiso   1.00
H112   H     0.49926   0.28090   0.28662   0.00000  Uiso   1.00
C113   C     0.75354   0.16685   0.17228   0.00000  Uiso   1.00
C114   C     0.91312   0.16684   0.16104   0.00000  Uiso   1.00
C115   C     0.83317   0.16665   0.07288   0.00000  Uiso   1.00
C116   C     0.83350   0.16666   0.26045   0.00000  Uiso   1.00
C117   C     0.83328   0.16661   0.02178   0.00000  Uiso   1.00
C118   C     0.83338   0.16661   0.31155   0.00000  Uiso   1.00
C119   C     0.68707   0.12669   0.17551   0.00000  Uiso   1.00
C120   C     0.97916   0.20924   0.15915   0.00000  Uiso   1.00
C121   C     0.97960   0.12669   0.15779   0.00000  Uiso   1.00
C122   C     0.68750   0.20925   0.17412   0.00000  Uiso   1.00
C123   C     0.95775   0.16768   0.15566   0.00000  Uiso   1.00
C124   C     0.70891   0.16769   0.17763   0.00000  Uiso   1.00
C125   C     0.85725   0.02426   0.20124   0.00000  Uiso   1.00
C126   C     0.80948   0.30915   0.13208   0.00000  Uiso   1.00
C127   C     0.80942   0.02426   0.13209   0.00000  Uiso   1.00
C128   C     0.85718   0.30915   0.20125   0.00000  Uiso   1.00
N129   N     0.83333   0.28573   0.16667   0.00000  Uiso   1.00
N130   N     0.83333   0.04760   0.16667   0.00000  Uiso   1.00
O131   O     0.77226   0.20487   0.16666   0.00000  Uiso   1.00
O132   O     0.89441   0.12846   0.16667   0.00000  Uiso   1.00
O133   O     0.89441   0.20487   0.16667   0.00000  Uiso   1.00
O134   O     0.77226   0.12846   0.16666   0.00000  Uiso   1.00
O135   O     0.83334   0.20488   0.09511   0.00000  Uiso   1.00
O136   O     0.83333   0.12845   0.23822   0.00000  Uiso   1.00
O137   O     0.83333   0.20488   0.23822   0.00000  Uiso   1.00
O138   O     0.83334   0.12845   0.09511   0.00000  Uiso   1.00
Zn139  Zn    0.83333   0.21771   0.16667   0.00000  Uiso   1.00
Zn140  Zn    0.83333   0.11563   0.16667   0.00000  Uiso   1.00
Br141  Br    0.70862   0.07239   0.20691   0.00000  Uiso   1.00
Br142  Br    0.95481   0.26597   0.13636   0.00000  Uiso   1.00
Br143  Br    0.95805   0.07235   0.12645   0.00000  Uiso   1.00
Br144  Br    0.71183   0.26600   0.19685   0.00000  Uiso   1.00
N145   N     0.87893   0.04917   0.23934   0.00000  Uiso   1.00
H146   H     0.86360   0.05235   0.27236   0.00000  Uiso   1.00
C147   C     0.92391   0.04550   0.24418   0.00000  Uiso   1.00
H148   H     0.93309   0.02897   0.28006   0.00000  Uiso   1.00
H149   H     0.93771   0.07981   0.24411   0.00000  Uiso   1.00
H150   H     0.93693   0.02574   0.21322   0.00000  Uiso   1.00
N151   N     0.78489   0.28424   0.09664   0.00000  Uiso   1.00
H152   H     0.75316   0.28858   0.09866   0.00000  Uiso   1.00
C153   C     0.79957   0.28424   0.04627   0.00000  Uiso   1.00
H154   H     0.79023   0.31554   0.02628   0.00000  Uiso   1.00
H155   H     0.78555   0.25526   0.02552   0.00000  Uiso   1.00
H156   H     0.83407   0.28086   0.04671   0.00000  Uiso   1.00
N157   N     0.78774   0.04917   0.09399   0.00000  Uiso   1.00
H158   H     0.80306   0.05230   0.06096   0.00000  Uiso   1.00
C159   C     0.74276   0.04550   0.08916   0.00000  Uiso   1.00
H160   H     0.73359   0.02887   0.05332   0.00000  Uiso   1.00
H161   H     0.72895   0.07983   0.08911   0.00000  Uiso   1.00
H162   H     0.72973   0.02581   0.12018   0.00000  Uiso   1.00
N163   N     0.88177   0.28423   0.23669   0.00000  Uiso   1.00
H164   H     0.91351   0.28854   0.23467   0.00000  Uiso   1.00
C165   C     0.86709   0.28426   0.28706   0.00000  Uiso   1.00
H166   H     0.87646   0.31556   0.30705   0.00000  Uiso   1.00
H167   H     0.88110   0.25526   0.30781   0.00000  Uiso   1.00
H168   H     0.83259   0.28090   0.28662   0.00000  Uiso   1.00
C169   C     0.08688   0.50018   0.17228   0.00000  Uiso   1.00
C170   C     0.24645   0.50018   0.16104   0.00000  Uiso   1.00
C171   C     0.16650   0.49999   0.07288   0.00000  Uiso   1.00
C172   C     0.16683   0.49999   0.26045   0.00000  Uiso   1.00
C173   C     0.16662   0.49994   0.02178   0.00000  Uiso   1.00
C174   C     0.16672   0.49994   0.31155   0.00000  Uiso   1.00
C175   C     0.02040   0.46003   0.17551   0.00000  Uiso   1.00
C176   C     0.31249   0.54258   0.15915   0.00000  Uiso   1.00
C177   C     0.31294   0.46002   0.15779   0.00000  Uiso   1.00
C178   C     0.02083   0.54258   0.17412   0.00000  Uiso   1.00
C179   C     0.29108   0.50101   0.15566   0.00000  Uiso   1.00
C180   C     0.04225   0.50102   0.17763   0.00000  Uiso   1.00
C181   C     0.19058   0.35759   0.20124   0.00000  Uiso   1.00
C182   C     0.14282   0.64248   0.13208   0.00000  Uiso   1.00
C183   C     0.14275   0.35759   0.13209   0.00000  Uiso   1.00
C184   C     0.19052   0.64248   0.20125   0.00000  Uiso   1.00
N185   N     0.16667   0.61907   0.16667   0.00000  Uiso   1.00
N186   N     0.16667   0.38093   0.16667   0.00000  Uiso   1.00
O187   O     0.10559   0.53821   0.16666   0.00000  Uiso   1.00
O188   O     0.22774   0.46179   0.16667   0.00000  Uiso   1.00
O189   O     0.22774   0.53821   0.16667   0.00000  Uiso   1.00
O190   O     0.10559   0.46179   0.16666   0.00000  Uiso   1.00
O191   O     0.16667   0.53821   0.09511   0.00000  Uiso   1.00
O192   O     0.16666   0.46179   0.23822   0.00000  Uiso   1.00
O193   O     0.16666   0.53821   0.23822   0.00000  Uiso   1.00
O194   O     0.16667   0.46179   0.09511   0.00000  Uiso   1.00
Zn195  Zn    0.16667   0.55104   0.16667   0.00000  Uiso   1.00
Zn196  Zn    0.16667   0.44896   0.16667   0.00000  Uiso   1.00
Br197  Br    0.04195   0.40572   0.20691   0.00000  Uiso   1.00
Br198  Br    0.28814   0.59930   0.13636   0.00000  Uiso   1.00
Br199  Br    0.29138   0.40568   0.12645   0.00000  Uiso   1.00
Br200  Br    0.04516   0.59933   0.19685   0.00000  Uiso   1.00
N201   N     0.21227   0.38251   0.23934   0.00000  Uiso   1.00
H202   H     0.19694   0.38569   0.27236   0.00000  Uiso   1.00
C203   C     0.25724   0.37883   0.24418   0.00000  Uiso   1.00
H204   H     0.26643   0.36230   0.28006   0.00000  Uiso   1.00
H205   H     0.27104   0.41315   0.24411   0.00000  Uiso   1.00
H206   H     0.27026   0.35907   0.21322   0.00000  Uiso   1.00
N207   N     0.11822   0.61757   0.09664   0.00000  Uiso   1.00
H208   H     0.08649   0.62191   0.09866   0.00000  Uiso   1.00
C209   C     0.13290   0.61758   0.04627   0.00000  Uiso   1.00
H210   H     0.12356   0.64887   0.02628   0.00000  Uiso   1.00
H211   H     0.11888   0.58860   0.02552   0.00000  Uiso   1.00
H212   H     0.16740   0.61419   0.04671   0.00000  Uiso   1.00
N213   N     0.12107   0.38251   0.09399   0.00000  Uiso   1.00
H214   H     0.13639   0.38564   0.06096   0.00000  Uiso   1.00
C215   C     0.07609   0.37883   0.08916   0.00000  Uiso   1.00
H216   H     0.06692   0.36220   0.05332   0.00000  Uiso   1.00
H217   H     0.06228   0.41316   0.08911   0.00000  Uiso   1.00
H218   H     0.06307   0.35915   0.12018   0.00000  Uiso   1.00
N219   N     0.21510   0.61757   0.23669   0.00000  Uiso   1.00
H220   H     0.24684   0.62188   0.23467   0.00000  Uiso   1.00
C221   C     0.20043   0.61759   0.28706   0.00000  Uiso   1.00
H222   H     0.20979   0.64889   0.30705   0.00000  Uiso   1.00
H223   H     0.21443   0.58859   0.30781   0.00000  Uiso   1.00
H224   H     0.16592   0.61423   0.28662   0.00000  Uiso   1.00
C225   C     0.42021   0.50018   0.17228   0.00000  Uiso   1.00
C226   C     0.57979   0.50018   0.16104   0.00000  Uiso   1.00
C227   C     0.49984   0.49999   0.07288   0.00000  Uiso   1.00
C228   C     0.50016   0.49999   0.26045   0.00000  Uiso   1.00
C229   C     0.49995   0.49994   0.02178   0.00000  Uiso   1.00
C230   C     0.50005   0.49994   0.31155   0.00000  Uiso   1.00
C231   C     0.35373   0.46003   0.17551   0.00000  Uiso   1.00
C232   C     0.64582   0.54258   0.15915   0.00000  Uiso   1.00
C233   C     0.64627   0.46002   0.15779   0.00000  Uiso   1.00
C234   C     0.35416   0.54258   0.17412   0.00000  Uiso   1.00
C235   C     0.62441   0.50101   0.15566   0.00000  Uiso   1.00
C236   C     0.37558   0.50102   0.17763   0.00000  Uiso   1.00
C237   C     0.52392   0.35759   0.20124   0.00000  Uiso   1.00
C238   C     0.47615   0.64248   0.13208   0.00000  Uiso   1.00
C239   C     0.47608   0.35759   0.13209   0.00000  Uiso   1.00
C240   C     0.52385   0.64248   0.20125   0.00000  Uiso   1.00
N241   N     0.50000   0.61907   0.16667   0.00000  Uiso   1.00
N242   N     0.50000   0.38093   0.16667   0.00000  Uiso   1.00
O243   O     0.43892   0.53821   0.16666   0.00000  Uiso   1.00
O244   O     0.56108   0.46179   0.16667   0.00000  Uiso   1.00
O245   O     0.56108   0.53821   0.16667   0.00000  Uiso   1.00
O246   O     0.43892   0.46179   0.16666   0.00000  Uiso   1.00
O247   O     0.50000   0.53821   0.09511   0.00000  Uiso   1.00
O248   O     0.50000   0.46179   0.23822   0.00000  Uiso   1.00
O249   O     0.50000   0.53821   0.23822   0.00000  Uiso   1.00
O250   O     0.50000   0.46179   0.09511   0.00000  Uiso   1.00
Zn251  Zn    0.50000   0.55104   0.16667   0.00000  Uiso   1.00
Zn252  Zn    0.50000   0.44896   0.16667   0.00000  Uiso   1.00
Br253  Br    0.37529   0.40572   0.20691   0.00000  Uiso   1.00
Br254  Br    0.62148   0.59930   0.13636   0.00000  Uiso   1.00
Br255  Br    0.62471   0.40568   0.12645   0.00000  Uiso   1.00
Br256  Br    0.37850   0.59933   0.19685   0.00000  Uiso   1.00
N257   N     0.54560   0.38251   0.23934   0.00000  Uiso   1.00
H258   H     0.53027   0.38569   0.27236   0.00000  Uiso   1.00
C259   C     0.59058   0.37883   0.24418   0.00000  Uiso   1.00
H260   H     0.59976   0.36230   0.28006   0.00000  Uiso   1.00
H261   H     0.60438   0.41315   0.24411   0.00000  Uiso   1.00
H262   H     0.60359   0.35907   0.21322   0.00000  Uiso   1.00
N263   N     0.45156   0.61757   0.09664   0.00000  Uiso   1.00
H264   H     0.41982   0.62191   0.09866   0.00000  Uiso   1.00
C265   C     0.46624   0.61758   0.04627   0.00000  Uiso   1.00
H266   H     0.45690   0.64887   0.02628   0.00000  Uiso   1.00
H267   H     0.45221   0.58860   0.02552   0.00000  Uiso   1.00
H268   H     0.50073   0.61419   0.04671   0.00000  Uiso   1.00
N269   N     0.45440   0.38251   0.09399   0.00000  Uiso   1.00
H270   H     0.46972   0.38564   0.06096   0.00000  Uiso   1.00
C271   C     0.40942   0.37883   0.08916   0.00000  Uiso   1.00
H272   H     0.40025   0.36220   0.05332   0.00000  Uiso   1.00
H273   H     0.39561   0.41316   0.08911   0.00000  Uiso   1.00
H274   H     0.39640   0.35915   0.12018   0.00000  Uiso   1.00
N275   N     0.54844   0.61757   0.23669   0.00000  Uiso   1.00
H276   H     0.58017   0.62188   0.23467   0.00000  Uiso   1.00
C277   C     0.53376   0.61759   0.28706   0.00000  Uiso   1.00
H278   H     0.54313   0.64889   0.30705   0.00000  Uiso   1.00
H279   H     0.54777   0.58859   0.30781   0.00000  Uiso   1.00
H280   H     0.49926   0.61423   0.28662   0.00000  Uiso   1.00
C281   C     0.75354   0.50018   0.17228   0.00000  Uiso   1.00
C282   C     0.91312   0.50018   0.16104   0.00000  Uiso   1.00
C283   C     0.83317   0.49999   0.07288   0.00000  Uiso   1.00
C284   C     0.83350   0.49999   0.26045   0.00000  Uiso   1.00
C285   C     0.83328   0.49994   0.02178   0.00000  Uiso   1.00
C286   C     0.83338   0.49994   0.31155   0.00000  Uiso   1.00
C287   C     0.68707   0.46003   0.17551   0.00000  Uiso   1.00
C288   C     0.97916   0.54258   0.15915   0.00000  Uiso   1.00
C289   C     0.97960   0.46002   0.15779   0.00000  Uiso   1.00
C290   C     0.68750   0.54258   0.17412   0.00000  Uiso   1.00
C291   C     0.95775   0.50101   0.15566   0.00000  Uiso   1.00
C292   C     0.70891   0.50102   0.17763   0.00000  Uiso   1.00
C293   C     0.85725   0.35759   0.20124   0.00000  Uiso   1.00
C294   C     0.80948   0.64248   0.13208   0.00000  Uiso   1.00
C295   C     0.80942   0.35759   0.13209   0.00000  Uiso   1.00
C296   C     0.85718   0.64248   0.20125   0.00000  Uiso   1.00
N297   N     0.83333   0.61907   0.16667   0.00000  Uiso   1.00
N298   N     0.83333   0.38093   0.16667   0.00000  Uiso   1.00
O299   O     0.77226   0.53821   0.16666   0.00000  Uiso   1.00
O300   O     0.89441   0.46179   0.16667   0.00000  Uiso   1.00
O301   O     0.89441   0.53821   0.16667   0.00000  Uiso   1.00
O302   O     0.77226   0.46179   0.16666   0.00000  Uiso   1.00
O303   O     0.83334   0.53821   0.09511   0.00000  Uiso   1.00
O304   O     0.83333   0.46179   0.23822   0.00000  Uiso   1.00
O305   O     0.83333   0.53821   0.23822   0.00000  Uiso   1.00
O306   O     0.83334   0.46179   0.09511   0.00000  Uiso   1.00
Zn307  Zn    0.83333   0.55104   0.16667   0.00000  Uiso   1.00
Zn308  Zn    0.83333   0.44896   0.16667   0.00000  Uiso   1.00
Br309  Br    0.70862   0.40572   0.20691   0.00000  Uiso   1.00
Br310  Br    0.95481   0.59930   0.13636   0.00000  Uiso   1.00
Br311  Br    0.95805   0.40568   0.12645   0.00000  Uiso   1.00
Br312  Br    0.71183   0.59933   0.19685   0.00000  Uiso   1.00
N313   N     0.87893   0.38251   0.23934   0.00000  Uiso   1.00
H314   H     0.86360   0.38569   0.27236   0.00000  Uiso   1.00
C315   C     0.92391   0.37883   0.24418   0.00000  Uiso   1.00
H316   H     0.93309   0.36230   0.28006   0.00000  Uiso   1.00
H317   H     0.93771   0.41315   0.24411   0.00000  Uiso   1.00
H318   H     0.93693   0.35907   0.21322   0.00000  Uiso   1.00
N319   N     0.78489   0.61757   0.09664   0.00000  Uiso   1.00
H320   H     0.75316   0.62191   0.09866   0.00000  Uiso   1.00
C321   C     0.79957   0.61758   0.04627   0.00000  Uiso   1.00
H322   H     0.79023   0.64887   0.02628   0.00000  Uiso   1.00
H323   H     0.78555   0.58860   0.02552   0.00000  Uiso   1.00
H324   H     0.83407   0.61419   0.04671   0.00000  Uiso   1.00
N325   N     0.78774   0.38251   0.09399   0.00000  Uiso   1.00
H326   H     0.80306   0.38564   0.06096   0.00000  Uiso   1.00
C327   C     0.74276   0.37883   0.08916   0.00000  Uiso   1.00
H328   H     0.73359   0.36220   0.05332   0.00000  Uiso   1.00
H329   H     0.72895   0.41316   0.08911   0.00000  Uiso   1.00
H330   H     0.72973   0.35915   0.12018   0.00000  Uiso   1.00
N331   N     0.88177   0.61757   0.23669   0.00000  Uiso   1.00
H332   H     0.91351   0.62188   0.23467   0.00000  Uiso   1.00
C333   C     0.86709   0.61759   0.28706   0.00000  Uiso   1.00
H334   H     0.87646   0.64889   0.30705   0.00000  Uiso   1.00
H335   H     0.88110   0.58859   0.30781   0.00000  Uiso   1.00
H336   H     0.83259   0.61423   0.28662   0.00000  Uiso   1.00
C337   C     0.08688   0.83351   0.17228   0.00000  Uiso   1.00
C338   C     0.24645   0.83351   0.16104   0.00000  Uiso   1.00
C339   C     0.16650   0.83332   0.07288   0.00000  Uiso   1.00
C340   C     0.16683   0.83332   0.26045   0.00000  Uiso   1.00
C341   C     0.16662   0.83327   0.02178   0.00000  Uiso   1.00
C342   C     0.16672   0.83328   0.31155   0.00000  Uiso   1.00
C343   C     0.02040   0.79336   0.17551   0.00000  Uiso   1.00
C344   C     0.31249   0.87591   0.15915   0.00000  Uiso   1.00
C345   C     0.31294   0.79335   0.15779   0.00000  Uiso   1.00
C346   C     0.02083   0.87592   0.17412   0.00000  Uiso   1.00
C347   C     0.29108   0.83434   0.15566   0.00000  Uiso   1.00
C348   C     0.04225   0.83435   0.17763   0.00000  Uiso   1.00
C349   C     0.19058   0.69093   0.20124   0.00000  Uiso   1.00
C350   C     0.14282   0.97582   0.13208   0.00000  Uiso   1.00
C351   C     0.14275   0.69093   0.13209   0.00000  Uiso   1.00
C352   C     0.19052   0.97581   0.20125   0.00000  Uiso   1.00
N353   N     0.16667   0.95240   0.16667   0.00000  Uiso   1.00
N354   N     0.16667   0.71427   0.16667   0.00000  Uiso   1.00
O355   O     0.10559   0.87154   0.16666   0.00000  Uiso   1.00
O356   O     0.22774   0.79513   0.16667   0.00000  Uiso   1.00
O357   O     0.22774   0.87154   0.16667   0.00000  Uiso   1.00
O358   O     0.10559   0.79513   0.16666   0.00000  Uiso   1.00
O359   O     0.16667   0.87155   0.09511   0.00000  Uiso   1.00
O360   O     0.16666   0.79512   0.23822   0.00000  Uiso   1.00
O361   O     0.16666   0.87155   0.23822   0.00000  Uiso   1.00
O362   O     0.16667   0.79512   0.09511   0.00000  Uiso   1.00
Zn363  Zn    0.16667   0.88437   0.16667   0.00000  Uiso   1.00
Zn364  Zn    0.16667   0.78229   0.16667   0.00000  Uiso   1.00
Br365  Br    0.04195   0.73905   0.20691   0.00000  Uiso   1.00
Br366  Br    0.28814   0.93263   0.13636   0.00000  Uiso   1.00
Br367  Br    0.29138   0.73901   0.12645   0.00000  Uiso   1.00
Br368  Br    0.04516   0.93266   0.19685   0.00000  Uiso   1.00
N369   N     0.21227   0.71584   0.23934   0.00000  Uiso   1.00
H370   H     0.19694   0.71902   0.27236   0.00000  Uiso   1.00
C371   C     0.25724   0.71216   0.24418   0.00000  Uiso   1.00
H372   H     0.26643   0.69564   0.28006   0.00000  Uiso   1.00
H373   H     0.27104   0.74648   0.24411   0.00000  Uiso   1.00
H374   H     0.27026   0.69240   0.21322   0.00000  Uiso   1.00
N375   N     0.11822   0.95090   0.09664   0.00000  Uiso   1.00
H376   H     0.08649   0.95524   0.09866   0.00000  Uiso   1.00
C377   C     0.13290   0.95091   0.04627   0.00000  Uiso   1.00
H378   H     0.12356   0.98221   0.02628   0.00000  Uiso   1.00
H379   H     0.11888   0.92193   0.02552   0.00000  Uiso   1.00
H380   H     0.16740   0.94753   0.04671   0.00000  Uiso   1.00
N381   N     0.12107   0.71584   0.09399   0.00000  Uiso   1.00
H382   H     0.13639   0.71897   0.06096   0.00000  Uiso   1.00
C383   C     0.07609   0.71216   0.08916   0.00000  Uiso   1.00
H384   H     0.06692   0.69553   0.05332   0.00000  Uiso   1.00
H385   H     0.06228   0.74649   0.08911   0.00000  Uiso   1.00
H386   H     0.06307   0.69248   0.12018   0.00000  Uiso   1.00
N387   N     0.21510   0.95090   0.23669   0.00000  Uiso   1.00
H388   H     0.24684   0.95521   0.23467   0.00000  Uiso   1.00
C389   C     0.20043   0.95093   0.28706   0.00000  Uiso   1.00
H390   H     0.20979   0.98222   0.30705   0.00000  Uiso   1.00
H391   H     0.21443   0.92193   0.30781   0.00000  Uiso   1.00
H392   H     0.16592   0.94757   0.28662   0.00000  Uiso   1.00
C393   C     0.42021   0.83351   0.17228   0.00000  Uiso   1.00
C394   C     0.57979   0.83351   0.16104   0.00000  Uiso   1.00
C395   C     0.49984   0.83332   0.07288   0.00000  Uiso   1.00
C396   C     0.50016   0.83332   0.26045   0.00000  Uiso   1.00
C397   C     0.49995   0.83327   0.02178   0.00000  Uiso   1.00
C398   C     0.50005   0.83328   0.31155   0.00000  Uiso   1.00
C399   C     0.35373   0.79336   0.17551   0.00000  Uiso   1.00
C400   C     0.64582   0.87591   0.15915   0.00000  Uiso   1.00
C401   C     0.64627   0.79335   0.15779   0.00000  Uiso   1.00
C402   C     0.35416   0.87592   0.17412   0.00000  Uiso   1.00
C403   C     0.62441   0.83434   0.15566   0.00000  Uiso   1.00
C404   C     0.37558   0.83435   0.17763   0.00000  Uiso   1.00
C405   C     0.52392   0.69093   0.20124   0.00000  Uiso   1.00
C406   C     0.47615   0.97582   0.13208   0.00000  Uiso   1.00
C407   C     0.47608   0.69093   0.13209   0.00000  Uiso   1.00
C408   C     0.52385   0.97581   0.20125   0.00000  Uiso   1.00
N409   N     0.50000   0.95240   0.16667   0.00000  Uiso   1.00
N410   N     0.50000   0.71427   0.16667   0.00000  Uiso   1.00
O411   O     0.43892   0.87154   0.16666   0.00000  Uiso   1.00
O412   O     0.56108   0.79513   0.16667   0.00000  Uiso   1.00
O413   O     0.56108   0.87154   0.16667   0.00000  Uiso   1.00
O414   O     0.43892   0.79513   0.16666   0.00000  Uiso   1.00
O415   O     0.50000   0.87155   0.09511   0.00000  Uiso   1.00
O416   O     0.50000   0.79512   0.23822   0.00000  Uiso   1.00
O417   O     0.50000   0.87155   0.23822   0.00000  Uiso   1.00
O418   O     0.50000   0.79512   0.09511   0.00000  Uiso   1.00
Zn419  Zn    0.50000   0.88437   0.16667   0.00000  Uiso   1.00
Zn420  Zn    0.50000   0.78229   0.16667   0.00000  Uiso   1.00
Br421  Br    0.37529   0.73905   0.20691   0.00000  Uiso   1.00
Br422  Br    0.62148   0.93263   0.13636   0.00000  Uiso   1.00
Br423  Br    0.62471   0.73901   0.12645   0.00000  Uiso   1.00
Br424  Br    0.37850   0.93266   0.19685   0.00000  Uiso   1.00
N425   N     0.54560   0.71584   0.23934   0.00000  Uiso   1.00
H426   H     0.53027   0.71902   0.27236   0.00000  Uiso   1.00
C427   C     0.59058   0.71216   0.24418   0.00000  Uiso   1.00
H428   H     0.59976   0.69564   0.28006   0.00000  Uiso   1.00
H429   H     0.60438   0.74648   0.24411   0.00000  Uiso   1.00
H430   H     0.60359   0.69240   0.21322   0.00000  Uiso   1.00
N431   N     0.45156   0.95090   0.09664   0.00000  Uiso   1.00
H432   H     0.41982   0.95524   0.09866   0.00000  Uiso   1.00
C433   C     0.46624   0.95091   0.04627   0.00000  Uiso   1.00
H434   H     0.45690   0.98221   0.02628   0.00000  Uiso   1.00
H435   H     0.45221   0.92193   0.02552   0.00000  Uiso   1.00
H436   H     0.50073   0.94753   0.04671   0.00000  Uiso   1.00
N437   N     0.45440   0.71584   0.09399   0.00000  Uiso   1.00
H438   H     0.46972   0.71897   0.06096   0.00000  Uiso   1.00
C439   C     0.40942   0.71216   0.08916   0.00000  Uiso   1.00
H440   H     0.40025   0.69553   0.05332   0.00000  Uiso   1.00
H441   H     0.39561   0.74649   0.08911   0.00000  Uiso   1.00
H442   H     0.39640   0.69248   0.12018   0.00000  Uiso   1.00
N443   N     0.54844   0.95090   0.23669   0.00000  Uiso   1.00
H444   H     0.58017   0.95521   0.23467   0.00000  Uiso   1.00
C445   C     0.53376   0.95093   0.28706   0.00000  Uiso   1.00
H446   H     0.54313   0.98222   0.30705   0.00000  Uiso   1.00
H447   H     0.54777   0.92193   0.30781   0.00000  Uiso   1.00
H448   H     0.49926   0.94757   0.28662   0.00000  Uiso   1.00
C449   C     0.75354   0.83351   0.17228   0.00000  Uiso   1.00
C450   C     0.91312   0.83351   0.16104   0.00000  Uiso   1.00
C451   C     0.83317   0.83332   0.07288   0.00000  Uiso   1.00
C452   C     0.83350   0.83332   0.26045   0.00000  Uiso   1.00
C453   C     0.83328   0.83327   0.02178   0.00000  Uiso   1.00
C454   C     0.83338   0.83328   0.31155   0.00000  Uiso   1.00
C455   C     0.68707   0.79336   0.17551   0.00000  Uiso   1.00
C456   C     0.97916   0.87591   0.15915   0.00000  Uiso   1.00
C457   C     0.97960   0.79335   0.15779   0.00000  Uiso   1.00
C458   C     0.68750   0.87592   0.17412   0.00000  Uiso   1.00
C459   C     0.95775   0.83434   0.15566   0.00000  Uiso   1.00
C460   C     0.70891   0.83435   0.17763   0.00000  Uiso   1.00
C461   C     0.85725   0.69093   0.20124   0.00000  Uiso   1.00
C462   C     0.80948   0.97582   0.13208   0.00000  Uiso   1.00
C463   C     0.80942   0.69093   0.13209   0.00000  Uiso   1.00
C464   C     0.85718   0.97581   0.20125   0.00000  Uiso   1.00
N465   N     0.83333   0.95240   0.16667   0.00000  Uiso   1.00
N466   N     0.83333   0.71427   0.16667   0.00000  Uiso   1.00
O467   O     0.77226   0.87154   0.16666   0.00000  Uiso   1.00
O468   O     0.89441   0.79513   0.16667   0.00000  Uiso   1.00
O469   O     0.89441   0.87154   0.16667   0.00000  Uiso   1.00
O470   O     0.77226   0.79513   0.16666   0.00000  Uiso   1.00
O471   O     0.83334   0.87155   0.09511   0.00000  Uiso   1.00
O472   O     0.83333   0.79512   0.23822   0.00000  Uiso   1.00
O473   O     0.83333   0.87155   0.23822   0.00000  Uiso   1.00
O474   O     0.83334   0.79512   0.09511   0.00000  Uiso   1.00
Zn475  Zn    0.83333   0.88437   0.16667   0.00000  Uiso   1.00
Zn476  Zn    0.83333   0.78229   0.16667   0.00000  Uiso   1.00
Br477  Br    0.70862   0.73905   0.20691   0.00000  Uiso   1.00
Br478  Br    0.95481   0.93263   0.13636   0.00000  Uiso   1.00
Br479  Br    0.95805   0.73901   0.12645   0.00000  Uiso   1.00
Br480  Br    0.71183   0.93266   0.19685   0.00000  Uiso   1.00
N481   N     0.87893   0.71584   0.23934   0.00000  Uiso   1.00
H482   H     0.86360   0.71902   0.27236   0.00000  Uiso   1.00
C483   C     0.92391   0.71216   0.24418   0.00000  Uiso   1.00
H484   H     0.93309   0.69564   0.28006   0.00000  Uiso   1.00
H485   H     0.93771   0.74648   0.24411   0.00000  Uiso   1.00
H486   H     0.93693   0.69240   0.21322   0.00000  Uiso   1.00
N487   N     0.78489   0.95090   0.09664   0.00000  Uiso   1.00
H488   H     0.75316   0.95524   0.09866   0.00000  Uiso   1.00
C489   C     0.79957   0.95091   0.04627   0.00000  Uiso   1.00
H490   H     0.79023   0.98221   0.02628   0.00000  Uiso   1.00
H491   H     0.78555   0.92193   0.02552   0.00000  Uiso   1.00
H492   H     0.83407   0.94753   0.04671   0.00000  Uiso   1.00
N493   N     0.78774   0.71584   0.09399   0.00000  Uiso   1.00
H494   H     0.80306   0.71897   0.06096   0.00000  Uiso   1.00
C495   C     0.74276   0.71216   0.08916   0.00000  Uiso   1.00
H496   H     0.73359   0.69553   0.05332   0.00000  Uiso   1.00
H497   H     0.72895   0.74649   0.08911   0.00000  Uiso   1.00
H498   H     0.72973   0.69248   0.12018   0.00000  Uiso   1.00
N499   N     0.88177   0.95090   0.23669   0.00000  Uiso   1.00
H500   H     0.91351   0.95521   0.23467   0.00000  Uiso   1.00
C501   C     0.86709   0.95093   0.28706   0.00000  Uiso   1.00
H502   H     0.87646   0.98222   0.30705   0.00000  Uiso   1.00
H503   H     0.88110   0.92193   0.30781   0.00000  Uiso   1.00
H504   H     0.83259   0.94757   0.28662   0.00000  Uiso   1.00
C505   C     0.08688   0.16685   0.50561   0.00000  Uiso   1.00
C506   C     0.24645   0.16684   0.49437   0.00000  Uiso   1.00
C507   C     0.16650   0.16665   0.40621   0.00000  Uiso   1.00
C508   C     0.16683   0.16666   0.59379   0.00000  Uiso   1.00
C509   C     0.16662   0.16661   0.35511   0.00000  Uiso   1.00
C510   C     0.16672   0.16661   0.64489   0.00000  Uiso   1.00
C511   C     0.02040   0.12669   0.50885   0.00000  Uiso   1.00
C512   C     0.31249   0.20924   0.49248   0.00000  Uiso   1.00
C513   C     0.31294   0.12669   0.49112   0.00000  Uiso   1.00
C514   C     0.02083   0.20925   0.50745   0.00000  Uiso   1.00
C515   C     0.29108   0.16768   0.48899   0.00000  Uiso   1.00
C516   C     0.04225   0.16769   0.51096   0.00000  Uiso   1.00
C517   C     0.19058   0.02426   0.53458   0.00000  Uiso   1.00
C518   C     0.14282   0.30915   0.46541   0.00000  Uiso   1.00
C519   C     0.14275   0.02426   0.46542   0.00000  Uiso   1.00
C520   C     0.19052   0.30915   0.53459   0.00000  Uiso   1.00
N521   N     0.16667   0.28573   0.50000   0.00000  Uiso   1.00
N522   N     0.16667   0.04760   0.50000   0.00000  Uiso   1.00
O523   O     0.10559   0.20487   0.50000   0.00000  Uiso   1.00
O524   O     0.22774   0.12846   0.50000   0.00000  Uiso   1.00
O525   O     0.22774   0.20487   0.50000   0.00000  Uiso   1.00
O526   O     0.10559   0.12846   0.50000   0.00000  Uiso   1.00
O527   O     0.16667   0.20488   0.42845   0.00000  Uiso   1.00
O528   O     0.16666   0.12845   0.57155   0.00000  Uiso   1.00
O529   O     0.16666   0.20488   0.57155   0.00000  Uiso   1.00
O530   O     0.16667   0.12845   0.42845   0.00000  Uiso   1.00
Zn531  Zn    0.16667   0.21771   0.50000   0.00000  Uiso   1.00
Zn532  Zn    0.16667   0.11563   0.50000   0.00000  Uiso   1.00
Br533  Br    0.04195   0.07239   0.54024   0.00000  Uiso   1.00
Br534  Br    0.28814   0.26597   0.46969   0.00000  Uiso   1.00
Br535  Br    0.29138   0.07235   0.45979   0.00000  Uiso   1.00
Br536  Br    0.04516   0.26600   0.53018   0.00000  Uiso   1.00
N537   N     0.21227   0.04917   0.57268   0.00000  Uiso   1.00
H538   H     0.19694   0.05235   0.60569   0.00000  Uiso   1.00
C539   C     0.25724   0.04550   0.57751   0.00000  Uiso   1.00
H540   H     0.26643   0.02897   0.61339   0.00000  Uiso   1.00
H541   H     0.27104   0.07981   0.57745   0.00000  Uiso   1.00
H542   H     0.27026   0.02574   0.54656   0.00000  Uiso   1.00
N543   N     0.11822   0.28424   0.42997   0.00000  Uiso   1.00
H544   H     0.08649   0.28858   0.43200   0.00000  Uiso   1.00
C545   C     0.13290   0.28424   0.37961   0.00000  Uiso   1.00
H546   H     0.12356   0.31554   0.35962   0.00000  Uiso   1.00
H547   H     0.11888   0.25526   0.35886   0.00000  Uiso   1.00
H548   H     0.16740   0.28086   0.38004   0.00000  Uiso   1.00
N549   N     0.12107   0.04917   0.42732   0.00000  Uiso   1.00
H550   H     0.13639   0.05230   0.39430   0.00000  Uiso   1.00
C551   C     0.07609   0.04550   0.42249   0.00000  Uiso   1.00
H552   H     0.06692   0.02887   0.38666   0.00000  Uiso   1.00
H553   H     0.06228   0.07983   0.42245   0.00000  Uiso   1.00
H554   H     0.06307   0.02581   0.45351   0.00000  Uiso   1.00
N555   N     0.21510   0.28423   0.57003   0.00000  Uiso   1.00
H556   H     0.24684   0.28854   0.56800   0.00000  Uiso   1.00
C557   C     0.20043   0.28426   0.62039   0.00000  Uiso   1.00
H558   H     0.20979   0.31556   0.64038   0.00000  Uiso   1.00
H559   H     0.21443   0.25526   0.64115   0.00000  Uiso   1.00
H560   H     0.16592   0.28090   0.61995   0.00000  Uiso   1.00
C561   C     0.42021   0.16685   0.50561   0.00000  Uiso   1.00
C562   C     0.57979   0.16684   0.49437   0.00000  Uiso   1.00
C563   C     0.49984   0.16665   0.40621   0.00000  Uiso   1.00
C564   C     0.50016   0.16666   0.59379   0.00000  Uiso   1.00
C565   C     0.49995   0.16661   0.35511   0.00000  Uiso   1.00
C566   C     0.50005   0.16661   0.64489   0.00000  Uiso   1.00
C567   C     0.35373   0.12669   0.50885   0.00000  Uiso   1.00
C568   C     0.64582   0.20924   0.49248   0.00000  Uiso   1.00
C569   C     0.64627   0.12669   0.49112   0.00000  Uiso   1.00
C570   C     0.35416   0.20925   0.50745   0.00000  Uiso   1.00
C571   C     0.62441   0.16768   0.48899   0.00000  Uiso   1.00
C572   C     0.37558   0.16769   0.51096   0.00000  Uiso   1.00
C573   C     0.52392   0.02426   0.53458   0.00000  Uiso   1.00
C574   C     0.47615   0.30915   0.46541   0.00000  Uiso   1.00
C575   C     0.47608   0.02426   0.46542   0.00000  Uiso   1.00
C576   C     0.52385   0.30915   0.53459   0.00000  Uiso   1.00
N577   N     0.50000   0.28573   0.50000   0.00000  Uiso   1.00
N578   N     0.50000   0.04760   0.50000   0.00000  Uiso   1.00
O579   O     0.43892   0.20487   0.50000   0.00000  Uiso   1.00
O580   O     0.56108   0.12846   0.50000   0.00000  Uiso   1.00
O581   O     0.56108   0.20487   0.50000   0.00000  Uiso   1.00
O582   O     0.43892   0.12846   0.50000   0.00000  Uiso   1.00
O583   O     0.50000   0.20488   0.42845   0.00000  Uiso   1.00
O584   O     0.50000   0.12845   0.57155   0.00000  Uiso   1.00
O585   O     0.50000   0.20488   0.57155   0.00000  Uiso   1.00
O586   O     0.50000   0.12845   0.42845   0.00000  Uiso   1.00
Zn587  Zn    0.50000   0.21771   0.50000   0.00000  Uiso   1.00
Zn588  Zn    0.50000   0.11563   0.50000   0.00000  Uiso   1.00
Br589  Br    0.37529   0.07239   0.54024   0.00000  Uiso   1.00
Br590  Br    0.62148   0.26597   0.46969   0.00000  Uiso   1.00
Br591  Br    0.62471   0.07235   0.45979   0.00000  Uiso   1.00
Br592  Br    0.37850   0.26600   0.53018   0.00000  Uiso   1.00
N593   N     0.54560   0.04917   0.57268   0.00000  Uiso   1.00
H594   H     0.53027   0.05235   0.60569   0.00000  Uiso   1.00
C595   C     0.59058   0.04550   0.57751   0.00000  Uiso   1.00
H596   H     0.59976   0.02897   0.61339   0.00000  Uiso   1.00
H597   H     0.60438   0.07981   0.57745   0.00000  Uiso   1.00
H598   H     0.60359   0.02574   0.54656   0.00000  Uiso   1.00
N599   N     0.45156   0.28424   0.42997   0.00000  Uiso   1.00
H600   H     0.41982   0.28858   0.43200   0.00000  Uiso   1.00
C601   C     0.46624   0.28424   0.37961   0.00000  Uiso   1.00
H602   H     0.45690   0.31554   0.35962   0.00000  Uiso   1.00
H603   H     0.45221   0.25526   0.35886   0.00000  Uiso   1.00
H604   H     0.50073   0.28086   0.38004   0.00000  Uiso   1.00
N605   N     0.45440   0.04917   0.42732   0.00000  Uiso   1.00
H606   H     0.46972   0.05230   0.39430   0.00000  Uiso   1.00
C607   C     0.40942   0.04550   0.42249   0.00000  Uiso   1.00
H608   H     0.40025   0.02887   0.38666   0.00000  Uiso   1.00
H609   H     0.39561   0.07983   0.42245   0.00000  Uiso   1.00
H610   H     0.39640   0.02581   0.45351   0.00000  Uiso   1.00
N611   N     0.54844   0.28423   0.57003   0.00000  Uiso   1.00
H612   H     0.58017   0.28854   0.56800   0.00000  Uiso   1.00
C613   C     0.53376   0.28426   0.62039   0.00000  Uiso   1.00
H614   H     0.54313   0.31556   0.64038   0.00000  Uiso   1.00
H615   H     0.54777   0.25526   0.64115   0.00000  Uiso   1.00
H616   H     0.49926   0.28090   0.61995   0.00000  Uiso   1.00
C617   C     0.75354   0.16685   0.50561   0.00000  Uiso   1.00
C618   C     0.91312   0.16684   0.49437   0.00000  Uiso   1.00
C619   C     0.83317   0.16665   0.40621   0.00000  Uiso   1.00
C620   C     0.83350   0.16666   0.59379   0.00000  Uiso   1.00
C621   C     0.83328   0.16661   0.35511   0.00000  Uiso   1.00
C622   C     0.83338   0.16661   0.64489   0.00000  Uiso   1.00
C623   C     0.68707   0.12669   0.50885   0.00000  Uiso   1.00
C624   C     0.97916   0.20924   0.49248   0.00000  Uiso   1.00
C625   C     0.97960   0.12669   0.49112   0.00000  Uiso   1.00
C626   C     0.68750   0.20925   0.50745   0.00000  Uiso   1.00
C627   C     0.95775   0.16768   0.48899   0.00000  Uiso   1.00
C628   C     0.70891   0.16769   0.51096   0.00000  Uiso   1.00
C629   C     0.85725   0.02426   0.53458   0.00000  Uiso   1.00
C630   C     0.80948   0.30915   0.46541   0.00000  Uiso   1.00
C631   C     0.80942   0.02426   0.46542   0.00000  Uiso   1.00
C632   C     0.85718   0.30915   0.53459   0.00000  Uiso   1.00
N633   N     0.83333   0.28573   0.50000   0.00000  Uiso   1.00
N634   N     0.83333   0.04760   0.50000   0.00000  Uiso   1.00
O635   O     0.77226   0.20487   0.50000   0.00000  Uiso   1.00
O636   O     0.89441   0.12846   0.50000   0.00000  Uiso   1.00
O637   O     0.89441   0.20487   0.50000   0.00000  Uiso   1.00
O638   O     0.77226   0.12846   0.50000   0.00000  Uiso   1.00
O639   O     0.83334   0.20488   0.42845   0.00000  Uiso   1.00
O640   O     0.83333   0.12845   0.57155   0.00000  Uiso   1.00
O641   O     0.83333   0.20488   0.57155   0.00000  Uiso   1.00
O642   O     0.83334   0.12845   0.42845   0.00000  Uiso   1.00
Zn643  Zn    0.83333   0.21771   0.50000   0.00000  Uiso   1.00
Zn644  Zn    0.83333   0.11563   0.50000   0.00000  Uiso   1.00
Br645  Br    0.70862   0.07239   0.54024   0.00000  Uiso   1.00
Br646  Br    0.95481   0.26597   0.46969   0.00000  Uiso   1.00
Br647  Br    0.95805   0.07235   0.45979   0.00000  Uiso   1.00
Br648  Br    0.71183   0.26600   0.53018   0.00000  Uiso   1.00
N649   N     0.87893   0.04917   0.57268   0.00000  Uiso   1.00
H650   H     0.86360   0.05235   0.60569   0.00000  Uiso   1.00
C651   C     0.92391   0.04550   0.57751   0.00000  Uiso   1.00
H652   H     0.93309   0.02897   0.61339   0.00000  Uiso   1.00
H653   H     0.93771   0.07981   0.57745   0.00000  Uiso   1.00
H654   H     0.93693   0.02574   0.54656   0.00000  Uiso   1.00
N655   N     0.78489   0.28424   0.42997   0.00000  Uiso   1.00
H656   H     0.75316   0.28858   0.43200   0.00000  Uiso   1.00
C657   C     0.79957   0.28424   0.37961   0.00000  Uiso   1.00
H658   H     0.79023   0.31554   0.35962   0.00000  Uiso   1.00
H659   H     0.78555   0.25526   0.35886   0.00000  Uiso   1.00
H660   H     0.83407   0.28086   0.38004   0.00000  Uiso   1.00
N661   N     0.78774   0.04917   0.42732   0.00000  Uiso   1.00
H662   H     0.80306   0.05230   0.39430   0.00000  Uiso   1.00
C663   C     0.74276   0.04550   0.42249   0.00000  Uiso   1.00
H664   H     0.73359   0.02887   0.38666   0.00000  Uiso   1.00
H665   H     0.72895   0.07983   0.42245   0.00000  Uiso   1.00
H666   H     0.72973   0.02581   0.45351   0.00000  Uiso   1.00
N667   N     0.88177   0.28423   0.57003   0.00000  Uiso   1.00
H668   H     0.91351   0.28854   0.56800   0.00000  Uiso   1.00
C669   C     0.86709   0.28426   0.62039   0.00000  Uiso   1.00
H670   H     0.87646   0.31556   0.64038   0.00000  Uiso   1.00
H671   H     0.88110   0.25526   0.64115   0.00000  Uiso   1.00
H672   H     0.83259   0.28090   0.61995   0.00000  Uiso   1.00
C673   C     0.08688   0.50018   0.50561   0.00000  Uiso   1.00
C674   C     0.24645   0.50018   0.49437   0.00000  Uiso   1.00
C675   C     0.16650   0.49999   0.40621   0.00000  Uiso   1.00
C676   C     0.16683   0.49999   0.59379   0.00000  Uiso   1.00
C677   C     0.16662   0.49994   0.35511   0.00000  Uiso   1.00
C678   C     0.16672   0.49994   0.64489   0.00000  Uiso   1.00
C679   C     0.02040   0.46003   0.50885   0.00000  Uiso   1.00
C680   C     0.31249   0.54258   0.49248   0.00000  Uiso   1.00
C681   C     0.31294   0.46002   0.49112   0.00000  Uiso   1.00
C682   C     0.02083   0.54258   0.50745   0.00000  Uiso   1.00
C683   C     0.29108   0.50101   0.48899   0.00000  Uiso   1.00
C684   C     0.04225   0.50102   0.51096   0.00000  Uiso   1.00
C685   C     0.19058   0.35759   0.53458   0.00000  Uiso   1.00
C686   C     0.14282   0.64248   0.46541   0.00000  Uiso   1.00
C687   C     0.14275   0.35759   0.46542   0.00000  Uiso   1.00
C688   C     0.19052   0.64248   0.53459   0.00000  Uiso   1.00
N689   N     0.16667   0.61907   0.50000   0.00000  Uiso   1.00
N690   N     0.16667   0.38093   0.50000   0.00000  Uiso   1.00
O691   O     0.10559   0.53821   0.50000   0.00000  Uiso   1.00
O692   O     0.22774   0.46179   0.50000   0.00000  Uiso   1.00
O693   O     0.22774   0.53821   0.50000   0.00000  Uiso   1.00
O694   O     0.10559   0.46179   0.50000   0.00000  Uiso   1.00
O695   O     0.16667   0.53821   0.42845   0.00000  Uiso   1.00
O696   O     0.16666   0.46179   0.57155   0.00000  Uiso   1.00
O697   O     0.16666   0.53821   0.57155   0.00000  Uiso   1.00
O698   O     0.16667   0.46179   0.42845   0.00000  Uiso   1.00
Zn699  Zn    0.16667   0.55104   0.50000   0.00000  Uiso   1.00
Zn700  Zn    0.16667   0.44896   0.50000   0.00000  Uiso   1.00
Br701  Br    0.04195   0.40572   0.54024   0.00000  Uiso   1.00
Br702  Br    0.28814   0.59930   0.46969   0.00000  Uiso   1.00
Br703  Br    0.29138   0.40568   0.45979   0.00000  Uiso   1.00
Br704  Br    0.04516   0.59933   0.53018   0.00000  Uiso   1.00
N705   N     0.21227   0.38251   0.57268   0.00000  Uiso   1.00
H706   H     0.19694   0.38569   0.60569   0.00000  Uiso   1.00
C707   C     0.25724   0.37883   0.57751   0.00000  Uiso   1.00
H708   H     0.26643   0.36230   0.61339   0.00000  Uiso   1.00
H709   H     0.27104   0.41315   0.57745   0.00000  Uiso   1.00
H710   H     0.27026   0.35907   0.54656   0.00000  Uiso   1.00
N711   N     0.11822   0.61757   0.42997   0.00000  Uiso   1.00
H712   H     0.08649   0.62191   0.43200   0.00000  Uiso   1.00
C713   C     0.13290   0.61758   0.37961   0.00000  Uiso   1.00
H714   H     0.12356   0.64887   0.35962   0.00000  Uiso   1.00
H715   H     0.11888   0.58860   0.35886   0.00000  Uiso   1.00
H716   H     0.16740   0.61419   0.38004   0.00000  Uiso   1.00
N717   N     0.12107   0.38251   0.42732   0.00000  Uiso   1.00
H718   H     0.13639   0.38564   0.39430   0.00000  Uiso   1.00
C719   C     0.07609   0.37883   0.42249   0.00000  Uiso   1.00
H720   H     0.06692   0.36220   0.38666   0.00000  Uiso   1.00
H721   H     0.06228   0.41316   0.42245   0.00000  Uiso   1.00
H722   H     0.06307   0.35915   0.45351   0.00000  Uiso   1.00
N723   N     0.21510   0.61757   0.57003   0.00000  Uiso   1.00
H724   H     0.24684   0.62188   0.56800   0.00000  Uiso   1.00
C725   C     0.20043   0.61759   0.62039   0.00000  Uiso   1.00
H726   H     0.20979   0.64889   0.64038   0.00000  Uiso   1.00
H727   H     0.21443   0.58859   0.64115   0.00000  Uiso   1.00
H728   H     0.16592   0.61423   0.61995   0.00000  Uiso   1.00
C729   C     0.42021   0.50018   0.50561   0.00000  Uiso   1.00
C730   C     0.57979   0.50018   0.49437   0.00000  Uiso   1.00
C731   C     0.49984   0.49999   0.40621   0.00000  Uiso   1.00
C732   C     0.50016   0.49999   0.59379   0.00000  Uiso   1.00
C733   C     0.49995   0.49994   0.35511   0.00000  Uiso   1.00
C734   C     0.50005   0.49994   0.64489   0.00000  Uiso   1.00
C735   C     0.35373   0.46003   0.50885   0.00000  Uiso   1.00
C736   C     0.64582   0.54258   0.49248   0.00000  Uiso   1.00
C737   C     0.64627   0.46002   0.49112   0.00000  Uiso   1.00
C738   C     0.35416   0.54258   0.50745   0.00000  Uiso   1.00
C739   C     0.62441   0.50101   0.48899   0.00000  Uiso   1.00
C740   C     0.37558   0.50102   0.51096   0.00000  Uiso   1.00
C741   C     0.52392   0.35759   0.53458   0.00000  Uiso   1.00
C742   C     0.47615   0.64248   0.46541   0.00000  Uiso   1.00
C743   C     0.47608   0.35759   0.46542   0.00000  Uiso   1.00
C744   C     0.52385   0.64248   0.53459   0.00000  Uiso   1.00
N745   N     0.50000   0.61907   0.50000   0.00000  Uiso   1.00
N746   N     0.50000   0.38093   0.50000   0.00000  Uiso   1.00
O747   O     0.43892   0.53821   0.50000   0.00000  Uiso   1.00
O748   O     0.56108   0.46179   0.50000   0.00000  Uiso   1.00
O749   O     0.56108   0.53821   0.50000   0.00000  Uiso   1.00
O750   O     0.43892   0.46179   0.50000   0.00000  Uiso   1.00
O751   O     0.50000   0.53821   0.42845   0.00000  Uiso   1.00
O752   O     0.50000   0.46179   0.57155   0.00000  Uiso   1.00
O753   O     0.50000   0.53821   0.57155   0.00000  Uiso   1.00
O754   O     0.50000   0.46179   0.42845   0.00000  Uiso   1.00
Zn755  Zn    0.50000   0.55104   0.50000   0.00000  Uiso   1.00
Zn756  Zn    0.50000   0.44896   0.50000   0.00000  Uiso   1.00
Br757  Br    0.37529   0.40572   0.54024   0.00000  Uiso   1.00
Br758  Br    0.62148   0.59930   0.46969   0.00000  Uiso   1.00
Br759  Br    0.62471   0.40568   0.45979   0.00000  Uiso   1.00
Br760  Br    0.37850   0.59933   0.53018   0.00000  Uiso   1.00
N761   N     0.54560   0.38251   0.57268   0.00000  Uiso   1.00
H762   H     0.53027   0.38569   0.60569   0.00000  Uiso   1.00
C763   C     0.59058   0.37883   0.57751   0.00000  Uiso   1.00
H764   H     0.59976   0.36230   0.61339   0.00000  Uiso   1.00
H765   H     0.60438   0.41315   0.57745   0.00000  Uiso   1.00
H766   H     0.60359   0.35907   0.54656   0.00000  Uiso   1.00
N767   N     0.45156   0.61757   0.42997   0.00000  Uiso   1.00
H768   H     0.41982   0.62191   0.43200   0.00000  Uiso   1.00
C769   C     0.46624   0.61758   0.37961   0.00000  Uiso   1.00
H770   H     0.45690   0.64887   0.35962   0.00000  Uiso   1.00
H771   H     0.45221   0.58860   0.35886   0.00000  Uiso   1.00
H772   H     0.50073   0.61419   0.38004   0.00000  Uiso   1.00
N773   N     0.45440   0.38251   0.42732   0.00000  Uiso   1.00
H774   H     0.46972   0.38564   0.39430   0.00000  Uiso   1.00
C775   C     0.40942   0.37883   0.42249   0.00000  Uiso   1.00
H776   H     0.40025   0.36220   0.38666   0.00000  Uiso   1.00
H777   H     0.39561   0.41316   0.42245   0.00000  Uiso   1.00
H778   H     0.39640   0.35915   0.45351   0.00000  Uiso   1.00
N779   N     0.54844   0.61757   0.57003   0.00000  Uiso   1.00
H780   H     0.58017   0.62188   0.56800   0.00000  Uiso   1.00
C781   C     0.53376   0.61759   0.62039   0.00000  Uiso   1.00
H782   H     0.54313   0.64889   0.64038   0.00000  Uiso   1.00
H783   H     0.54777   0.58859   0.64115   0.00000  Uiso   1.00
H784   H     0.49926   0.61423   0.61995   0.00000  Uiso   1.00
C785   C     0.75354   0.50018   0.50561   0.00000  Uiso   1.00
C786   C     0.91312   0.50018   0.49437   0.00000  Uiso   1.00
C787   C     0.83317   0.49999   0.40621   0.00000  Uiso   1.00
C788   C     0.83350   0.49999   0.59379   0.00000  Uiso   1.00
C789   C     0.83328   0.49994   0.35511   0.00000  Uiso   1.00
C790   C     0.83338   0.49994   0.64489   0.00000  Uiso   1.00
C791   C     0.68707   0.46003   0.50885   0.00000  Uiso   1.00
C792   C     0.97916   0.54258   0.49248   0.00000  Uiso   1.00
C793   C     0.97960   0.46002   0.49112   0.00000  Uiso   1.00
C794   C     0.68750   0.54258   0.50745   0.00000  Uiso   1.00
C795   C     0.95775   0.50101   0.48899   0.00000  Uiso   1.00
C796   C     0.70891   0.50102   0.51096   0.00000  Uiso   1.00
C797   C     0.85725   0.35759   0.53458   0.00000  Uiso   1.00
C798   C     0.80948   0.64248   0.46541   0.00000  Uiso   1.00
C799   C     0.80942   0.35759   0.46542   0.00000  Uiso   1.00
C800   C     0.85718   0.64248   0.53459   0.00000  Uiso   1.00
N801   N     0.83333   0.61907   0.50000   0.00000  Uiso   1.00
N802   N     0.83333   0.38093   0.50000   0.00000  Uiso   1.00
O803   O     0.77226   0.53821   0.50000   0.00000  Uiso   1.00
O804   O     0.89441   0.46179   0.50000   0.00000  Uiso   1.00
O805   O     0.89441   0.53821   0.50000   0.00000  Uiso   1.00
O806   O     0.77226   0.46179   0.50000   0.00000  Uiso   1.00
O807   O     0.83334   0.53821   0.42845   0.00000  Uiso   1.00
O808   O     0.83333   0.46179   0.57155   0.00000  Uiso   1.00
O809   O     0.83333   0.53821   0.57155   0.00000  Uiso   1.00
O810   O     0.83334   0.46179   0.42845   0.00000  Uiso   1.00
Zn811  Zn    0.83333   0.55104   0.50000   0.00000  Uiso   1.00
Zn812  Zn    0.83333   0.44896   0.50000   0.00000  Uiso   1.00
Br813  Br    0.70862   0.40572   0.54024   0.00000  Uiso   1.00
Br814  Br    0.95481   0.59930   0.46969   0.00000  Uiso   1.00
Br815  Br    0.95805   0.40568   0.45979   0.00000  Uiso   1.00
Br816  Br    0.71183   0.59933   0.53018   0.00000  Uiso   1.00
N817   N     0.87893   0.38251   0.57268   0.00000  Uiso   1.00
H818   H     0.86360   0.38569   0.60569   0.00000  Uiso   1.00
C819   C     0.92391   0.37883   0.57751   0.00000  Uiso   1.00
H820   H     0.93309   0.36230   0.61339   0.00000  Uiso   1.00
H821   H     0.93771   0.41315   0.57745   0.00000  Uiso   1.00
H822   H     0.93693   0.35907   0.54656   0.00000  Uiso   1.00
N823   N     0.78489   0.61757   0.42997   0.00000  Uiso   1.00
H824   H     0.75316   0.62191   0.43200   0.00000  Uiso   1.00
C825   C     0.79957   0.61758   0.37961   0.00000  Uiso   1.00
H826   H     0.79023   0.64887   0.35962   0.00000  Uiso   1.00
H827   H     0.78555   0.58860   0.35886   0.00000  Uiso   1.00
H828   H     0.83407   0.61419   0.38004   0.00000  Uiso   1.00
N829   N     0.78774   0.38251   0.42732   0.00000  Uiso   1.00
H830   H     0.80306   0.38564   0.39430   0.00000  Uiso   1.00
C831   C     0.74276   0.37883   0.42249   0.00000  Uiso   1.00
H832   H     0.73359   0.36220   0.38666   0.00000  Uiso   1.00
H833   H     0.72895   0.41316   0.42245   0.00000  Uiso   1.00
H834   H     0.72973   0.35915   0.45351   0.00000  Uiso   1.00
N835   N     0.88177   0.61757   0.57003   0.00000  Uiso   1.00
H836   H     0.91351   0.62188   0.56800   0.00000  Uiso   1.00
C837   C     0.86709   0.61759   0.62039   0.00000  Uiso   1.00
H838   H     0.87646   0.64889   0.64038   0.00000  Uiso   1.00
H839   H     0.88110   0.58859   0.64115   0.00000  Uiso   1.00
H840   H     0.83259   0.61423   0.61995   0.00000  Uiso   1.00
C841   C     0.08688   0.83351   0.50561   0.00000  Uiso   1.00
C842   C     0.24645   0.83351   0.49437   0.00000  Uiso   1.00
C843   C     0.16650   0.83332   0.40621   0.00000  Uiso   1.00
C844   C     0.16683   0.83332   0.59379   0.00000  Uiso   1.00
C845   C     0.16662   0.83327   0.35511   0.00000  Uiso   1.00
C846   C     0.16672   0.83328   0.64489   0.00000  Uiso   1.00
C847   C     0.02040   0.79336   0.50885   0.00000  Uiso   1.00
C848   C     0.31249   0.87591   0.49248   0.00000  Uiso   1.00
C849   C     0.31294   0.79335   0.49112   0.00000  Uiso   1.00
C850   C     0.02083   0.87592   0.50745   0.00000  Uiso   1.00
C851   C     0.29108   0.83434   0.48899   0.00000  Uiso   1.00
C852   C     0.04225   0.83435   0.51096   0.00000  Uiso   1.00
C853   C     0.19058   0.69093   0.53458   0.00000  Uiso   1.00
C854   C     0.14282   0.97582   0.46541   0.00000  Uiso   1.00
C855   C     0.14275   0.69093   0.46542   0.00000  Uiso   1.00
C856   C     0.19052   0.97581   0.53459   0.00000  Uiso   1.00
N857   N     0.16667   0.95240   0.50000   0.00000  Uiso   1.00
N858   N     0.16667   0.71427   0.50000   0.00000  Uiso   1.00
O859   O     0.10559   0.87154   0.50000   0.00000  Uiso   1.00
O860   O     0.22774   0.79513   0.50000   0.00000  Uiso   1.00
O861   O     0.22774   0.87154   0.50000   0.00000  Uiso   1.00
O862   O     0.10559   0.79513   0.50000   0.00000  Uiso   1.00
O863   O     0.16667   0.87155   0.42845   0.00000  Uiso   1.00
O864   O     0.16666   0.79512   0.57155   0.00000  Uiso   1.00
O865   O     0.16666   0.87155   0.57155   0.00000  Uiso   1.00
O866   O     0.16667   0.79512   0.42845   0.00000  Uiso   1.00
Zn867  Zn    0.16667   0.88437   0.50000   0.00000  Uiso   1.00
Zn868  Zn    0.16667   0.78229   0.50000   0.00000  Uiso   1.00
Br869  Br    0.04195   0.73905   0.54024   0.00000  Uiso   1.00
Br870  Br    0.28814   0.93263   0.46969   0.00000  Uiso   1.00
Br871  Br    0.29138   0.73901   0.45979   0.00000  Uiso   1.00
Br872  Br    0.04516   0.93266   0.53018   0.00000  Uiso   1.00
N873   N     0.21227   0.71584   0.57268   0.00000  Uiso   1.00
H874   H     0.19694   0.71902   0.60569   0.00000  Uiso   1.00
C875   C     0.25724   0.71216   0.57751   0.00000  Uiso   1.00
H876   H     0.26643   0.69564   0.61339   0.00000  Uiso   1.00
H877   H     0.27104   0.74648   0.57745   0.00000  Uiso   1.00
H878   H     0.27026   0.69240   0.54656   0.00000  Uiso   1.00
N879   N     0.11822   0.95090   0.42997   0.00000  Uiso   1.00
H880   H     0.08649   0.95524   0.43200   0.00000  Uiso   1.00
C881   C     0.13290   0.95091   0.37961   0.00000  Uiso   1.00
H882   H     0.12356   0.98221   0.35962   0.00000  Uiso   1.00
H883   H     0.11888   0.92193   0.35886   0.00000  Uiso   1.00
H884   H     0.16740   0.94753   0.38004   0.00000  Uiso   1.00
N885   N     0.12107   0.71584   0.42732   0.00000  Uiso   1.00
H886   H     0.13639   0.71897   0.39430   0.00000  Uiso   1.00
C887   C     0.07609   0.71216   0.42249   0.00000  Uiso   1.00
H888   H     0.06692   0.69553   0.38666   0.00000  Uiso   1.00
H889   H     0.06228   0.74649   0.42245   0.00000  Uiso   1.00
H890   H     0.06307   0.69248   0.45351   0.00000  Uiso   1.00
N891   N     0.21510   0.95090   0.57003   0.00000  Uiso   1.00
H892   H     0.24684   0.95521   0.56800   0.00000  Uiso   1.00
C893   C     0.20043   0.95093   0.62039   0.00000  Uiso   1.00
H894   H     0.20979   0.98222   0.64038   0.00000  Uiso   1.00
H895   H     0.21443   0.92193   0.64115   0.00000  Uiso   1.00
H896   H     0.16592   0.94757   0.61995   0.00000  Uiso   1.00
C897   C     0.42021   0.83351   0.50561   0.00000  Uiso   1.00
C898   C     0.57979   0.83351   0.49437   0.00000  Uiso   1.00
C899   C     0.49984   0.83332   0.40621   0.00000  Uiso   1.00
C900   C     0.50016   0.83332   0.59379   0.00000  Uiso   1.00
C901   C     0.49995   0.83327   0.35511   0.00000  Uiso   1.00
C902   C     0.50005   0.83328   0.64489   0.00000  Uiso   1.00
C903   C     0.35373   0.79336   0.50885   0.00000  Uiso   1.00
C904   C     0.64582   0.87591   0.49248   0.00000  Uiso   1.00
C905   C     0.64627   0.79335   0.49112   0.00000  Uiso   1.00
C906   C     0.35416   0.87592   0.50745   0.00000  Uiso   1.00
C907   C     0.62441   0.83434   0.48899   0.00000  Uiso   1.00
C908   C     0.37558   0.83435   0.51096   0.00000  Uiso   1.00
C909   C     0.52392   0.69093   0.53458   0.00000  Uiso   1.00
C910   C     0.47615   0.97582   0.46541   0.00000  Uiso   1.00
C911   C     0.47608   0.69093   0.46542   0.00000  Uiso   1.00
C912   C     0.52385   0.97581   0.53459   0.00000  Uiso   1.00
N913   N     0.50000   0.95240   0.50000   0.00000  Uiso   1.00
N914   N     0.50000   0.71427   0.50000   0.00000  Uiso   1.00
O915   O     0.43892   0.87154   0.50000   0.00000  Uiso   1.00
O916   O     0.56108   0.79513   0.50000   0.00000  Uiso   1.00
O917   O     0.56108   0.87154   0.50000   0.00000  Uiso   1.00
O918   O     0.43892   0.79513   0.50000   0.00000  Uiso   1.00
O919   O     0.50000   0.87155   0.42845   0.00000  Uiso   1.00
O920   O     0.50000   0.79512   0.57155   0.00000  Uiso   1.00
O921   O     0.50000   0.87155   0.57155   0.00000  Uiso   1.00
O922   O     0.50000   0.79512   0.42845   0.00000  Uiso   1.00
Zn923  Zn    0.50000   0.88437   0.50000   0.00000  Uiso   1.00
Zn924  Zn    0.50000   0.78229   0.50000   0.00000  Uiso   1.00
Br925  Br    0.37529   0.73905   0.54024   0.00000  Uiso   1.00
Br926  Br    0.62148   0.93263   0.46969   0.00000  Uiso   1.00
Br927  Br    0.62471   0.73901   0.45979   0.00000  Uiso   1.00
Br928  Br    0.37850   0.93266   0.53018   0.00000  Uiso   1.00
N929   N     0.54560   0.71584   0.57268   0.00000  Uiso   1.00
H930   H     0.53027   0.71902   0.60569   0.00000  Uiso   1.00
C931   C     0.59058   0.71216   0.57751   0.00000  Uiso   1.00
H932   H     0.59976   0.69564   0.61339   0.00000  Uiso   1.00
H933   H     0.60438   0.74648   0.57745   0.00000  Uiso   1.00
H934   H     0.60359   0.69240   0.54656   0.00000  Uiso   1.00
N935   N     0.45156   0.95090   0.42997   0.00000  Uiso   1.00
H936   H     0.41982   0.95524   0.43200   0.00000  Uiso   1.00
C937   C     0.46624   0.95091   0.37961   0.00000  Uiso   1.00
H938   H     0.45690   0.98221   0.35962   0.00000  Uiso   1.00
H939   H     0.45221   0.92193   0.35886   0.00000  Uiso   1.00
H940   H     0.50073   0.94753   0.38004   0.00000  Uiso   1.00
N941   N     0.45440   0.71584   0.42732   0.00000  Uiso   1.00
H942   H     0.46972   0.71897   0.39430   0.00000  Uiso   1.00
C943   C     0.40942   0.71216   0.42249   0.00000  Uiso   1.00
H944   H     0.40025   0.69553   0.38666   0.00000  Uiso   1.00
H945   H     0.39561   0.74649   0.42245   0.00000  Uiso   1.00
H946   H     0.39640   0.69248   0.45351   0.00000  Uiso   1.00
N947   N     0.54844   0.95090   0.57003   0.00000  Uiso   1.00
H948   H     0.58017   0.95521   0.56800   0.00000  Uiso   1.00
C949   C     0.53376   0.95093   0.62039   0.00000  Uiso   1.00
H950   H     0.54313   0.98222   0.64038   0.00000  Uiso   1.00
H951   H     0.54777   0.92193   0.64115   0.00000  Uiso   1.00
H952   H     0.49926   0.94757   0.61995   0.00000  Uiso   1.00
C953   C     0.75354   0.83351   0.50561   0.00000  Uiso   1.00
C954   C     0.91312   0.83351   0.49437   0.00000  Uiso   1.00
C955   C     0.83317   0.83332   0.40621   0.00000  Uiso   1.00
C956   C     0.83350   0.83332   0.59379   0.00000  Uiso   1.00
C957   C     0.83328   0.83327   0.35511   0.00000  Uiso   1.00
C958   C     0.83338   0.83328   0.64489   0.00000  Uiso   1.00
C959   C     0.68707   0.79336   0.50885   0.00000  Uiso   1.00
C960   C     0.97916   0.87591   0.49248   0.00000  Uiso   1.00
C961   C     0.97960   0.79335   0.49112   0.00000  Uiso   1.00
C962   C     0.68750   0.87592   0.50745   0.00000  Uiso   1.00
C963   C     0.95775   0.83434   0.48899   0.00000  Uiso   1.00
C964   C     0.70891   0.83435   0.51096   0.00000  Uiso   1.00
C965   C     0.85725   0.69093   0.53458   0.00000  Uiso   1.00
C966   C     0.80948   0.97582   0.46541   0.00000  Uiso   1.00
C967   C     0.80942   0.69093   0.46542   0.00000  Uiso   1.00
C968   C     0.85718   0.97581   0.53459   0.00000  Uiso   1.00
N969   N     0.83333   0.95240   0.50000   0.00000  Uiso   1.00
N970   N     0.83333   0.71427   0.50000   0.00000  Uiso   1.00
O971   O     0.77226   0.87154   0.50000   0.00000  Uiso   1.00
O972   O     0.89441   0.79513   0.50000   0.00000  Uiso   1.00
O973   O     0.89441   0.87154   0.50000   0.00000  Uiso   1.00
O974   O     0.77226   0.79513   0.50000   0.00000  Uiso   1.00
O975   O     0.83334   0.87155   0.42845   0.00000  Uiso   1.00
O976   O     0.83333   0.79512   0.57155   0.00000  Uiso   1.00
O977   O     0.83333   0.87155   0.57155   0.00000  Uiso   1.00
O978   O     0.83334   0.79512   0.42845   0.00000  Uiso   1.00
Zn979  Zn    0.83333   0.88437   0.50000   0.00000  Uiso   1.00
Zn980  Zn    0.83333   0.78229   0.50000   0.00000  Uiso   1.00
Br981  Br    0.70862   0.73905   0.54024   0.00000  Uiso   1.00
Br982  Br    0.95481   0.93263   0.46969   0.00000  Uiso   1.00
Br983  Br    0.95805   0.73901   0.45979   0.00000  Uiso   1.00
Br984  Br    0.71183   0.93266   0.53018   0.00000  Uiso   1.00
N985   N     0.87893   0.71584   0.57268   0.00000  Uiso   1.00
H986   H     0.86360   0.71902   0.60569   0.00000  Uiso   1.00
C987   C     0.92391   0.71216   0.57751   0.00000  Uiso   1.00
H988   H     0.93309   0.69564   0.61339   0.00000  Uiso   1.00
H989   H     0.93771   0.74648   0.57745   0.00000  Uiso   1.00
H990   H     0.93693   0.69240   0.54656   0.00000  Uiso   1.00
N991   N     0.78489   0.95090   0.42997   0.00000  Uiso   1.00
H992   H     0.75316   0.95524   0.43200   0.00000  Uiso   1.00
C993   C     0.79957   0.95091   0.37961   0.00000  Uiso   1.00
H994   H     0.79023   0.98221   0.35962   0.00000  Uiso   1.00
H995   H     0.78555   0.92193   0.35886   0.00000  Uiso   1.00
H996   H     0.83407   0.94753   0.38004   0.00000  Uiso   1.00
N997   N     0.78774   0.71584   0.42732   0.00000  Uiso   1.00
H998   H     0.80306   0.71897   0.39430   0.00000  Uiso   1.00
C999   C     0.74276   0.71216   0.42249   0.00000  Uiso   1.00
H1000  H     0.73359   0.69553   0.38666   0.00000  Uiso   1.00
H1001  H     0.72895   0.74649   0.42245   0.00000  Uiso   1.00
H1002  H     0.72973   0.69248   0.45351   0.00000  Uiso   1.00
N1003  N     0.88177   0.95090   0.57003   0.00000  Uiso   1.00
H1004  H     0.91351   0.95521   0.56800   0.00000  Uiso   1.00
C1005  C     0.86709   0.95093   0.62039   0.00000  Uiso   1.00
H1006  H     0.87646   0.98222   0.64038   0.00000  Uiso   1.00
H1007  H     0.88110   0.92193   0.64115   0.00000  Uiso   1.00
H1008  H     0.83259   0.94757   0.61995   0.00000  Uiso   1.00
C1009  C     0.08688   0.16685   0.83895   0.00000  Uiso   1.00
C1010  C     0.24645   0.16684   0.82771   0.00000  Uiso   1.00
C1011  C     0.16650   0.16665   0.73955   0.00000  Uiso   1.00
C1012  C     0.16683   0.16666   0.92712   0.00000  Uiso   1.00
C1013  C     0.16662   0.16661   0.68845   0.00000  Uiso   1.00
C1014  C     0.16672   0.16661   0.97822   0.00000  Uiso   1.00
C1015  C     0.02040   0.12669   0.84218   0.00000  Uiso   1.00
C1016  C     0.31249   0.20924   0.82582   0.00000  Uiso   1.00
C1017  C     0.31294   0.12669   0.82445   0.00000  Uiso   1.00
C1018  C     0.02083   0.20925   0.84078   0.00000  Uiso   1.00
C1019  C     0.29108   0.16768   0.82233   0.00000  Uiso   1.00
C1020  C     0.04225   0.16769   0.84430   0.00000  Uiso   1.00
C1021  C     0.19058   0.02426   0.86791   0.00000  Uiso   1.00
C1022  C     0.14282   0.30915   0.79875   0.00000  Uiso   1.00
C1023  C     0.14275   0.02426   0.79876   0.00000  Uiso   1.00
C1024  C     0.19052   0.30915   0.86792   0.00000  Uiso   1.00
N1025  N     0.16667   0.28573   0.83333   0.00000  Uiso   1.00
N1026  N     0.16667   0.04760   0.83333   0.00000  Uiso   1.00
O1027  O     0.10559   0.20487   0.83333   0.00000  Uiso   1.00
O1028  O     0.22774   0.12846   0.83334   0.00000  Uiso   1.00
O1029  O     0.22774   0.20487   0.83334   0.00000  Uiso   1.00
O1030  O     0.10559   0.12846   0.83333   0.00000  Uiso   1.00
O1031  O     0.16667   0.20488   0.76178   0.00000  Uiso   1.00
O1032  O     0.16666   0.12845   0.90489   0.00000  Uiso   1.00
O1033  O     0.16666   0.20488   0.90489   0.00000  Uiso   1.00
O1034  O     0.16667   0.12845   0.76178   0.00000  Uiso   1.00
Zn1035 Zn    0.16667   0.21771   0.83333   0.00000  Uiso   1.00
Zn1036 Zn    0.16667   0.11563   0.83333   0.00000  Uiso   1.00
Br1037 Br    0.04195   0.07239   0.87357   0.00000  Uiso   1.00
Br1038 Br    0.28814   0.26597   0.80303   0.00000  Uiso   1.00
Br1039 Br    0.29138   0.07235   0.79312   0.00000  Uiso   1.00
Br1040 Br    0.04516   0.26600   0.86352   0.00000  Uiso   1.00
N1041  N     0.21227   0.04917   0.90601   0.00000  Uiso   1.00
H1042  H     0.19694   0.05235   0.93902   0.00000  Uiso   1.00
C1043  C     0.25724   0.04550   0.91084   0.00000  Uiso   1.00
H1044  H     0.26643   0.02897   0.94672   0.00000  Uiso   1.00
H1045  H     0.27104   0.07981   0.91078   0.00000  Uiso   1.00
H1046  H     0.27026   0.02574   0.87989   0.00000  Uiso   1.00
N1047  N     0.11822   0.28424   0.76331   0.00000  Uiso   1.00
H1048  H     0.08649   0.28858   0.76533   0.00000  Uiso   1.00
C1049  C     0.13290   0.28424   0.71294   0.00000  Uiso   1.00
H1050  H     0.12356   0.31554   0.69295   0.00000  Uiso   1.00
H1051  H     0.11888   0.25526   0.69219   0.00000  Uiso   1.00
H1052  H     0.16740   0.28086   0.71338   0.00000  Uiso   1.00
N1053  N     0.12107   0.04917   0.76065   0.00000  Uiso   1.00
H1054  H     0.13639   0.05230   0.72763   0.00000  Uiso   1.00
C1055  C     0.07609   0.04550   0.75583   0.00000  Uiso   1.00
H1056  H     0.06692   0.02887   0.71999   0.00000  Uiso   1.00
H1057  H     0.06228   0.07983   0.75578   0.00000  Uiso   1.00
H1058  H     0.06307   0.02581   0.78684   0.00000  Uiso   1.00
N1059  N     0.21510   0.28423   0.90336   0.00000  Uiso   1.00
H1060  H     0.24684   0.28854   0.90133   0.00000  Uiso   1.00
C1061  C     0.20043   0.28426   0.95373   0.00000  Uiso   1.00
H1062  H     0.20979   0.31556   0.97372   0.00000  Uiso   1.00
H1063  H     0.21443   0.25526   0.97448   0.00000  Uiso   1.00
H1064  H     0.16592   0.28090   0.95329   0.00000  Uiso   1.00
C1065  C     0.42021   0.16685   0.83895   0.00000  Uiso   1.00
C1066  C     0.57979   0.16684   0.82771   0.00000  Uiso   1.00
C1067  C     0.49984   0.16665   0.73955   0.00000  Uiso   1.00
C1068  C     0.50016   0.16666   0.92712   0.00000  Uiso   1.00
C1069  C     0.49995   0.16661   0.68845   0.00000  Uiso   1.00
C1070  C     0.50005   0.16661   0.97822   0.00000  Uiso   1.00
C1071  C     0.35373   0.12669   0.84218   0.00000  Uiso   1.00
C1072  C     0.64582   0.20924   0.82582   0.00000  Uiso   1.00
C1073  C     0.64627   0.12669   0.82445   0.00000  Uiso   1.00
C1074  C     0.35416   0.20925   0.84078   0.00000  Uiso   1.00
C1075  C     0.62441   0.16768   0.82233   0.00000  Uiso   1.00
C1076  C     0.37558   0.16769   0.84430   0.00000  Uiso   1.00
C1077  C     0.52392   0.02426   0.86791   0.00000  Uiso   1.00
C1078  C     0.47615   0.30915   0.79875   0.00000  Uiso   1.00
C1079  C     0.47608   0.02426   0.79876   0.00000  Uiso   1.00
C1080  C     0.52385   0.30915   0.86792   0.00000  Uiso   1.00
N1081  N     0.50000   0.28573   0.83333   0.00000  Uiso   1.00
N1082  N     0.50000   0.04760   0.83333   0.00000  Uiso   1.00
O1083  O     0.43892   0.20487   0.83333   0.00000  Uiso   1.00
O1084  O     0.56108   0.12846   0.83334   0.00000  Uiso   1.00
O1085  O     0.56108   0.20487   0.83334   0.00000  Uiso   1.00
O1086  O     0.43892   0.12846   0.83333   0.00000  Uiso   1.00
O1087  O     0.50000   0.20488   0.76178   0.00000  Uiso   1.00
O1088  O     0.50000   0.12845   0.90489   0.00000  Uiso   1.00
O1089  O     0.50000   0.20488   0.90489   0.00000  Uiso   1.00
O1090  O     0.50000   0.12845   0.76178   0.00000  Uiso   1.00
Zn1091 Zn    0.50000   0.21771   0.83333   0.00000  Uiso   1.00
Zn1092 Zn    0.50000   0.11563   0.83333   0.00000  Uiso   1.00
Br1093 Br    0.37529   0.07239   0.87357   0.00000  Uiso   1.00
Br1094 Br    0.62148   0.26597   0.80303   0.00000  Uiso   1.00
Br1095 Br    0.62471   0.07235   0.79312   0.00000  Uiso   1.00
Br1096 Br    0.37850   0.26600   0.86352   0.00000  Uiso   1.00
N1097  N     0.54560   0.04917   0.90601   0.00000  Uiso   1.00
H1098  H     0.53027   0.05235   0.93902   0.00000  Uiso   1.00
C1099  C     0.59058   0.04550   0.91084   0.00000  Uiso   1.00
H1100  H     0.59976   0.02897   0.94672   0.00000  Uiso   1.00
H1101  H     0.60438   0.07981   0.91078   0.00000  Uiso   1.00
H1102  H     0.60359   0.02574   0.87989   0.00000  Uiso   1.00
N1103  N     0.45156   0.28424   0.76331   0.00000  Uiso   1.00
H1104  H     0.41982   0.28858   0.76533   0.00000  Uiso   1.00
C1105  C     0.46624   0.28424   0.71294   0.00000  Uiso   1.00
H1106  H     0.45690   0.31554   0.69295   0.00000  Uiso   1.00
H1107  H     0.45221   0.25526   0.69219   0.00000  Uiso   1.00
H1108  H     0.50073   0.28086   0.71338   0.00000  Uiso   1.00
N1109  N     0.45440   0.04917   0.76065   0.00000  Uiso   1.00
H1110  H     0.46972   0.05230   0.72763   0.00000  Uiso   1.00
C1111  C     0.40942   0.04550   0.75583   0.00000  Uiso   1.00
H1112  H     0.40025   0.02887   0.71999   0.00000  Uiso   1.00
H1113  H     0.39561   0.07983   0.75578   0.00000  Uiso   1.00
H1114  H     0.39640   0.02581   0.78684   0.00000  Uiso   1.00
N1115  N     0.54844   0.28423   0.90336   0.00000  Uiso   1.00
H1116  H     0.58017   0.28854   0.90133   0.00000  Uiso   1.00
C1117  C     0.53376   0.28426   0.95373   0.00000  Uiso   1.00
H1118  H     0.54313   0.31556   0.97372   0.00000  Uiso   1.00
H1119  H     0.54777   0.25526   0.97448   0.00000  Uiso   1.00
H1120  H     0.49926   0.28090   0.95329   0.00000  Uiso   1.00
C1121  C     0.75354   0.16685   0.83895   0.00000  Uiso   1.00
C1122  C     0.91312   0.16684   0.82771   0.00000  Uiso   1.00
C1123  C     0.83317   0.16665   0.73955   0.00000  Uiso   1.00
C1124  C     0.83350   0.16666   0.92712   0.00000  Uiso   1.00
C1125  C     0.83328   0.16661   0.68845   0.00000  Uiso   1.00
C1126  C     0.83338   0.16661   0.97822   0.00000  Uiso   1.00
C1127  C     0.68707   0.12669   0.84218   0.00000  Uiso   1.00
C1128  C     0.97916   0.20924   0.82582   0.00000  Uiso   1.00
C1129  C     0.97960   0.12669   0.82445   0.00000  Uiso   1.00
C1130  C     0.68750   0.20925   0.84078   0.00000  Uiso   1.00
C1131  C     0.95775   0.16768   0.82233   0.00000  Uiso   1.00
C1132  C     0.70891   0.16769   0.84430   0.00000  Uiso   1.00
C1133  C     0.85725   0.02426   0.86791   0.00000  Uiso   1.00
C1134  C     0.80948   0.30915   0.79875   0.00000  Uiso   1.00
C1135  C     0.80942   0.02426   0.79876   0.00000  Uiso   1.00
C1136  C     0.85718   0.30915   0.86792   0.00000  Uiso   1.00
N1137  N     0.83333   0.28573   0.83333   0.00000  Uiso   1.00
N1138  N     0.83333   0.04760   0.83333   0.00000  Uiso   1.00
O1139  O     0.77226   0.20487   0.83333   0.00000  Uiso   1.00
O1140  O     0.89441   0.12846   0.83334   0.00000  Uiso   1.00
O1141  O     0.89441   0.20487   0.83334   0.00000  Uiso   1.00
O1142  O     0.77226   0.12846   0.83333   0.00000  Uiso   1.00
O1143  O     0.83334   0.20488   0.76178   0.00000  Uiso   1.00
O1144  O     0.83333   0.12845   0.90489   0.00000  Uiso   1.00
O1145  O     0.83333   0.20488   0.90489   0.00000  Uiso   1.00
O1146  O     0.83334   0.12845   0.76178   0.00000  Uiso   1.00
Zn1147 Zn    0.83333   0.21771   0.83333   0.00000  Uiso   1.00
Zn1148 Zn    0.83333   0.11563   0.83333   0.00000  Uiso   1.00
Br1149 Br    0.70862   0.07239   0.87357   0.00000  Uiso   1.00
Br1150 Br    0.95481   0.26597   0.80303   0.00000  Uiso   1.00
Br1151 Br    0.95805   0.07235   0.79312   0.00000  Uiso   1.00
Br1152 Br    0.71183   0.26600   0.86352   0.00000  Uiso   1.00
N1153  N     0.87893   0.04917   0.90601   0.00000  Uiso   1.00
H1154  H     0.86360   0.05235   0.93902   0.00000  Uiso   1.00
C1155  C     0.92391   0.04550   0.91084   0.00000  Uiso   1.00
H1156  H     0.93309   0.02897   0.94672   0.00000  Uiso   1.00
H1157  H     0.93771   0.07981   0.91078   0.00000  Uiso   1.00
H1158  H     0.93693   0.02574   0.87989   0.00000  Uiso   1.00
N1159  N     0.78489   0.28424   0.76331   0.00000  Uiso   1.00
H1160  H     0.75316   0.28858   0.76533   0.00000  Uiso   1.00
C1161  C     0.79957   0.28424   0.71294   0.00000  Uiso   1.00
H1162  H     0.79023   0.31554   0.69295   0.00000  Uiso   1.00
H1163  H     0.78555   0.25526   0.69219   0.00000  Uiso   1.00
H1164  H     0.83407   0.28086   0.71338   0.00000  Uiso   1.00
N1165  N     0.78774   0.04917   0.76065   0.00000  Uiso   1.00
H1166  H     0.80306   0.05230   0.72763   0.00000  Uiso   1.00
C1167  C     0.74276   0.04550   0.75583   0.00000  Uiso   1.00
H1168  H     0.73359   0.02887   0.71999   0.00000  Uiso   1.00
H1169  H     0.72895   0.07983   0.75578   0.00000  Uiso   1.00
H1170  H     0.72973   0.02581   0.78684   0.00000  Uiso   1.00
N1171  N     0.88177   0.28423   0.90336   0.00000  Uiso   1.00
H1172  H     0.91351   0.28854   0.90133   0.00000  Uiso   1.00
C1173  C     0.86709   0.28426   0.95373   0.00000  Uiso   1.00
H1174  H     0.87646   0.31556   0.97372   0.00000  Uiso   1.00
H1175  H     0.88110   0.25526   0.97448   0.00000  Uiso   1.00
H1176  H     0.83259   0.28090   0.95329   0.00000  Uiso   1.00
C1177  C     0.08688   0.50018   0.83895   0.00000  Uiso   1.00
C1178  C     0.24645   0.50018   0.82771   0.00000  Uiso   1.00
C1179  C     0.16650   0.49999   0.73955   0.00000  Uiso   1.00
C1180  C     0.16683   0.49999   0.92712   0.00000  Uiso   1.00
C1181  C     0.16662   0.49994   0.68845   0.00000  Uiso   1.00
C1182  C     0.16672   0.49994   0.97822   0.00000  Uiso   1.00
C1183  C     0.02040   0.46003   0.84218   0.00000  Uiso   1.00
C1184  C     0.31249   0.54258   0.82582   0.00000  Uiso   1.00
C1185  C     0.31294   0.46002   0.82445   0.00000  Uiso   1.00
C1186  C     0.02083   0.54258   0.84078   0.00000  Uiso   1.00
C1187  C     0.29108   0.50101   0.82233   0.00000  Uiso   1.00
C1188  C     0.04225   0.50102   0.84430   0.00000  Uiso   1.00
C1189  C     0.19058   0.35759   0.86791   0.00000  Uiso   1.00
C1190  C     0.14282   0.64248   0.79875   0.00000  Uiso   1.00
C1191  C     0.14275   0.35759   0.79876   0.00000  Uiso   1.00
C1192  C     0.19052   0.64248   0.86792   0.00000  Uiso   1.00
N1193  N     0.16667   0.61907   0.83333   0.00000  Uiso   1.00
N1194  N     0.16667   0.38093   0.83333   0.00000  Uiso   1.00
O1195  O     0.10559   0.53821   0.83333   0.00000  Uiso   1.00
O1196  O     0.22774   0.46179   0.83334   0.00000  Uiso   1.00
O1197  O     0.22774   0.53821   0.83334   0.00000  Uiso   1.00
O1198  O     0.10559   0.46179   0.83333   0.00000  Uiso   1.00
O1199  O     0.16667   0.53821   0.76178   0.00000  Uiso   1.00
O1200  O     0.16666   0.46179   0.90489   0.00000  Uiso   1.00
O1201  O     0.16666   0.53821   0.90489   0.00000  Uiso   1.00
O1202  O     0.16667   0.46179   0.76178   0.00000  Uiso   1.00
Zn1203 Zn    0.16667   0.55104   0.83333   0.00000  Uiso   1.00
Zn1204 Zn    0.16667   0.44896   0.83333   0.00000  Uiso   1.00
Br1205 Br    0.04195   0.40572   0.87357   0.00000  Uiso   1.00
Br1206 Br    0.28814   0.59930   0.80303   0.00000  Uiso   1.00
Br1207 Br    0.29138   0.40568   0.79312   0.00000  Uiso   1.00
Br1208 Br    0.04516   0.59933   0.86352   0.00000  Uiso   1.00
N1209  N     0.21227   0.38251   0.90601   0.00000  Uiso   1.00
H1210  H     0.19694   0.38569   0.93902   0.00000  Uiso   1.00
C1211  C     0.25724   0.37883   0.91084   0.00000  Uiso   1.00
H1212  H     0.26643   0.36230   0.94672   0.00000  Uiso   1.00
H1213  H     0.27104   0.41315   0.91078   0.00000  Uiso   1.00
H1214  H     0.27026   0.35907   0.87989   0.00000  Uiso   1.00
N1215  N     0.11822   0.61757   0.76331   0.00000  Uiso   1.00
H1216  H     0.08649   0.62191   0.76533   0.00000  Uiso   1.00
C1217  C     0.13290   0.61758   0.71294   0.00000  Uiso   1.00
H1218  H     0.12356   0.64887   0.69295   0.00000  Uiso   1.00
H1219  H     0.11888   0.58860   0.69219   0.00000  Uiso   1.00
H1220  H     0.16740   0.61419   0.71338   0.00000  Uiso   1.00
N1221  N     0.12107   0.38251   0.76065   0.00000  Uiso   1.00
H1222  H     0.13639   0.38564   0.72763   0.00000  Uiso   1.00
C1223  C     0.07609   0.37883   0.75583   0.00000  Uiso   1.00
H1224  H     0.06692   0.36220   0.71999   0.00000  Uiso   1.00
H1225  H     0.06228   0.41316   0.75578   0.00000  Uiso   1.00
H1226  H     0.06307   0.35915   0.78684   0.00000  Uiso   1.00
N1227  N     0.21510   0.61757   0.90336   0.00000  Uiso   1.00
H1228  H     0.24684   0.62188   0.90133   0.00000  Uiso   1.00
C1229  C     0.20043   0.61759   0.95373   0.00000  Uiso   1.00
H1230  H     0.20979   0.64889   0.97372   0.00000  Uiso   1.00
H1231  H     0.21443   0.58859   0.97448   0.00000  Uiso   1.00
H1232  H     0.16592   0.61423   0.95329   0.00000  Uiso   1.00
C1233  C     0.42021   0.50018   0.83895   0.00000  Uiso   1.00
C1234  C     0.57979   0.50018   0.82771   0.00000  Uiso   1.00
C1235  C     0.49984   0.49999   0.73955   0.00000  Uiso   1.00
C1236  C     0.50016   0.49999   0.92712   0.00000  Uiso   1.00
C1237  C     0.49995   0.49994   0.68845   0.00000  Uiso   1.00
C1238  C     0.50005   0.49994   0.97822   0.00000  Uiso   1.00
C1239  C     0.35373   0.46003   0.84218   0.00000  Uiso   1.00
C1240  C     0.64582   0.54258   0.82582   0.00000  Uiso   1.00
C1241  C     0.64627   0.46002   0.82445   0.00000  Uiso   1.00
C1242  C     0.35416   0.54258   0.84078   0.00000  Uiso   1.00
C1243  C     0.62441   0.50101   0.82233   0.00000  Uiso   1.00
C1244  C     0.37558   0.50102   0.84430   0.00000  Uiso   1.00
C1245  C     0.52392   0.35759   0.86791   0.00000  Uiso   1.00
C1246  C     0.47615   0.64248   0.79875   0.00000  Uiso   1.00
C1247  C     0.47608   0.35759   0.79876   0.00000  Uiso   1.00
C1248  C     0.52385   0.64248   0.86792   0.00000  Uiso   1.00
N1249  N     0.50000   0.61907   0.83333   0.00000  Uiso   1.00
N1250  N     0.50000   0.38093   0.83333   0.00000  Uiso   1.00
O1251  O     0.43892   0.53821   0.83333   0.00000  Uiso   1.00
O1252  O     0.56108   0.46179   0.83334   0.00000  Uiso   1.00
O1253  O     0.56108   0.53821   0.83334   0.00000  Uiso   1.00
O1254  O     0.43892   0.46179   0.83333   0.00000  Uiso   1.00
O1255  O     0.50000   0.53821   0.76178   0.00000  Uiso   1.00
O1256  O     0.50000   0.46179   0.90489   0.00000  Uiso   1.00
O1257  O     0.50000   0.53821   0.90489   0.00000  Uiso   1.00
O1258  O     0.50000   0.46179   0.76178   0.00000  Uiso   1.00
Zn1259 Zn    0.50000   0.55104   0.83333   0.00000  Uiso   1.00
Zn1260 Zn    0.50000   0.44896   0.83333   0.00000  Uiso   1.00
Br1261 Br    0.37529   0.40572   0.87357   0.00000  Uiso   1.00
Br1262 Br    0.62148   0.59930   0.80303   0.00000  Uiso   1.00
Br1263 Br    0.62471   0.40568   0.79312   0.00000  Uiso   1.00
Br1264 Br    0.37850   0.59933   0.86352   0.00000  Uiso   1.00
N1265  N     0.54560   0.38251   0.90601   0.00000  Uiso   1.00
H1266  H     0.53027   0.38569   0.93902   0.00000  Uiso   1.00
C1267  C     0.59058   0.37883   0.91084   0.00000  Uiso   1.00
H1268  H     0.59976   0.36230   0.94672   0.00000  Uiso   1.00
H1269  H     0.60438   0.41315   0.91078   0.00000  Uiso   1.00
H1270  H     0.60359   0.35907   0.87989   0.00000  Uiso   1.00
N1271  N     0.45156   0.61757   0.76331   0.00000  Uiso   1.00
H1272  H     0.41982   0.62191   0.76533   0.00000  Uiso   1.00
C1273  C     0.46624   0.61758   0.71294   0.00000  Uiso   1.00
H1274  H     0.45690   0.64887   0.69295   0.00000  Uiso   1.00
H1275  H     0.45221   0.58860   0.69219   0.00000  Uiso   1.00
H1276  H     0.50073   0.61419   0.71338   0.00000  Uiso   1.00
N1277  N     0.45440   0.38251   0.76065   0.00000  Uiso   1.00
H1278  H     0.46972   0.38564   0.72763   0.00000  Uiso   1.00
C1279  C     0.40942   0.37883   0.75583   0.00000  Uiso   1.00
H1280  H     0.40025   0.36220   0.71999   0.00000  Uiso   1.00
H1281  H     0.39561   0.41316   0.75578   0.00000  Uiso   1.00
H1282  H     0.39640   0.35915   0.78684   0.00000  Uiso   1.00
N1283  N     0.54844   0.61757   0.90336   0.00000  Uiso   1.00
H1284  H     0.58017   0.62188   0.90133   0.00000  Uiso   1.00
C1285  C     0.53376   0.61759   0.95373   0.00000  Uiso   1.00
H1286  H     0.54313   0.64889   0.97372   0.00000  Uiso   1.00
H1287  H     0.54777   0.58859   0.97448   0.00000  Uiso   1.00
H1288  H     0.49926   0.61423   0.95329   0.00000  Uiso   1.00
C1289  C     0.75354   0.50018   0.83895   0.00000  Uiso   1.00
C1290  C     0.91312   0.50018   0.82771   0.00000  Uiso   1.00
C1291  C     0.83317   0.49999   0.73955   0.00000  Uiso   1.00
C1292  C     0.83350   0.49999   0.92712   0.00000  Uiso   1.00
C1293  C     0.83328   0.49994   0.68845   0.00000  Uiso   1.00
C1294  C     0.83338   0.49994   0.97822   0.00000  Uiso   1.00
C1295  C     0.68707   0.46003   0.84218   0.00000  Uiso   1.00
C1296  C     0.97916   0.54258   0.82582   0.00000  Uiso   1.00
C1297  C     0.97960   0.46002   0.82445   0.00000  Uiso   1.00
C1298  C     0.68750   0.54258   0.84078   0.00000  Uiso   1.00
C1299  C     0.95775   0.50101   0.82233   0.00000  Uiso   1.00
C1300  C     0.70891   0.50102   0.84430   0.00000  Uiso   1.00
C1301  C     0.85725   0.35759   0.86791   0.00000  Uiso   1.00
C1302  C     0.80948   0.64248   0.79875   0.00000  Uiso   1.00
C1303  C     0.80942   0.35759   0.79876   0.00000  Uiso   1.00
C1304  C     0.85718   0.64248   0.86792   0.00000  Uiso   1.00
N1305  N     0.83333   0.61907   0.83333   0.00000  Uiso   1.00
N1306  N     0.83333   0.38093   0.83333   0.00000  Uiso   1.00
O1307  O     0.77226   0.53821   0.83333   0.00000  Uiso   1.00
O1308  O     0.89441   0.46179   0.83334   0.00000  Uiso   1.00
O1309  O     0.89441   0.53821   0.83334   0.00000  Uiso   1.00
O1310  O     0.77226   0.46179   0.83333   0.00000  Uiso   1.00
O1311  O     0.83334   0.53821   0.76178   0.00000  Uiso   1.00
O1312  O     0.83333   0.46179   0.90489   0.00000  Uiso   1.00
O1313  O     0.83333   0.53821   0.90489   0.00000  Uiso   1.00
O1314  O     0.83334   0.46179   0.76178   0.00000  Uiso   1.00
Zn1315 Zn    0.83333   0.55104   0.83333   0.00000  Uiso   1.00
Zn1316 Zn    0.83333   0.44896   0.83333   0.00000  Uiso   1.00
Br1317 Br    0.70862   0.40572   0.87357   0.00000  Uiso   1.00
Br1318 Br    0.95481   0.59930   0.80303   0.00000  Uiso   1.00
Br1319 Br    0.95805   0.40568   0.79312   0.00000  Uiso   1.00
Br1320 Br    0.71183   0.59933   0.86352   0.00000  Uiso   1.00
N1321  N     0.87893   0.38251   0.90601   0.00000  Uiso   1.00
H1322  H     0.86360   0.38569   0.93902   0.00000  Uiso   1.00
C1323  C     0.92391   0.37883   0.91084   0.00000  Uiso   1.00
H1324  H     0.93309   0.36230   0.94672   0.00000  Uiso   1.00
H1325  H     0.93771   0.41315   0.91078   0.00000  Uiso   1.00
H1326  H     0.93693   0.35907   0.87989   0.00000  Uiso   1.00
N1327  N     0.78489   0.61757   0.76331   0.00000  Uiso   1.00
H1328  H     0.75316   0.62191   0.76533   0.00000  Uiso   1.00
C1329  C     0.79957   0.61758   0.71294   0.00000  Uiso   1.00
H1330  H     0.79023   0.64887   0.69295   0.00000  Uiso   1.00
H1331  H     0.78555   0.58860   0.69219   0.00000  Uiso   1.00
H1332  H     0.83407   0.61419   0.71338   0.00000  Uiso   1.00
N1333  N     0.78774   0.38251   0.76065   0.00000  Uiso   1.00
H1334  H     0.80306   0.38564   0.72763   0.00000  Uiso   1.00
C1335  C     0.74276   0.37883   0.75583   0.00000  Uiso   1.00
H1336  H     0.73359   0.36220   0.71999   0.00000  Uiso   1.00
H1337  H     0.72895   0.41316   0.75578   0.00000  Uiso   1.00
H1338  H     0.72973   0.35915   0.78684   0.00000  Uiso   1.00
N1339  N     0.88177   0.61757   0.90336   0.00000  Uiso   1.00
H1340  H     0.91351   0.62188   0.90133   0.00000  Uiso   1.00
C1341  C     0.86709   0.61759   0.95373   0.00000  Uiso   1.00
H1342  H     0.87646   0.64889   0.97372   0.00000  Uiso   1.00
H1343  H     0.88110   0.58859   0.97448   0.00000  Uiso   1.00
H1344  H     0.83259   0.61423   0.95329   0.00000  Uiso   1.00
C1345  C     0.08688   0.83351   0.83895   0.00000  Uiso   1.00
C1346  C     0.24645   0.83351   0.82771   0.00000  Uiso   1.00
C1347  C     0.16650   0.83332   0.73955   0.00000  Uiso   1.00
C1348  C     0.16683   0.83332   0.92712   0.00000  Uiso   1.00
C1349  C     0.16662   0.83327   0.68845   0.00000  Uiso   1.00
C1350  C     0.16672   0.83328   0.97822   0.00000  Uiso   1.00
C1351  C     0.02040   0.79336   0.84218   0.00000  Uiso   1.00
C1352  C     0.31249   0.87591   0.82582   0.00000  Uiso   1.00
C1353  C     0.31294   0.79335   0.82445   0.00000  Uiso   1.00
C1354  C     0.02083   0.87592   0.84078   0.00000  Uiso   1.00
C1355  C     0.29108   0.83434   0.82233   0.00000  Uiso   1.00
C1356  C     0.04225   0.83435   0.84430   0.00000  Uiso   1.00
C1357  C     0.19058   0.69093   0.86791   0.00000  Uiso   1.00
C1358  C     0.14282   0.97582   0.79875   0.00000  Uiso   1.00
C1359  C     0.14275   0.69093   0.79876   0.00000  Uiso   1.00
C1360  C     0.19052   0.97581   0.86792   0.00000  Uiso   1.00
N1361  N     0.16667   0.95240   0.83333   0.00000  Uiso   1.00
N1362  N     0.16667   0.71427   0.83333   0.00000  Uiso   1.00
O1363  O     0.10559   0.87154   0.83333   0.00000  Uiso   1.00
O1364  O     0.22774   0.79513   0.83334   0.00000  Uiso   1.00
O1365  O     0.22774   0.87154   0.83334   0.00000  Uiso   1.00
O1366  O     0.10559   0.79513   0.83333   0.00000  Uiso   1.00
O1367  O     0.16667   0.87155   0.76178   0.00000  Uiso   1.00
O1368  O     0.16666   0.79512   0.90489   0.00000  Uiso   1.00
O1369  O     0.16666   0.87155   0.90489   0.00000  Uiso   1.00
O1370  O     0.16667   0.79512   0.76178   0.00000  Uiso   1.00
Zn1371 Zn    0.16667   0.88437   0.83333   0.00000  Uiso   1.00
Zn1372 Zn    0.16667   0.78229   0.83333   0.00000  Uiso   1.00
Br1373 Br    0.04195   0.73905   0.87357   0.00000  Uiso   1.00
Br1374 Br    0.28814   0.93263   0.80303   0.00000  Uiso   1.00
Br1375 Br    0.29138   0.73901   0.79312   0.00000  Uiso   1.00
Br1376 Br    0.04516   0.93266   0.86352   0.00000  Uiso   1.00
N1377  N     0.21227   0.71584   0.90601   0.00000  Uiso   1.00
H1378  H     0.19694   0.71902   0.93902   0.00000  Uiso   1.00
C1379  C     0.25724   0.71216   0.91084   0.00000  Uiso   1.00
H1380  H     0.26643   0.69564   0.94672   0.00000  Uiso   1.00
H1381  H     0.27104   0.74648   0.91078   0.00000  Uiso   1.00
H1382  H     0.27026   0.69240   0.87989   0.00000  Uiso   1.00
N1383  N     0.11822   0.95090   0.76331   0.00000  Uiso   1.00
H1384  H     0.08649   0.95524   0.76533   0.00000  Uiso   1.00
C1385  C     0.13290   0.95091   0.71294   0.00000  Uiso   1.00
H1386  H     0.12356   0.98221   0.69295   0.00000  Uiso   1.00
H1387  H     0.11888   0.92193   0.69219   0.00000  Uiso   1.00
H1388  H     0.16740   0.94753   0.71338   0.00000  Uiso   1.00
N1389  N     0.12107   0.71584   0.76065   0.00000  Uiso   1.00
H1390  H     0.13639   0.71897   0.72763   0.00000  Uiso   1.00
C1391  C     0.07609   0.71216   0.75583   0.00000  Uiso   1.00
H1392  H     0.06692   0.69553   0.71999   0.00000  Uiso   1.00
H1393  H     0.06228   0.74649   0.75578   0.00000  Uiso   1.00
H1394  H     0.06307   0.69248   0.78684   0.00000  Uiso   1.00
N1395  N     0.21510   0.95090   0.90336   0.00000  Uiso   1.00
H1396  H     0.24684   0.95521   0.90133   0.00000  Uiso   1.00
C1397  C     0.20043   0.95093   0.95373   0.00000  Uiso   1.00
H1398  H     0.20979   0.98222   0.97372   0.00000  Uiso   1.00
H1399  H     0.21443   0.92193   0.97448   0.00000  Uiso   1.00
H1400  H     0.16592   0.94757   0.95329   0.00000  Uiso   1.00
C1401  C     0.42021   0.83351   0.83895   0.00000  Uiso   1.00
C1402  C     0.57979   0.83351   0.82771   0.00000  Uiso   1.00
C1403  C     0.49984   0.83332   0.73955   0.00000  Uiso   1.00
C1404  C     0.50016   0.83332   0.92712   0.00000  Uiso   1.00
C1405  C     0.49995   0.83327   0.68845   0.00000  Uiso   1.00
C1406  C     0.50005   0.83328   0.97822   0.00000  Uiso   1.00
C1407  C     0.35373   0.79336   0.84218   0.00000  Uiso   1.00
C1408  C     0.64582   0.87591   0.82582   0.00000  Uiso   1.00
C1409  C     0.64627   0.79335   0.82445   0.00000  Uiso   1.00
C1410  C     0.35416   0.87592   0.84078   0.00000  Uiso   1.00
C1411  C     0.62441   0.83434   0.82233   0.00000  Uiso   1.00
C1412  C     0.37558   0.83435   0.84430   0.00000  Uiso   1.00
C1413  C     0.52392   0.69093   0.86791   0.00000  Uiso   1.00
C1414  C     0.47615   0.97582   0.79875   0.00000  Uiso   1.00
C1415  C     0.47608   0.69093   0.79876   0.00000  Uiso   1.00
C1416  C     0.52385   0.97581   0.86792   0.00000  Uiso   1.00
N1417  N     0.50000   0.95240   0.83333   0.00000  Uiso   1.00
N1418  N     0.50000   0.71427   0.83333   0.00000  Uiso   1.00
O1419  O     0.43892   0.87154   0.83333   0.00000  Uiso   1.00
O1420  O     0.56108   0.79513   0.83334   0.00000  Uiso   1.00
O1421  O     0.56108   0.87154   0.83334   0.00000  Uiso   1.00
O1422  O     0.43892   0.79513   0.83333   0.00000  Uiso   1.00
O1423  O     0.50000   0.87155   0.76178   0.00000  Uiso   1.00
O1424  O     0.50000   0.79512   0.90489   0.00000  Uiso   1.00
O1425  O     0.50000   0.87155   0.90489   0.00000  Uiso   1.00
O1426  O     0.50000   0.79512   0.76178   0.00000  Uiso   1.00
Zn1427 Zn    0.50000   0.88437   0.83333   0.00000  Uiso   1.00
Zn1428 Zn    0.50000   0.78229   0.83333   0.00000  Uiso   1.00
Br1429 Br    0.37529   0.73905   0.87357   0.00000  Uiso   1.00
Br1430 Br    0.62148   0.93263   0.80303   0.00000  Uiso   1.00
Br1431 Br    0.62471   0.73901   0.79312   0.00000  Uiso   1.00
Br1432 Br    0.37850   0.93266   0.86352   0.00000  Uiso   1.00
N1433  N     0.54560   0.71584   0.90601   0.00000  Uiso   1.00
H1434  H     0.53027   0.71902   0.93902   0.00000  Uiso   1.00
C1435  C     0.59058   0.71216   0.91084   0.00000  Uiso   1.00
H1436  H     0.59976   0.69564   0.94672   0.00000  Uiso   1.00
H1437  H     0.60438   0.74648   0.91078   0.00000  Uiso   1.00
H1438  H     0.60359   0.69240   0.87989   0.00000  Uiso   1.00
N1439  N     0.45156   0.95090   0.76331   0.00000  Uiso   1.00
H1440  H     0.41982   0.95524   0.76533   0.00000  Uiso   1.00
C1441  C     0.46624   0.95091   0.71294   0.00000  Uiso   1.00
H1442  H     0.45690   0.98221   0.69295   0.00000  Uiso   1.00
H1443  H     0.45221   0.92193   0.69219   0.00000  Uiso   1.00
H1444  H     0.50073   0.94753   0.71338   0.00000  Uiso   1.00
N1445  N     0.45440   0.71584   0.76065   0.00000  Uiso   1.00
H1446  H     0.46972   0.71897   0.72763   0.00000  Uiso   1.00
C1447  C     0.40942   0.71216   0.75583   0.00000  Uiso   1.00
H1448  H     0.40025   0.69553   0.71999   0.00000  Uiso   1.00
H1449  H     0.39561   0.74649   0.75578   0.00000  Uiso   1.00
H1450  H     0.39640   0.69248   0.78684   0.00000  Uiso   1.00
N1451  N     0.54844   0.95090   0.90336   0.00000  Uiso   1.00
H1452  H     0.58017   0.95521   0.90133   0.00000  Uiso   1.00
C1453  C     0.53376   0.95093   0.95373   0.00000  Uiso   1.00
H1454  H     0.54313   0.98222   0.97372   0.00000  Uiso   1.00
H1455  H     0.54777   0.92193   0.97448   0.00000  Uiso   1.00
H1456  H     0.49926   0.94757   0.95329   0.00000  Uiso   1.00
C1457  C     0.75354   0.83351   0.83895   0.00000  Uiso   1.00
C1458  C     0.91312   0.83351   0.82771   0.00000  Uiso   1.00
C1459  C     0.83317   0.83332   0.73955   0.00000  Uiso   1.00
C1460  C     0.83350   0.83332   0.92712   0.00000  Uiso   1.00
C1461  C     0.83328   0.83327   0.68845   0.00000  Uiso   1.00
C1462  C     0.83338   0.83328   0.97822   0.00000  Uiso   1.00
C1463  C     0.68707   0.79336   0.84218   0.00000  Uiso   1.00
C1464  C     0.97916   0.87591   0.82582   0.00000  Uiso   1.00
C1465  C     0.97960   0.79335   0.82445   0.00000  Uiso   1.00
C1466  C     0.68750   0.87592   0.84078   0.00000  Uiso   1.00
C1467  C     0.95775   0.83434   0.82233   0.00000  Uiso   1.00
C1468  C     0.70891   0.83435   0.84430   0.00000  Uiso   1.00
C1469  C     0.85725   0.69093   0.86791   0.00000  Uiso   1.00
C1470  C     0.80948   0.97582   0.79875   0.00000  Uiso   1.00
C1471  C     0.80942   0.69093   0.79876   0.00000  Uiso   1.00
C1472  C     0.85718   0.97581   0.86792   0.00000  Uiso   1.00
N1473  N     0.83333   0.95240   0.83333   0.00000  Uiso   1.00
N1474  N     0.83333   0.71427   0.83333   0.00000  Uiso   1.00
O1475  O     0.77226   0.87154   0.83333   0.00000  Uiso   1.00
O1476  O     0.89441   0.79513   0.83334   0.00000  Uiso   1.00
O1477  O     0.89441   0.87154   0.83334   0.00000  Uiso   1.00
O1478  O     0.77226   0.79513   0.83333   0.00000  Uiso   1.00
O1479  O     0.83334   0.87155   0.76178   0.00000  Uiso   1.00
O1480  O     0.83333   0.79512   0.90489   0.00000  Uiso   1.00
O1481  O     0.83333   0.87155   0.90489   0.00000  Uiso   1.00
O1482  O     0.83334   0.79512   0.76178   0.00000  Uiso   1.00
Zn1483 Zn    0.83333   0.88437   0.83333   0.00000  Uiso   1.00
Zn1484 Zn    0.83333   0.78229   0.83333   0.00000  Uiso   1.00
Br1485 Br    0.70862   0.73905   0.87357   0.00000  Uiso   1.00
Br1486 Br    0.95481   0.93263   0.80303   0.00000  Uiso   1.00
Br1487 Br    0.95805   0.73901   0.79312   0.00000  Uiso   1.00
Br1488 Br    0.71183   0.93266   0.86352   0.00000  Uiso   1.00
N1489  N     0.87893   0.71584   0.90601   0.00000  Uiso   1.00
H1490  H     0.86360   0.71902   0.93902   0.00000  Uiso   1.00
C1491  C     0.92391   0.71216   0.91084   0.00000  Uiso   1.00
H1492  H     0.93309   0.69564   0.94672   0.00000  Uiso   1.00
H1493  H     0.93771   0.74648   0.91078   0.00000  Uiso   1.00
H1494  H     0.93693   0.69240   0.87989   0.00000  Uiso   1.00
N1495  N     0.78489   0.95090   0.76331   0.00000  Uiso   1.00
H1496  H     0.75316   0.95524   0.76533   0.00000  Uiso   1.00
C1497  C     0.79957   0.95091   0.71294   0.00000  Uiso   1.00
H1498  H     0.79023   0.98221   0.69295   0.00000  Uiso   1.00
H1499  H     0.78555   0.92193   0.69219   0.00000  Uiso   1.00
H1500  H     0.83407   0.94753   0.71338   0.00000  Uiso   1.00
N1501  N     0.78774   0.71584   0.76065   0.00000  Uiso   1.00
H1502  H     0.80306   0.71897   0.72763   0.00000  Uiso   1.00
C1503  C     0.74276   0.71216   0.75583   0.00000  Uiso   1.00
H1504  H     0.73359   0.69553   0.71999   0.00000  Uiso   1.00
H1505  H     0.72895   0.74649   0.75578   0.00000  Uiso   1.00
H1506  H     0.72973   0.69248   0.78684   0.00000  Uiso   1.00
N1507  N     0.88177   0.95090   0.90336   0.00000  Uiso   1.00
H1508  H     0.91351   0.95521   0.90133   0.00000  Uiso   1.00
C1509  C     0.86709   0.95093   0.95373   0.00000  Uiso   1.00
H1510  H     0.87646   0.98222   0.97372   0.00000  Uiso   1.00
H1511  H     0.88110   0.92193   0.97448   0.00000  Uiso   1.00
H1512  H     0.83259   0.94757   0.95329   0.00000  Uiso   1.00
loop_
_geom_bond_atom_site_label_1
_geom_bond_atom_site_label_2
_geom_bond_distance
_geom_bond_site_symmetry_2
_ccdc_geom_bond_type
C1     O22     1.297   .     A
C1     C12     1.443   .     S
C1     O19     1.288   .     A
C2     O21     1.288   .     A
C2     C11     1.443   .     S
C2     O20     1.297   .     A
C3     O26     1.279   .     A
C3     O23     1.279   .     A
C3     C5      1.369   .     S
C4     O25     1.279   .     A
C4     O24     1.279   .     A
C4     C6      1.369   .     S
C5     C1014   1.167   1_554 S
C6     C509    1.167   .     S
C7     Br29    1.933   .     S
C7     C12     1.402   .     A
C7     C121    1.377   1_455 S
C8     Br30    1.943   .     S
C8     C11     1.411   .     A
C8     C66     1.382   .     S
C9     C11     1.402   .     A
C9     Br31    1.933   .     S
C9     C63     1.377   .     S
C10    C12     1.411   .     A
C10    Br32    1.943   .     S
C10    C120    1.382   1_455 S
C13    N33     1.422   .     S
C13    N18     1.370   .     A
C13    C352    1.435   1_545 S
C14    N17     1.370   .     A
C14    N39     1.421   .     S
C14    C183    1.435   .     S
C15    N18     1.370   .     A
C15    N45     1.422   .     S
C15    C350    1.435   1_545 S
C16    N51     1.421   .     S
C16    N17     1.370   .     A
C16    C181    1.435   .     S
N17    Zn27    2.015   .     S
N18    Zn28    2.015   .     S
O19    Zn27    1.995   .     S
O20    Zn28    1.995   .     S
O21    Zn27    1.995   .     S
O22    Zn28    1.995   .     S
O23    Zn27    1.955   .     S
O24    Zn28    1.955   .     S
O25    Zn27    1.955   .     S
O26    Zn28    1.955   .     S
N33    H34     1.031   .     S
N33    C35     1.448   .     S
C35    H36     1.110   .     S
C35    H38     1.108   .     S
C35    H37     1.109   .     S
N39    C41     1.444   .     S
N39    H40     1.029   .     S
C41    H42     1.107   .     S
C41    H43     1.110   .     S
C41    H44     1.110   .     S
N45    H46     1.031   .     S
N45    C47     1.448   .     S
C47    H49     1.109   .     S
C47    H50     1.108   .     S
C47    H48     1.110   .     S
N51    C53     1.444   .     S
N51    H52     1.029   .     S
C53    H56     1.110   .     S
C53    H55     1.110   .     S
C53    H54     1.107   .     S
C57    O78     1.297   .     A
C57    C68     1.443   .     S
C57    O75     1.288   .     A
C58    O77     1.288   .     A
C58    C67     1.443   .     S
C58    O76     1.297   .     A
C59    O82     1.279   .     A
C59    O79     1.279   .     A
C59    C61     1.369   .     S
C60    O81     1.279   .     A
C60    O80     1.279   .     A
C60    C62     1.369   .     S
C61    C1070   1.167   1_554 S
C62    C565    1.167   .     S
C63    Br85    1.933   .     S
C63    C68     1.402   .     A
C64    Br86    1.943   .     S
C64    C67     1.411   .     A
C64    C122    1.382   .     S
C65    C67     1.402   .     A
C65    Br87    1.933   .     S
C65    C119    1.377   .     S
C66    C68     1.411   .     A
C66    Br88    1.943   .     S
C69    N89     1.422   .     S
C69    N74     1.370   .     A
C69    C408    1.435   1_545 S
C70    N73     1.370   .     A
C70    N95     1.421   .     S
C70    C239    1.435   .     S
C71    N74     1.370   .     A
C71    N101    1.422   .     S
C71    C406    1.435   1_545 S
C72    N107    1.421   .     S
C72    N73     1.370   .     A
C72    C237    1.435   .     S
N73    Zn83    2.015   .     S
N74    Zn84    2.015   .     S
O75    Zn83    1.995   .     S
O76    Zn84    1.995   .     S
O77    Zn83    1.995   .     S
O78    Zn84    1.995   .     S
O79    Zn83    1.955   .     S
O80    Zn84    1.955   .     S
O81    Zn83    1.955   .     S
O82    Zn84    1.955   .     S
N89    H90     1.031   .     S
N89    C91     1.448   .     S
C91    H92     1.110   .     S
C91    H94     1.108   .     S
C91    H93     1.109   .     S
N95    C97     1.444   .     S
N95    H96     1.029   .     S
C97    H98     1.107   .     S
C97    H99     1.110   .     S
C97    H100    1.110   .     S
N101   H102    1.031   .     S
N101   C103    1.448   .     S
C103   H105    1.109   .     S
C103   H106    1.108   .     S
C103   H104    1.110   .     S
N107   C109    1.444   .     S
N107   H108    1.029   .     S
C109   H112    1.110   .     S
C109   H111    1.110   .     S
C109   H110    1.107   .     S
C113   O134    1.297   .     A
C113   C124    1.443   .     S
C113   O131    1.288   .     A
C114   O133    1.288   .     A
C114   C123    1.443   .     S
C114   O132    1.297   .     A
C115   O138    1.279   .     A
C115   O135    1.279   .     A
C115   C117    1.369   .     S
C116   O137    1.279   .     A
C116   O136    1.279   .     A
C116   C118    1.369   .     S
C117   C1126   1.167   1_554 S
C118   C621    1.167   .     S
C119   Br141   1.933   .     S
C119   C124    1.402   .     A
C120   Br142   1.943   .     S
C120   C123    1.411   .     A
C120   C10     1.382   1_655 S
C121   C123    1.402   .     A
C121   Br143   1.933   .     S
C121   C7      1.377   1_655 S
C122   C124    1.411   .     A
C122   Br144   1.943   .     S
C125   N145    1.422   .     S
C125   N130    1.370   .     A
C125   C464    1.435   1_545 S
C126   N129    1.370   .     A
C126   N151    1.421   .     S
C126   C295    1.435   .     S
C127   N130    1.370   .     A
C127   N157    1.422   .     S
C127   C462    1.435   1_545 S
C128   N163    1.421   .     S
C128   N129    1.370   .     A
C128   C293    1.435   .     S
N129   Zn139   2.015   .     S
N130   Zn140   2.015   .     S
O131   Zn139   1.995   .     S
O132   Zn140   1.995   .     S
O133   Zn139   1.995   .     S
O134   Zn140   1.995   .     S
O135   Zn139   1.955   .     S
O136   Zn140   1.955   .     S
O137   Zn139   1.955   .     S
O138   Zn140   1.955   .     S
N145   H146    1.031   .     S
N145   C147    1.448   .     S
C147   H148    1.110   .     S
C147   H150    1.108   .     S
C147   H149    1.109   .     S
N151   C153    1.444   .     S
N151   H152    1.029   .     S
C153   H154    1.107   .     S
C153   H155    1.110   .     S
C153   H156    1.110   .     S
N157   H158    1.031   .     S
N157   C159    1.448   .     S
C159   H161    1.109   .     S
C159   H162    1.108   .     S
C159   H160    1.110   .     S
N163   C165    1.444   .     S
N163   H164    1.029   .     S
C165   H168    1.110   .     S
C165   H167    1.110   .     S
C165   H166    1.107   .     S
C169   O190    1.297   .     A
C169   C180    1.443   .     S
C169   O187    1.288   .     A
C170   O189    1.288   .     A
C170   C179    1.443   .     S
C170   O188    1.297   .     A
C171   O194    1.279   .     A
C171   O191    1.279   .     A
C171   C173    1.369   .     S
C172   O193    1.279   .     A
C172   O192    1.279   .     A
C172   C174    1.369   .     S
C173   C1182   1.167   1_554 S
C174   C677    1.167   .     S
C175   Br197   1.933   .     S
C175   C180    1.402   .     A
C175   C289    1.377   1_455 S
C176   Br198   1.943   .     S
C176   C179    1.411   .     A
C176   C234    1.382   .     S
C177   C179    1.402   .     A
C177   Br199   1.933   .     S
C177   C231    1.377   .     S
C178   C180    1.411   .     A
C178   Br200   1.943   .     S
C178   C288    1.382   1_455 S
C181   N201    1.422   .     S
C181   N186    1.370   .     A
C182   N185    1.370   .     A
C182   N207    1.421   .     S
C182   C351    1.435   .     S
C183   N186    1.370   .     A
C183   N213    1.422   .     S
C184   N219    1.421   .     S
C184   N185    1.370   .     A
C184   C349    1.435   .     S
N185   Zn195   2.015   .     S
N186   Zn196   2.015   .     S
O187   Zn195   1.995   .     S
O188   Zn196   1.995   .     S
O189   Zn195   1.995   .     S
O190   Zn196   1.995   .     S
O191   Zn195   1.955   .     S
O192   Zn196   1.955   .     S
O193   Zn195   1.955   .     S
O194   Zn196   1.955   .     S
N201   H202    1.031   .     S
N201   C203    1.448   .     S
C203   H204    1.110   .     S
C203   H206    1.108   .     S
C203   H205    1.109   .     S
N207   C209    1.444   .     S
N207   H208    1.029   .     S
C209   H210    1.107   .     S
C209   H211    1.110   .     S
C209   H212    1.110   .     S
N213   H214    1.031   .     S
N213   C215    1.448   .     S
C215   H217    1.109   .     S
C215   H218    1.108   .     S
C215   H216    1.110   .     S
N219   C221    1.444   .     S
N219   H220    1.029   .     S
C221   H224    1.110   .     S
C221   H223    1.110   .     S
C221   H222    1.107   .     S
C225   O246    1.297   .     A
C225   C236    1.443   .     S
C225   O243    1.288   .     A
C226   O245    1.288   .     A
C226   C235    1.443   .     S
C226   O244    1.297   .     A
C227   O250    1.279   .     A
C227   O247    1.279   .     A
C227   C229    1.369   .     S
C228   O249    1.279   .     A
C228   O248    1.279   .     A
C228   C230    1.369   .     S
C229   C1238   1.167   1_554 S
C230   C733    1.167   .     S
C231   Br253   1.933   .     S
C231   C236    1.402   .     A
C232   Br254   1.943   .     S
C232   C235    1.411   .     A
C232   C290    1.382   .     S
C233   C235    1.402   .     A
C233   Br255   1.933   .     S
C233   C287    1.377   .     S
C234   C236    1.411   .     A
C234   Br256   1.943   .     S
C237   N257    1.422   .     S
C237   N242    1.370   .     A
C238   N241    1.370   .     A
C238   N263    1.421   .     S
C238   C407    1.435   .     S
C239   N242    1.370   .     A
C239   N269    1.422   .     S
C240   N275    1.421   .     S
C240   N241    1.370   .     A
C240   C405    1.435   .     S
N241   Zn251   2.015   .     S
N242   Zn252   2.015   .     S
O243   Zn251   1.995   .     S
O244   Zn252   1.995   .     S
O245   Zn251   1.995   .     S
O246   Zn252   1.995   .     S
O247   Zn251   1.955   .     S
O248   Zn252   1.955   .     S
O249   Zn251   1.955   .     S
O250   Zn252   1.955   .     S
N257   H258    1.031   .     S
N257   C259    1.448   .     S
C259   H260    1.110   .     S
C259   H262    1.108   .     S
C259   H261    1.109   .     S
N263   C265    1.444   .     S
N263   H264    1.029   .     S
C265   H266    1.107   .     S
C265   H267    1.110   .     S
C265   H268    1.110   .     S
N269   H270    1.031   .     S
N269   C271    1.448   .     S
C271   H273    1.109   .     S
C271   H274    1.108   .     S
C271   H272    1.110   .     S
N275   C277    1.444   .     S
N275   H276    1.029   .     S
C277   H280    1.110   .     S
C277   H279    1.110   .     S
C277   H278    1.107   .     S
C281   O302    1.297   .     A
C281   C292    1.443   .     S
C281   O299    1.288   .     A
C282   O301    1.288   .     A
C282   C291    1.443   .     S
C282   O300    1.297   .     A
C283   O306    1.279   .     A
C283   O303    1.279   .     A
C283   C285    1.369   .     S
C284   O305    1.279   .     A
C284   O304    1.279   .     A
C284   C286    1.369   .     S
C285   C1294   1.167   1_554 S
C286   C789    1.167   .     S
C287   Br309   1.933   .     S
C287   C292    1.402   .     A
C288   Br310   1.943   .     S
C288   C291    1.411   .     A
C288   C178    1.382   1_655 S
C289   C291    1.402   .     A
C289   Br311   1.933   .     S
C289   C175    1.377   1_655 S
C290   C292    1.411   .     A
C290   Br312   1.943   .     S
C293   N313    1.422   .     S
C293   N298    1.370   .     A
C294   N297    1.370   .     A
C294   N319    1.421   .     S
C294   C463    1.435   .     S
C295   N298    1.370   .     A
C295   N325    1.422   .     S
C296   N331    1.421   .     S
C296   N297    1.370   .     A
C296   C461    1.435   .     S
N297   Zn307   2.015   .     S
N298   Zn308   2.015   .     S
O299   Zn307   1.995   .     S
O300   Zn308   1.995   .     S
O301   Zn307   1.995   .     S
O302   Zn308   1.995   .     S
O303   Zn307   1.955   .     S
O304   Zn308   1.955   .     S
O305   Zn307   1.955   .     S
O306   Zn308   1.955   .     S
N313   H314    1.031   .     S
N313   C315    1.448   .     S
C315   H316    1.110   .     S
C315   H318    1.108   .     S
C315   H317    1.109   .     S
N319   C321    1.444   .     S
N319   H320    1.029   .     S
C321   H322    1.107   .     S
C321   H323    1.110   .     S
C321   H324    1.110   .     S
N325   H326    1.031   .     S
N325   C327    1.448   .     S
C327   H329    1.109   .     S
C327   H330    1.108   .     S
C327   H328    1.110   .     S
N331   C333    1.444   .     S
N331   H332    1.029   .     S
C333   H336    1.110   .     S
C333   H335    1.110   .     S
C333   H334    1.107   .     S
C337   O358    1.297   .     A
C337   C348    1.443   .     S
C337   O355    1.288   .     A
C338   O357    1.288   .     A
C338   C347    1.443   .     S
C338   O356    1.297   .     A
C339   O362    1.279   .     A
C339   O359    1.279   .     A
C339   C341    1.369   .     S
C340   O361    1.279   .     A
C340   O360    1.279   .     A
C340   C342    1.369   .     S
C341   C1350   1.167   1_554 S
C342   C845    1.167   .     S
C343   Br365   1.933   .     S
C343   C348    1.402   .     A
C343   C457    1.377   1_455 S
C344   Br366   1.943   .     S
C344   C347    1.411   .     A
C344   C402    1.382   .     S
C345   C347    1.402   .     A
C345   Br367   1.933   .     S
C345   C399    1.377   .     S
C346   C348    1.411   .     A
C346   Br368   1.943   .     S
C346   C456    1.382   1_455 S
C349   N369    1.422   .     S
C349   N354    1.370   .     A
C350   N353    1.370   .     A
C350   N375    1.421   .     S
C350   C15     1.435   1_565 S
C351   N354    1.370   .     A
C351   N381    1.422   .     S
C352   N387    1.421   .     S
C352   N353    1.370   .     A
C352   C13     1.435   1_565 S
N353   Zn363   2.015   .     S
N354   Zn364   2.015   .     S
O355   Zn363   1.995   .     S
O356   Zn364   1.995   .     S
O357   Zn363   1.995   .     S
O358   Zn364   1.995   .     S
O359   Zn363   1.955   .     S
O360   Zn364   1.955   .     S
O361   Zn363   1.955   .     S
O362   Zn364   1.955   .     S
N369   H370    1.031   .     S
N369   C371    1.448   .     S
C371   H372    1.110   .     S
C371   H374    1.108   .     S
C371   H373    1.109   .     S
N375   C377    1.444   .     S
N375   H376    1.029   .     S
C377   H378    1.107   .     S
C377   H379    1.110   .     S
C377   H380    1.110   .     S
N381   H382    1.031   .     S
N381   C383    1.448   .     S
C383   H385    1.109   .     S
C383   H386    1.108   .     S
C383   H384    1.110   .     S
N387   C389    1.444   .     S
N387   H388    1.029   .     S
C389   H392    1.110   .     S
C389   H391    1.110   .     S
C389   H390    1.107   .     S
C393   O414    1.297   .     A
C393   C404    1.443   .     S
C393   O411    1.288   .     A
C394   O413    1.288   .     A
C394   C403    1.443   .     S
C394   O412    1.297   .     A
C395   O418    1.279   .     A
C395   O415    1.279   .     A
C395   C397    1.369   .     S
C396   O417    1.279   .     A
C396   O416    1.279   .     A
C396   C398    1.369   .     S
C397   C1406   1.167   1_554 S
C398   C901    1.167   .     S
C399   Br421   1.933   .     S
C399   C404    1.402   .     A
C400   Br422   1.943   .     S
C400   C403    1.411   .     A
C400   C458    1.382   .     S
C401   C403    1.402   .     A
C401   Br423   1.933   .     S
C401   C455    1.377   .     S
C402   C404    1.411   .     A
C402   Br424   1.943   .     S
C405   N425    1.422   .     S
C405   N410    1.370   .     A
C406   N409    1.370   .     A
C406   N431    1.421   .     S
C406   C71     1.435   1_565 S
C407   N410    1.370   .     A
C407   N437    1.422   .     S
C408   N443    1.421   .     S
C408   N409    1.370   .     A
C408   C69     1.435   1_565 S
N409   Zn419   2.015   .     S
N410   Zn420   2.015   .     S
O411   Zn419   1.995   .     S
O412   Zn420   1.995   .     S
O413   Zn419   1.995   .     S
O414   Zn420   1.995   .     S
O415   Zn419   1.955   .     S
O416   Zn420   1.955   .     S
O417   Zn419   1.955   .     S
O418   Zn420   1.955   .     S
N425   H426    1.031   .     S
N425   C427    1.448   .     S
C427   H428    1.110   .     S
C427   H430    1.108   .     S
C427   H429    1.109   .     S
N431   C433    1.444   .     S
N431   H432    1.029   .     S
C433   H434    1.107   .     S
C433   H435    1.110   .     S
C433   H436    1.110   .     S
N437   H438    1.031   .     S
N437   C439    1.448   .     S
C439   H441    1.109   .     S
C439   H442    1.108   .     S
C439   H440    1.110   .     S
N443   C445    1.444   .     S
N443   H444    1.029   .     S
C445   H448    1.110   .     S
C445   H447    1.110   .     S
C445   H446    1.107   .     S
C449   O470    1.297   .     A
C449   C460    1.443   .     S
C449   O467    1.288   .     A
C450   O469    1.288   .     A
C450   C459    1.443   .     S
C450   O468    1.297   .     A
C451   O474    1.279   .     A
C451   O471    1.279   .     A
C451   C453    1.369   .     S
C452   O473    1.279   .     A
C452   O472    1.279   .     A
C452   C454    1.369   .     S
C453   C1462   1.167   1_554 S
C454   C957    1.167   .     S
C455   Br477   1.933   .     S
C455   C460    1.402   .     A
C456   Br478   1.943   .     S
C456   C459    1.411   .     A
C456   C346    1.382   1_655 S
C457   C459    1.402   .     A
C457   Br479   1.933   .     S
C457   C343    1.377   1_655 S
C458   C460    1.411   .     A
C458   Br480   1.943   .     S
C461   N481    1.422   .     S
C461   N466    1.370   .     A
C462   N465    1.370   .     A
C462   N487    1.421   .     S
C462   C127    1.435   1_565 S
C463   N466    1.370   .     A
C463   N493    1.422   .     S
C464   N499    1.421   .     S
C464   N465    1.370   .     A
C464   C125    1.435   1_565 S
N465   Zn475   2.015   .     S
N466   Zn476   2.015   .     S
O467   Zn475   1.995   .     S
O468   Zn476   1.995   .     S
O469   Zn475   1.995   .     S
O470   Zn476   1.995   .     S
O471   Zn475   1.955   .     S
O472   Zn476   1.955   .     S
O473   Zn475   1.955   .     S
O474   Zn476   1.955   .     S
N481   H482    1.031   .     S
N481   C483    1.448   .     S
C483   H484    1.110   .     S
C483   H486    1.108   .     S
C483   H485    1.109   .     S
N487   C489    1.444   .     S
N487   H488    1.029   .     S
C489   H490    1.107   .     S
C489   H491    1.110   .     S
C489   H492    1.110   .     S
N493   H494    1.031   .     S
N493   C495    1.448   .     S
C495   H497    1.109   .     S
C495   H498    1.108   .     S
C495   H496    1.110   .     S
N499   C501    1.444   .     S
N499   H500    1.029   .     S
C501   H504    1.110   .     S
C501   H503    1.110   .     S
C501   H502    1.107   .     S
C505   O526    1.297   .     A
C505   C516    1.443   .     S
C505   O523    1.288   .     A
C506   O525    1.288   .     A
C506   C515    1.443   .     S
C506   O524    1.297   .     A
C507   O530    1.279   .     A
C507   O527    1.279   .     A
C507   C509    1.369   .     S
C508   O529    1.279   .     A
C508   O528    1.279   .     A
C508   C510    1.369   .     S
C510   C1013   1.167   .     S
C511   Br533   1.933   .     S
C511   C516    1.402   .     A
C511   C625    1.377   1_455 S
C512   Br534   1.943   .     S
C512   C515    1.411   .     A
C512   C570    1.382   .     S
C513   C515    1.402   .     A
C513   Br535   1.933   .     S
C513   C567    1.377   .     S
C514   C516    1.411   .     A
C514   Br536   1.943   .     S
C514   C624    1.382   1_455 S
C517   N537    1.422   .     S
C517   N522    1.370   .     A
C517   C856    1.435   1_545 S
C518   N521    1.370   .     A
C518   N543    1.421   .     S
C518   C687    1.435   .     S
C519   N522    1.370   .     A
C519   N549    1.422   .     S
C519   C854    1.435   1_545 S
C520   N555    1.421   .     S
C520   N521    1.370   .     A
C520   C685    1.435   .     S
N521   Zn531   2.015   .     S
N522   Zn532   2.015   .     S
O523   Zn531   1.995   .     S
O524   Zn532   1.995   .     S
O525   Zn531   1.995   .     S
O526   Zn532   1.995   .     S
O527   Zn531   1.955   .     S
O528   Zn532   1.955   .     S
O529   Zn531   1.955   .     S
O530   Zn532   1.955   .     S
N537   H538    1.031   .     S
N537   C539    1.448   .     S
C539   H540    1.110   .     S
C539   H542    1.108   .     S
C539   H541    1.109   .     S
N543   C545    1.444   .     S
N543   H544    1.029   .     S
C545   H546    1.107   .     S
C545   H547    1.110   .     S
C545   H548    1.110   .     S
N549   H550    1.031   .     S
N549   C551    1.448   .     S
C551   H553    1.109   .     S
C551   H554    1.108   .     S
C551   H552    1.110   .     S
N555   C557    1.444   .     S
N555   H556    1.029   .     S
C557   H560    1.110   .     S
C557   H559    1.110   .     S
C557   H558    1.107   .     S
C561   O582    1.297   .     A
C561   C572    1.443   .     S
C561   O579    1.288   .     A
C562   O581    1.288   .     A
C562   C571    1.443   .     S
C562   O580    1.297   .     A
C563   O586    1.279   .     A
C563   O583    1.279   .     A
C563   C565    1.369   .     S
C564   O585    1.279   .     A
C564   O584    1.279   .     A
C564   C566    1.369   .     S
C566   C1069   1.167   .     S
C567   Br589   1.933   .     S
C567   C572    1.402   .     A
C568   Br590   1.943   .     S
C568   C571    1.411   .     A
C568   C626    1.382   .     S
C569   C571    1.402   .     A
C569   Br591   1.933   .     S
C569   C623    1.377   .     S
C570   C572    1.411   .     A
C570   Br592   1.943   .     S
C573   N593    1.422   .     S
C573   N578    1.370   .     A
C573   C912    1.435   1_545 S
C574   N577    1.370   .     A
C574   N599    1.421   .     S
C574   C743    1.435   .     S
C575   N578    1.370   .     A
C575   N605    1.422   .     S
C575   C910    1.435   1_545 S
C576   N611    1.421   .     S
C576   N577    1.370   .     A
C576   C741    1.435   .     S
N577   Zn587   2.015   .     S
N578   Zn588   2.015   .     S
O579   Zn587   1.995   .     S
O580   Zn588   1.995   .     S
O581   Zn587   1.995   .     S
O582   Zn588   1.995   .     S
O583   Zn587   1.955   .     S
O584   Zn588   1.955   .     S
O585   Zn587   1.955   .     S
O586   Zn588   1.955   .     S
N593   H594    1.031   .     S
N593   C595    1.448   .     S
C595   H596    1.110   .     S
C595   H598    1.108   .     S
C595   H597    1.109   .     S
N599   C601    1.444   .     S
N599   H600    1.029   .     S
C601   H602    1.107   .     S
C601   H603    1.110   .     S
C601   H604    1.110   .     S
N605   H606    1.031   .     S
N605   C607    1.448   .     S
C607   H609    1.109   .     S
C607   H610    1.108   .     S
C607   H608    1.110   .     S
N611   C613    1.444   .     S
N611   H612    1.029   .     S
C613   H616    1.110   .     S
C613   H615    1.110   .     S
C613   H614    1.107   .     S
C617   O638    1.297   .     A
C617   C628    1.443   .     S
C617   O635    1.288   .     A
C618   O637    1.288   .     A
C618   C627    1.443   .     S
C618   O636    1.297   .     A
C619   O642    1.279   .     A
C619   O639    1.279   .     A
C619   C621    1.369   .     S
C620   O641    1.279   .     A
C620   O640    1.279   .     A
C620   C622    1.369   .     S
C622   C1125   1.167   .     S
C623   Br645   1.933   .     S
C623   C628    1.402   .     A
C624   Br646   1.943   .     S
C624   C627    1.411   .     A
C624   C514    1.382   1_655 S
C625   C627    1.402   .     A
C625   Br647   1.933   .     S
C625   C511    1.377   1_655 S
C626   C628    1.411   .     A
C626   Br648   1.943   .     S
C629   N649    1.422   .     S
C629   N634    1.370   .     A
C629   C968    1.435   1_545 S
C630   N633    1.370   .     A
C630   N655    1.421   .     S
C630   C799    1.435   .     S
C631   N634    1.370   .     A
C631   N661    1.422   .     S
C631   C966    1.435   1_545 S
C632   N667    1.421   .     S
C632   N633    1.370   .     A
C632   C797    1.435   .     S
N633   Zn643   2.015   .     S
N634   Zn644   2.015   .     S
O635   Zn643   1.995   .     S
O636   Zn644   1.995   .     S
O637   Zn643   1.995   .     S
O638   Zn644   1.995   .     S
O639   Zn643   1.955   .     S
O640   Zn644   1.955   .     S
O641   Zn643   1.955   .     S
O642   Zn644   1.955   .     S
N649   H650    1.031   .     S
N649   C651    1.448   .     S
C651   H652    1.110   .     S
C651   H654    1.108   .     S
C651   H653    1.109   .     S
N655   C657    1.444   .     S
N655   H656    1.029   .     S
C657   H658    1.107   .     S
C657   H659    1.110   .     S
C657   H660    1.110   .     S
N661   H662    1.031   .     S
N661   C663    1.448   .     S
C663   H665    1.109   .     S
C663   H666    1.108   .     S
C663   H664    1.110   .     S
N667   C669    1.444   .     S
N667   H668    1.029   .     S
C669   H672    1.110   .     S
C669   H671    1.110   .     S
C669   H670    1.107   .     S
C673   O694    1.297   .     A
C673   C684    1.443   .     S
C673   O691    1.288   .     A
C674   O693    1.288   .     A
C674   C683    1.443   .     S
C674   O692    1.297   .     A
C675   O698    1.279   .     A
C675   O695    1.279   .     A
C675   C677    1.369   .     S
C676   O697    1.279   .     A
C676   O696    1.279   .     A
C676   C678    1.369   .     S
C678   C1181   1.167   .     S
C679   Br701   1.933   .     S
C679   C684    1.402   .     A
C679   C793    1.377   1_455 S
C680   Br702   1.943   .     S
C680   C683    1.411   .     A
C680   C738    1.382   .     S
C681   C683    1.402   .     A
C681   Br703   1.933   .     S
C681   C735    1.377   .     S
C682   C684    1.411   .     A
C682   Br704   1.943   .     S
C682   C792    1.382   1_455 S
C685   N705    1.422   .     S
C685   N690    1.370   .     A
C686   N689    1.370   .     A
C686   N711    1.421   .     S
C686   C855    1.435   .     S
C687   N690    1.370   .     A
C687   N717    1.422   .     S
C688   N723    1.421   .     S
C688   N689    1.370   .     A
C688   C853    1.435   .     S
N689   Zn699   2.015   .     S
N690   Zn700   2.015   .     S
O691   Zn699   1.995   .     S
O692   Zn700   1.995   .     S
O693   Zn699   1.995   .     S
O694   Zn700   1.995   .     S
O695   Zn699   1.955   .     S
O696   Zn700   1.955   .     S
O697   Zn699   1.955   .     S
O698   Zn700   1.955   .     S
N705   H706    1.031   .     S
N705   C707    1.448   .     S
C707   H708    1.110   .     S
C707   H710    1.108   .     S
C707   H709    1.109   .     S
N711   C713    1.444   .     S
N711   H712    1.029   .     S
C713   H714    1.107   .     S
C713   H715    1.110   .     S
C713   H716    1.110   .     S
N717   H718    1.031   .     S
N717   C719    1.448   .     S
C719   H721    1.109   .     S
C719   H722    1.108   .     S
C719   H720    1.110   .     S
N723   C725    1.444   .     S
N723   H724    1.029   .     S
C725   H728    1.110   .     S
C725   H727    1.110   .     S
C725   H726    1.107   .     S
C729   O750    1.297   .     A
C729   C740    1.443   .     S
C729   O747    1.288   .     A
C730   O749    1.288   .     A
C730   C739    1.443   .     S
C730   O748    1.297   .     A
C731   O754    1.279   .     A
C731   O751    1.279   .     A
C731   C733    1.369   .     S
C732   O753    1.279   .     A
C732   O752    1.279   .     A
C732   C734    1.369   .     S
C734   C1237   1.167   .     S
C735   Br757   1.933   .     S
C735   C740    1.402   .     A
C736   Br758   1.943   .     S
C736   C739    1.411   .     A
C736   C794    1.382   .     S
C737   C739    1.402   .     A
C737   Br759   1.933   .     S
C737   C791    1.377   .     S
C738   C740    1.411   .     A
C738   Br760   1.943   .     S
C741   N761    1.422   .     S
C741   N746    1.370   .     A
C742   N745    1.370   .     A
C742   N767    1.421   .     S
C742   C911    1.435   .     S
C743   N746    1.370   .     A
C743   N773    1.422   .     S
C744   N779    1.421   .     S
C744   N745    1.370   .     A
C744   C909    1.435   .     S
N745   Zn755   2.015   .     S
N746   Zn756   2.015   .     S
O747   Zn755   1.995   .     S
O748   Zn756   1.995   .     S
O749   Zn755   1.995   .     S
O750   Zn756   1.995   .     S
O751   Zn755   1.955   .     S
O752   Zn756   1.955   .     S
O753   Zn755   1.955   .     S
O754   Zn756   1.955   .     S
N761   H762    1.031   .     S
N761   C763    1.448   .     S
C763   H764    1.110   .     S
C763   H766    1.108   .     S
C763   H765    1.109   .     S
N767   C769    1.444   .     S
N767   H768    1.029   .     S
C769   H770    1.107   .     S
C769   H771    1.110   .     S
C769   H772    1.110   .     S
N773   H774    1.031   .     S
N773   C775    1.448   .     S
C775   H777    1.109   .     S
C775   H778    1.108   .     S
C775   H776    1.110   .     S
N779   C781    1.444   .     S
N779   H780    1.029   .     S
C781   H784    1.110   .     S
C781   H783    1.110   .     S
C781   H782    1.107   .     S
C785   O806    1.297   .     A
C785   C796    1.443   .     S
C785   O803    1.288   .     A
C786   O805    1.288   .     A
C786   C795    1.443   .     S
C786   O804    1.297   .     A
C787   O810    1.279   .     A
C787   O807    1.279   .     A
C787   C789    1.369   .     S
C788   O809    1.279   .     A
C788   O808    1.279   .     A
C788   C790    1.369   .     S
C790   C1293   1.167   .     S
C791   Br813   1.933   .     S
C791   C796    1.402   .     A
C792   Br814   1.943   .     S
C792   C795    1.411   .     A
C792   C682    1.382   1_655 S
C793   C795    1.402   .     A
C793   Br815   1.933   .     S
C793   C679    1.377   1_655 S
C794   C796    1.411   .     A
C794   Br816   1.943   .     S
C797   N817    1.422   .     S
C797   N802    1.370   .     A
C798   N801    1.370   .     A
C798   N823    1.421   .     S
C798   C967    1.435   .     S
C799   N802    1.370   .     A
C799   N829    1.422   .     S
C800   N835    1.421   .     S
C800   N801    1.370   .     A
C800   C965    1.435   .     S
N801   Zn811   2.015   .     S
N802   Zn812   2.015   .     S
O803   Zn811   1.995   .     S
O804   Zn812   1.995   .     S
O805   Zn811   1.995   .     S
O806   Zn812   1.995   .     S
O807   Zn811   1.955   .     S
O808   Zn812   1.955   .     S
O809   Zn811   1.955   .     S
O810   Zn812   1.955   .     S
N817   H818    1.031   .     S
N817   C819    1.448   .     S
C819   H820    1.110   .     S
C819   H822    1.108   .     S
C819   H821    1.109   .     S
N823   C825    1.444   .     S
N823   H824    1.029   .     S
C825   H826    1.107   .     S
C825   H827    1.110   .     S
C825   H828    1.110   .     S
N829   H830    1.031   .     S
N829   C831    1.448   .     S
C831   H833    1.109   .     S
C831   H834    1.108   .     S
C831   H832    1.110   .     S
N835   C837    1.444   .     S
N835   H836    1.029   .     S
C837   H840    1.110   .     S
C837   H839    1.110   .     S
C837   H838    1.107   .     S
C841   O862    1.297   .     A
C841   C852    1.443   .     S
C841   O859    1.288   .     A
C842   O861    1.288   .     A
C842   C851    1.443   .     S
C842   O860    1.297   .     A
C843   O866    1.279   .     A
C843   O863    1.279   .     A
C843   C845    1.369   .     S
C844   O865    1.279   .     A
C844   O864    1.279   .     A
C844   C846    1.369   .     S
C846   C1349   1.167   .     S
C847   Br869   1.933   .     S
C847   C852    1.402   .     A
C847   C961    1.377   1_455 S
C848   Br870   1.943   .     S
C848   C851    1.411   .     A
C848   C906    1.382   .     S
C849   C851    1.402   .     A
C849   Br871   1.933   .     S
C849   C903    1.377   .     S
C850   C852    1.411   .     A
C850   Br872   1.943   .     S
C850   C960    1.382   1_455 S
C853   N873    1.422   .     S
C853   N858    1.370   .     A
C854   N857    1.370   .     A
C854   N879    1.421   .     S
C854   C519    1.435   1_565 S
C855   N858    1.370   .     A
C855   N885    1.422   .     S
C856   N891    1.421   .     S
C856   N857    1.370   .     A
C856   C517    1.435   1_565 S
N857   Zn867   2.015   .     S
N858   Zn868   2.015   .     S
O859   Zn867   1.995   .     S
O860   Zn868   1.995   .     S
O861   Zn867   1.995   .     S
O862   Zn868   1.995   .     S
O863   Zn867   1.955   .     S
O864   Zn868   1.955   .     S
O865   Zn867   1.955   .     S
O866   Zn868   1.955   .     S
N873   H874    1.031   .     S
N873   C875    1.448   .     S
C875   H876    1.110   .     S
C875   H878    1.108   .     S
C875   H877    1.109   .     S
N879   C881    1.444   .     S
N879   H880    1.029   .     S
C881   H882    1.107   .     S
C881   H883    1.110   .     S
C881   H884    1.110   .     S
N885   H886    1.031   .     S
N885   C887    1.448   .     S
C887   H889    1.109   .     S
C887   H890    1.108   .     S
C887   H888    1.110   .     S
N891   C893    1.444   .     S
N891   H892    1.029   .     S
C893   H896    1.110   .     S
C893   H895    1.110   .     S
C893   H894    1.107   .     S
C897   O918    1.297   .     A
C897   C908    1.443   .     S
C897   O915    1.288   .     A
C898   O917    1.288   .     A
C898   C907    1.443   .     S
C898   O916    1.297   .     A
C899   O922    1.279   .     A
C899   O919    1.279   .     A
C899   C901    1.369   .     S
C900   O921    1.279   .     A
C900   O920    1.279   .     A
C900   C902    1.369   .     S
C902   C1405   1.167   .     S
C903   Br925   1.933   .     S
C903   C908    1.402   .     A
C904   Br926   1.943   .     S
C904   C907    1.411   .     A
C904   C962    1.382   .     S
C905   C907    1.402   .     A
C905   Br927   1.933   .     S
C905   C959    1.377   .     S
C906   C908    1.411   .     A
C906   Br928   1.943   .     S
C909   N929    1.422   .     S
C909   N914    1.370   .     A
C910   N913    1.370   .     A
C910   N935    1.421   .     S
C910   C575    1.435   1_565 S
C911   N914    1.370   .     A
C911   N941    1.422   .     S
C912   N947    1.421   .     S
C912   N913    1.370   .     A
C912   C573    1.435   1_565 S
N913   Zn923   2.015   .     S
N914   Zn924   2.015   .     S
O915   Zn923   1.995   .     S
O916   Zn924   1.995   .     S
O917   Zn923   1.995   .     S
O918   Zn924   1.995   .     S
O919   Zn923   1.955   .     S
O920   Zn924   1.955   .     S
O921   Zn923   1.955   .     S
O922   Zn924   1.955   .     S
N929   H930    1.031   .     S
N929   C931    1.448   .     S
C931   H932    1.110   .     S
C931   H934    1.108   .     S
C931   H933    1.109   .     S
N935   C937    1.444   .     S
N935   H936    1.029   .     S
C937   H938    1.107   .     S
C937   H939    1.110   .     S
C937   H940    1.110   .     S
N941   H942    1.031   .     S
N941   C943    1.448   .     S
C943   H945    1.109   .     S
C943   H946    1.108   .     S
C943   H944    1.110   .     S
N947   C949    1.444   .     S
N947   H948    1.029   .     S
C949   H952    1.110   .     S
C949   H951    1.110   .     S
C949   H950    1.107   .     S
C953   O974    1.297   .     A
C953   C964    1.443   .     S
C953   O971    1.288   .     A
C954   O973    1.288   .     A
C954   C963    1.443   .     S
C954   O972    1.297   .     A
C955   O978    1.279   .     A
C955   O975    1.279   .     A
C955   C957    1.369   .     S
C956   O977    1.279   .     A
C956   O976    1.279   .     A
C956   C958    1.369   .     S
C958   C1461   1.167   .     S
C959   Br981   1.933   .     S
C959   C964    1.402   .     A
C960   Br982   1.943   .     S
C960   C963    1.411   .     A
C960   C850    1.382   1_655 S
C961   C963    1.402   .     A
C961   Br983   1.933   .     S
C961   C847    1.377   1_655 S
C962   C964    1.411   .     A
C962   Br984   1.943   .     S
C965   N985    1.422   .     S
C965   N970    1.370   .     A
C966   N969    1.370   .     A
C966   N991    1.421   .     S
C966   C631    1.435   1_565 S
C967   N970    1.370   .     A
C967   N997    1.422   .     S
C968   N1003   1.421   .     S
C968   N969    1.370   .     A
C968   C629    1.435   1_565 S
N969   Zn979   2.015   .     S
N970   Zn980   2.015   .     S
O971   Zn979   1.995   .     S
O972   Zn980   1.995   .     S
O973   Zn979   1.995   .     S
O974   Zn980   1.995   .     S
O975   Zn979   1.955   .     S
O976   Zn980   1.955   .     S
O977   Zn979   1.955   .     S
O978   Zn980   1.955   .     S
N985   H986    1.031   .     S
N985   C987    1.448   .     S
C987   H988    1.110   .     S
C987   H990    1.108   .     S
C987   H989    1.109   .     S
N991   C993    1.444   .     S
N991   H992    1.029   .     S
C993   H994    1.107   .     S
C993   H995    1.110   .     S
C993   H996    1.110   .     S
N997   H998    1.031   .     S
N997   C999    1.448   .     S
C999   H1001   1.109   .     S
C999   H1002   1.108   .     S
C999   H1000   1.110   .     S
N1003  C1005   1.444   .     S
N1003  H1004   1.029   .     S
C1005  H1008   1.110   .     S
C1005  H1007   1.110   .     S
C1005  H1006   1.107   .     S
C1009  O1030   1.297   .     A
C1009  C1020   1.443   .     S
C1009  O1027   1.288   .     A
C1010  O1029   1.288   .     A
C1010  C1019   1.443   .     S
C1010  O1028   1.297   .     A
C1011  O1034   1.279   .     A
C1011  O1031   1.279   .     A
C1011  C1013   1.369   .     S
C1012  O1033   1.279   .     A
C1012  O1032   1.279   .     A
C1012  C1014   1.369   .     S
C1014  C5      1.167   1_556 S
C1015  Br1037  1.933   .     S
C1015  C1020   1.402   .     A
C1015  C1129   1.377   1_455 S
C1016  Br1038  1.943   .     S
C1016  C1019   1.411   .     A
C1016  C1074   1.382   .     S
C1017  C1019   1.402   .     A
C1017  Br1039  1.933   .     S
C1017  C1071   1.377   .     S
C1018  C1020   1.411   .     A
C1018  Br1040  1.943   .     S
C1018  C1128   1.382   1_455 S
C1021  N1041   1.422   .     S
C1021  N1026   1.370   .     A
C1021  C1360   1.435   1_545 S
C1022  N1025   1.370   .     A
C1022  N1047   1.421   .     S
C1022  C1191   1.435   .     S
C1023  N1026   1.370   .     A
C1023  N1053   1.422   .     S
C1023  C1358   1.435   1_545 S
C1024  N1059   1.421   .     S
C1024  N1025   1.370   .     A
C1024  C1189   1.435   .     S
N1025  Zn1035  2.015   .     S
N1026  Zn1036  2.015   .     S
O1027  Zn1035  1.995   .     S
O1028  Zn1036  1.995   .     S
O1029  Zn1035  1.995   .     S
O1030  Zn1036  1.995   .     S
O1031  Zn1035  1.955   .     S
O1032  Zn1036  1.955   .     S
O1033  Zn1035  1.955   .     S
O1034  Zn1036  1.955   .     S
N1041  H1042   1.031   .     S
N1041  C1043   1.448   .     S
C1043  H1044   1.110   .     S
C1043  H1046   1.108   .     S
C1043  H1045   1.109   .     S
N1047  C1049   1.444   .     S
N1047  H1048   1.029   .     S
C1049  H1050   1.107   .     S
C1049  H1051   1.110   .     S
C1049  H1052   1.110   .     S
N1053  H1054   1.031   .     S
N1053  C1055   1.448   .     S
C1055  H1057   1.109   .     S
C1055  H1058   1.108   .     S
C1055  H1056   1.110   .     S
N1059  C1061   1.444   .     S
N1059  H1060   1.029   .     S
C1061  H1064   1.110   .     S
C1061  H1063   1.110   .     S
C1061  H1062   1.107   .     S
C1065  O1086   1.297   .     A
C1065  C1076   1.443   .     S
C1065  O1083   1.288   .     A
C1066  O1085   1.288   .     A
C1066  C1075   1.443   .     S
C1066  O1084   1.297   .     A
C1067  O1090   1.279   .     A
C1067  O1087   1.279   .     A
C1067  C1069   1.369   .     S
C1068  O1089   1.279   .     A
C1068  O1088   1.279   .     A
C1068  C1070   1.369   .     S
C1070  C61     1.167   1_556 S
C1071  Br1093  1.933   .     S
C1071  C1076   1.402   .     A
C1072  Br1094  1.943   .     S
C1072  C1075   1.411   .     A
C1072  C1130   1.382   .     S
C1073  C1075   1.402   .     A
C1073  Br1095  1.933   .     S
C1073  C1127   1.377   .     S
C1074  C1076   1.411   .     A
C1074  Br1096  1.943   .     S
C1077  N1097   1.422   .     S
C1077  N1082   1.370   .     A
C1077  C1416   1.435   1_545 S
C1078  N1081   1.370   .     A
C1078  N1103   1.421   .     S
C1078  C1247   1.435   .     S
C1079  N1082   1.370   .     A
C1079  N1109   1.422   .     S
C1079  C1414   1.435   1_545 S
C1080  N1115   1.421   .     S
C1080  N1081   1.370   .     A
C1080  C1245   1.435   .     S
N1081  Zn1091  2.015   .     S
N1082  Zn1092  2.015   .     S
O1083  Zn1091  1.995   .     S
O1084  Zn1092  1.995   .     S
O1085  Zn1091  1.995   .     S
O1086  Zn1092  1.995   .     S
O1087  Zn1091  1.955   .     S
O1088  Zn1092  1.955   .     S
O1089  Zn1091  1.955   .     S
O1090  Zn1092  1.955   .     S
N1097  H1098   1.031   .     S
N1097  C1099   1.448   .     S
C1099  H1100   1.110   .     S
C1099  H1102   1.108   .     S
C1099  H1101   1.109   .     S
N1103  C1105   1.444   .     S
N1103  H1104   1.029   .     S
C1105  H1106   1.107   .     S
C1105  H1107   1.110   .     S
C1105  H1108   1.110   .     S
N1109  H1110   1.031   .     S
N1109  C1111   1.448   .     S
C1111  H1113   1.109   .     S
C1111  H1114   1.108   .     S
C1111  H1112   1.110   .     S
N1115  C1117   1.444   .     S
N1115  H1116   1.029   .     S
C1117  H1120   1.110   .     S
C1117  H1119   1.110   .     S
C1117  H1118   1.107   .     S
C1121  O1142   1.297   .     A
C1121  C1132   1.443   .     S
C1121  O1139   1.288   .     A
C1122  O1141   1.288   .     A
C1122  C1131   1.443   .     S
C1122  O1140   1.297   .     A
C1123  O1146   1.279   .     A
C1123  O1143   1.279   .     A
C1123  C1125   1.369   .     S
C1124  O1145   1.279   .     A
C1124  O1144   1.279   .     A
C1124  C1126   1.369   .     S
C1126  C117    1.167   1_556 S
C1127  Br1149  1.933   .     S
C1127  C1132   1.402   .     A
C1128  Br1150  1.943   .     S
C1128  C1131   1.411   .     A
C1128  C1018   1.382   1_655 S
C1129  C1131   1.402   .     A
C1129  Br1151  1.933   .     S
C1129  C1015   1.377   1_655 S
C1130  C1132   1.411   .     A
C1130  Br1152  1.943   .     S
C1133  N1153   1.422   .     S
C1133  N1138   1.370   .     A
C1133  C1472   1.435   1_545 S
C1134  N1137   1.370   .     A
C1134  N1159   1.421   .     S
C1134  C1303   1.435   .     S
C1135  N1138   1.370   .     A
C1135  N1165   1.422   .     S
C1135  C1470   1.435   1_545 S
C1136  N1171   1.421   .     S
C1136  N1137   1.370   .     A
C1136  C1301   1.435   .     S
N1137  Zn1147  2.015   .     S
N1138  Zn1148  2.015   .     S
O1139  Zn1147  1.995   .     S
O1140  Zn1148  1.995   .     S
O1141  Zn1147  1.995   .     S
O1142  Zn1148  1.995   .     S
O1143  Zn1147  1.955   .     S
O1144  Zn1148  1.955   .     S
O1145  Zn1147  1.955   .     S
O1146  Zn1148  1.955   .     S
N1153  H1154   1.031   .     S
N1153  C1155   1.448   .     S
C1155  H1156   1.110   .     S
C1155  H1158   1.108   .     S
C1155  H1157   1.109   .     S
N1159  C1161   1.444   .     S
N1159  H1160   1.029   .     S
C1161  H1162   1.107   .     S
C1161  H1163   1.110   .     S
C1161  H1164   1.110   .     S
N1165  H1166   1.031   .     S
N1165  C1167   1.448   .     S
C1167  H1169   1.109   .     S
C1167  H1170   1.108   .     S
C1167  H1168   1.110   .     S
N1171  C1173   1.444   .     S
N1171  H1172   1.029   .     S
C1173  H1176   1.110   .     S
C1173  H1175   1.110   .     S
C1173  H1174   1.107   .     S
C1177  O1198   1.297   .     A
C1177  C1188   1.443   .     S
C1177  O1195   1.288   .     A
C1178  O1197   1.288   .     A
C1178  C1187   1.443   .     S
C1178  O1196   1.297   .     A
C1179  O1202   1.279   .     A
C1179  O1199   1.279   .     A
C1179  C1181   1.369   .     S
C1180  O1201   1.279   .     A
C1180  O1200   1.279   .     A
C1180  C1182   1.369   .     S
C1182  C173    1.167   1_556 S
C1183  Br1205  1.933   .     S
C1183  C1188   1.402   .     A
C1183  C1297   1.377   1_455 S
C1184  Br1206  1.943   .     S
C1184  C1187   1.411   .     A
C1184  C1242   1.382   .     S
C1185  C1187   1.402   .     A
C1185  Br1207  1.933   .     S
C1185  C1239   1.377   .     S
C1186  C1188   1.411   .     A
C1186  Br1208  1.943   .     S
C1186  C1296   1.382   1_455 S
C1189  N1209   1.422   .     S
C1189  N1194   1.370   .     A
C1190  N1193   1.370   .     A
C1190  N1215   1.421   .     S
C1190  C1359   1.435   .     S
C1191  N1194   1.370   .     A
C1191  N1221   1.422   .     S
C1192  N1227   1.421   .     S
C1192  N1193   1.370   .     A
C1192  C1357   1.435   .     S
N1193  Zn1203  2.015   .     S
N1194  Zn1204  2.015   .     S
O1195  Zn1203  1.995   .     S
O1196  Zn1204  1.995   .     S
O1197  Zn1203  1.995   .     S
O1198  Zn1204  1.995   .     S
O1199  Zn1203  1.955   .     S
O1200  Zn1204  1.955   .     S
O1201  Zn1203  1.955   .     S
O1202  Zn1204  1.955   .     S
N1209  H1210   1.031   .     S
N1209  C1211   1.448   .     S
C1211  H1212   1.110   .     S
C1211  H1214   1.108   .     S
C1211  H1213   1.109   .     S
N1215  C1217   1.444   .     S
N1215  H1216   1.029   .     S
C1217  H1218   1.107   .     S
C1217  H1219   1.110   .     S
C1217  H1220   1.110   .     S
N1221  H1222   1.031   .     S
N1221  C1223   1.448   .     S
C1223  H1225   1.109   .     S
C1223  H1226   1.108   .     S
C1223  H1224   1.110   .     S
N1227  C1229   1.444   .     S
N1227  H1228   1.029   .     S
C1229  H1232   1.110   .     S
C1229  H1231   1.110   .     S
C1229  H1230   1.107   .     S
C1233  O1254   1.297   .     A
C1233  C1244   1.443   .     S
C1233  O1251   1.288   .     A
C1234  O1253   1.288   .     A
C1234  C1243   1.443   .     S
C1234  O1252   1.297   .     A
C1235  O1258   1.279   .     A
C1235  O1255   1.279   .     A
C1235  C1237   1.369   .     S
C1236  O1257   1.279   .     A
C1236  O1256   1.279   .     A
C1236  C1238   1.369   .     S
C1238  C229    1.167   1_556 S
C1239  Br1261  1.933   .     S
C1239  C1244   1.402   .     A
C1240  Br1262  1.943   .     S
C1240  C1243   1.411   .     A
C1240  C1298   1.382   .     S
C1241  C1243   1.402   .     A
C1241  Br1263  1.933   .     S
C1241  C1295   1.377   .     S
C1242  C1244   1.411   .     A
C1242  Br1264  1.943   .     S
C1245  N1265   1.422   .     S
C1245  N1250   1.370   .     A
C1246  N1249   1.370   .     A
C1246  N1271   1.421   .     S
C1246  C1415   1.435   .     S
C1247  N1250   1.370   .     A
C1247  N1277   1.422   .     S
C1248  N1283   1.421   .     S
C1248  N1249   1.370   .     A
C1248  C1413   1.435   .     S
N1249  Zn1259  2.015   .     S
N1250  Zn1260  2.015   .     S
O1251  Zn1259  1.995   .     S
O1252  Zn1260  1.995   .     S
O1253  Zn1259  1.995   .     S
O1254  Zn1260  1.995   .     S
O1255  Zn1259  1.955   .     S
O1256  Zn1260  1.955   .     S
O1257  Zn1259  1.955   .     S
O1258  Zn1260  1.955   .     S
N1265  H1266   1.031   .     S
N1265  C1267   1.448   .     S
C1267  H1268   1.110   .     S
C1267  H1270   1.108   .     S
C1267  H1269   1.109   .     S
N1271  C1273   1.444   .     S
N1271  H1272   1.029   .     S
C1273  H1274   1.107   .     S
C1273  H1275   1.110   .     S
C1273  H1276   1.110   .     S
N1277  H1278   1.031   .     S
N1277  C1279   1.448   .     S
C1279  H1281   1.109   .     S
C1279  H1282   1.108   .     S
C1279  H1280   1.110   .     S
N1283  C1285   1.444   .     S
N1283  H1284   1.029   .     S
C1285  H1288   1.110   .     S
C1285  H1287   1.110   .     S
C1285  H1286   1.107   .     S
C1289  O1310   1.297   .     A
C1289  C1300   1.443   .     S
C1289  O1307   1.288   .     A
C1290  O1309   1.288   .     A
C1290  C1299   1.443   .     S
C1290  O1308   1.297   .     A
C1291  O1314   1.279   .     A
C1291  O1311   1.279   .     A
C1291  C1293   1.369   .     S
C1292  O1313   1.279   .     A
C1292  O1312   1.279   .     A
C1292  C1294   1.369   .     S
C1294  C285    1.167   1_556 S
C1295  Br1317  1.933   .     S
C1295  C1300   1.402   .     A
C1296  Br1318  1.943   .     S
C1296  C1299   1.411   .     A
C1296  C1186   1.382   1_655 S
C1297  C1299   1.402   .     A
C1297  Br1319  1.933   .     S
C1297  C1183   1.377   1_655 S
C1298  C1300   1.411   .     A
C1298  Br1320  1.943   .     S
C1301  N1321   1.422   .     S
C1301  N1306   1.370   .     A
C1302  N1305   1.370   .     A
C1302  N1327   1.421   .     S
C1302  C1471   1.435   .     S
C1303  N1306   1.370   .     A
C1303  N1333   1.422   .     S
C1304  N1339   1.421   .     S
C1304  N1305   1.370   .     A
C1304  C1469   1.435   .     S
N1305  Zn1315  2.015   .     S
N1306  Zn1316  2.015   .     S
O1307  Zn1315  1.995   .     S
O1308  Zn1316  1.995   .     S
O1309  Zn1315  1.995   .     S
O1310  Zn1316  1.995   .     S
O1311  Zn1315  1.955   .     S
O1312  Zn1316  1.955   .     S
O1313  Zn1315  1.955   .     S
O1314  Zn1316  1.955   .     S
N1321  H1322   1.031   .     S
N1321  C1323   1.448   .     S
C1323  H1324   1.110   .     S
C1323  H1326   1.108   .     S
C1323  H1325   1.109   .     S
N1327  C1329   1.444   .     S
N1327  H1328   1.029   .     S
C1329  H1330   1.107   .     S
C1329  H1331   1.110   .     S
C1329  H1332   1.110   .     S
N1333  H1334   1.031   .     S
N1333  C1335   1.448   .     S
C1335  H1337   1.109   .     S
C1335  H1338   1.108   .     S
C1335  H1336   1.110   .     S
N1339  C1341   1.444   .     S
N1339  H1340   1.029   .     S
C1341  H1344   1.110   .     S
C1341  H1343   1.110   .     S
C1341  H1342   1.107   .     S
C1345  O1366   1.297   .     A
C1345  C1356   1.443   .     S
C1345  O1363   1.288   .     A
C1346  O1365   1.288   .     A
C1346  C1355   1.443   .     S
C1346  O1364   1.297   .     A
C1347  O1370   1.279   .     A
C1347  O1367   1.279   .     A
C1347  C1349   1.369   .     S
C1348  O1369   1.279   .     A
C1348  O1368   1.279   .     A
C1348  C1350   1.369   .     S
C1350  C341    1.167   1_556 S
C1351  Br1373  1.933   .     S
C1351  C1356   1.402   .     A
C1351  C1465   1.377   1_455 S
C1352  Br1374  1.943   .     S
C1352  C1355   1.411   .     A
C1352  C1410   1.382   .     S
C1353  C1355   1.402   .     A
C1353  Br1375  1.933   .     S
C1353  C1407   1.377   .     S
C1354  C1356   1.411   .     A
C1354  Br1376  1.943   .     S
C1354  C1464   1.382   1_455 S
C1357  N1377   1.422   .     S
C1357  N1362   1.370   .     A
C1358  N1361   1.370   .     A
C1358  N1383   1.421   .     S
C1358  C1023   1.435   1_565 S
C1359  N1362   1.370   .     A
C1359  N1389   1.422   .     S
C1360  N1395   1.421   .     S
C1360  N1361   1.370   .     A
C1360  C1021   1.435   1_565 S
N1361  Zn1371  2.015   .     S
N1362  Zn1372  2.015   .     S
O1363  Zn1371  1.995   .     S
O1364  Zn1372  1.995   .     S
O1365  Zn1371  1.995   .     S
O1366  Zn1372  1.995   .     S
O1367  Zn1371  1.955   .     S
O1368  Zn1372  1.955   .     S
O1369  Zn1371  1.955   .     S
O1370  Zn1372  1.955   .     S
N1377  H1378   1.031   .     S
N1377  C1379   1.448   .     S
C1379  H1380   1.110   .     S
C1379  H1382   1.108   .     S
C1379  H1381   1.109   .     S
N1383  C1385   1.444   .     S
N1383  H1384   1.029   .     S
C1385  H1386   1.107   .     S
C1385  H1387   1.110   .     S
C1385  H1388   1.110   .     S
N1389  H1390   1.031   .     S
N1389  C1391   1.448   .     S
C1391  H1393   1.109   .     S
C1391  H1394   1.108   .     S
C1391  H1392   1.110   .     S
N1395  C1397   1.444   .     S
N1395  H1396   1.029   .     S
C1397  H1400   1.110   .     S
C1397  H1399   1.110   .     S
C1397  H1398   1.107   .     S
C1401  O1422   1.297   .     A
C1401  C1412   1.443   .     S
C1401  O1419   1.288   .     A
C1402  O1421   1.288   .     A
C1402  C1411   1.443   .     S
C1402  O1420   1.297   .     A
C1403  O1426   1.279   .     A
C1403  O1423   1.279   .     A
C1403  C1405   1.369   .     S
C1404  O1425   1.279   .     A
C1404  O1424   1.279   .     A
C1404  C1406   1.369   .     S
C1406  C397    1.167   1_556 S
C1407  Br1429  1.933   .     S
C1407  C1412   1.402   .     A
C1408  Br1430  1.943   .     S
C1408  C1411   1.411   .     A
C1408  C1466   1.382   .     S
C1409  C1411   1.402   .     A
C1409  Br1431  1.933   .     S
C1409  C1463   1.377   .     S
C1410  C1412   1.411   .     A
C1410  Br1432  1.943   .     S
C1413  N1433   1.422   .     S
C1413  N1418   1.370   .     A
C1414  N1417   1.370   .     A
C1414  N1439   1.421   .     S
C1414  C1079   1.435   1_565 S
C1415  N1418   1.370   .     A
C1415  N1445   1.422   .     S
C1416  N1451   1.421   .     S
C1416  N1417   1.370   .     A
C1416  C1077   1.435   1_565 S
N1417  Zn1427  2.015   .     S
N1418  Zn1428  2.015   .     S
O1419  Zn1427  1.995   .     S
O1420  Zn1428  1.995   .     S
O1421  Zn1427  1.995   .     S
O1422  Zn1428  1.995   .     S
O1423  Zn1427  1.955   .     S
O1424  Zn1428  1.955   .     S
O1425  Zn1427  1.955   .     S
O1426  Zn1428  1.955   .     S
N1433  H1434   1.031   .     S
N1433  C1435   1.448   .     S
C1435  H1436   1.110   .     S
C1435  H1438   1.108   .     S
C1435  H1437   1.109   .     S
N1439  C1441   1.444   .     S
N1439  H1440   1.029   .     S
C1441  H1442   1.107   .     S
C1441  H1443   1.110   .     S
C1441  H1444   1.110   .     S
N1445  H1446   1.031   .     S
N1445  C1447   1.448   .     S
C1447  H1449   1.109   .     S
C1447  H1450   1.108   .     S
C1447  H1448   1.110   .     S
N1451  C1453   1.444   .     S
N1451  H1452   1.029   .     S
C1453  H1456   1.110   .     S
C1453  H1455   1.110   .     S
C1453  H1454   1.107   .     S
C1457  O1478   1.297   .     A
C1457  C1468   1.443   .     S
C1457  O1475   1.288   .     A
C1458  O1477   1.288   .     A
C1458  C1467   1.443   .     S
C1458  O1476   1.297   .     A
C1459  O1482   1.279   .     A
C1459  O1479   1.279   .     A
C1459  C1461   1.369   .     S
C1460  O1481   1.279   .     A
C1460  O1480   1.279   .     A
C1460  C1462   1.369   .     S
C1462  C453    1.167   1_556 S
C1463  Br1485  1.933   .     S
C1463  C1468   1.402   .     A
C1464  Br1486  1.943   .     S
C1464  C1467   1.411   .     A
C1464  C1354   1.382   1_655 S
C1465  C1467   1.402   .     A
C1465  Br1487  1.933   .     S
C1465  C1351   1.377   1_655 S
C1466  C1468   1.411   .     A
C1466  Br1488  1.943   .     S
C1469  N1489   1.422   .     S
C1469  N1474   1.370   .     A
C1470  N1473   1.370   .     A
C1470  N1495   1.421   .     S
C1470  C1135   1.435   1_565 S
C1471  N1474   1.370   .     A
C1471  N1501   1.422   .     S
C1472  N1507   1.421   .     S
C1472  N1473   1.370   .     A
C1472  C1133   1.435   1_565 S
N1473  Zn1483  2.015   .     S
N1474  Zn1484  2.015   .     S
O1475  Zn1483  1.995   .     S
O1476  Zn1484  1.995   .     S
O1477  Zn1483  1.995   .     S
O1478  Zn1484  1.995   .     S
O1479  Zn1483  1.955   .     S
O1480  Zn1484  1.955   .     S
O1481  Zn1483  1.955   .     S
O1482  Zn1484  1.955   .     S
N1489  H1490   1.031   .     S
N1489  C1491   1.448   .     S
C1491  H1492   1.110   .     S
C1491  H1494   1.108   .     S
C1491  H1493   1.109   .     S
N1495  C1497   1.444   .     S
N1495  H1496   1.029   .     S
C1497  H1498   1.107   .     S
C1497  H1499   1.110   .     S
C1497  H1500   1.110   .     S
N1501  H1502   1.031   .     S
N1501  C1503   1.448   .     S
C1503  H1505   1.109   .     S
C1503  H1506   1.108   .     S
C1503  H1504   1.110   .     S
N1507  C1509   1.444   .     S
N1507  H1508   1.029   .     S
C1509  H1512   1.110   .     S
C1509  H1511   1.110   .     S
C1509  H1510   1.107   .     S
