data_str_m3_o10_o18_pcu_sym.99
_audit_creation_date              2020-01-03
_audit_creation_method            'Materials Studio'
_symmetry_space_group_name_H-M    'P1'
_symmetry_Int_Tables_number       1
_symmetry_cell_setting            triclinic
loop_
_symmetry_equiv_pos_as_xyz
  x,y,z
_cell_length_a                    23.7510
_cell_length_b                    25.6503
_cell_length_c                    27.4906
_cell_angle_alpha                 94.3829
_cell_angle_beta                  92.9430
_cell_angle_gamma                 93.8369
loop_
_atom_site_label
_atom_site_type_symbol
_atom_site_fract_x
_atom_site_fract_y
_atom_site_fract_z
_atom_site_U_iso_or_equiv
_atom_site_adp_type
_atom_site_occupancy
C1     C     0.01487   0.26475   0.24887   0.00000  Uiso   1.00
C2     C     0.31251   0.16284   0.15905   0.00000  Uiso   1.00
C3     C     0.03118   0.17623   0.39358   0.00000  Uiso   1.00
C4     C     0.30215   0.15709   0.10642   0.00000  Uiso   1.00
C5     C     0.01899   0.22192   0.47169   0.00000  Uiso   1.00
C6     C     0.31433   0.11138   0.02832   0.00000  Uiso   1.00
C7     C     0.33315   0.20845   0.42342   0.00000  Uiso   1.00
C8     C     0.00017   0.12486   0.07659   0.00000  Uiso   1.00
C9     C     0.07878   0.15474   0.41260   0.00000  Uiso   1.00
C10    C     0.25455   0.17858   0.08740   0.00000  Uiso   1.00
C11    C     0.10184   0.17124   0.45939   0.00000  Uiso   1.00
C12    C     0.31846   0.06858   0.25113   0.00000  Uiso   1.00
C13    C     0.23148   0.16206   0.04062   0.00000  Uiso   1.00
C14    C     0.07057   0.20488   0.48938   0.00000  Uiso   1.00
C15    C     0.26275   0.12841   0.01063   0.00000  Uiso   1.00
C16    C     0.15588   0.15704   0.47620   0.00000  Uiso   1.00
C17    C     0.17744   0.17625   0.02380   0.00000  Uiso   1.00
C18    C     0.16192   0.12530   0.19368   0.00000  Uiso   1.00
C19    C     0.17141   0.20803   0.30632   0.00000  Uiso   1.00
C20    C     0.14368   0.20794   0.05338   0.00000  Uiso   1.00
C21    C     0.18963   0.12535   0.44663   0.00000  Uiso   1.00
C22    C     0.09144   0.22192   0.03631   0.00000  Uiso   1.00
C23    C     0.24188   0.11137   0.46370   0.00000  Uiso   1.00
C24    C     0.02261   0.31932   0.24819   0.00000  Uiso   1.00
C25    C     0.31072   0.01402   0.25181   0.00000  Uiso   1.00
C26    C     0.02083   0.17049   0.34095   0.00000  Uiso   1.00
H27    H     0.06746   0.24680   0.05992   0.00000  Uiso   1.00
H28    H     0.17740   0.11015   0.40984   0.00000  Uiso   1.00
H29    H     0.06533   0.00288   0.24472   0.00000  Uiso   1.00
H30    H     0.26801   0.33045   0.25528   0.00000  Uiso   1.00
H31    H     0.19227   0.06079   0.16110   0.00000  Uiso   1.00
H32    H     0.14106   0.27254   0.33890   0.00000  Uiso   1.00
H33    H     0.26585   0.08648   0.44009   0.00000  Uiso   1.00
H34    H     0.23499   0.20612   0.11141   0.00000  Uiso   1.00
H35    H     0.09835   0.12722   0.38858   0.00000  Uiso   1.00
H36    H     0.03780   0.10845   0.09105   0.00000  Uiso   1.00
H37    H     0.29553   0.22486   0.40896   0.00000  Uiso   1.00
H38    H     0.32817   0.24742   0.49452   0.00000  Uiso   1.00
H39    H     0.00514   0.08587   0.00549   0.00000  Uiso   1.00
H40    H     0.15591   0.22313   0.09018   0.00000  Uiso   1.00
N41    N     0.14695   0.15216   0.23739   0.00000  Uiso   1.00
N42    N     0.18638   0.18117   0.26260   0.00000  Uiso   1.00
O43    O     0.29719   0.24631   0.25309   0.00000  Uiso   1.00
O44    O     0.18452   0.07654   0.19485   0.00000  Uiso   1.00
O45    O     0.18284   0.19044   0.34540   0.00000  Uiso   1.00
O46    O     0.14881   0.25679   0.30515   0.00000  Uiso   1.00
O47    O     0.03614   0.08702   0.24691   0.00000  Uiso   1.00
O48    O     0.05822   0.23702   0.24501   0.00000  Uiso   1.00
O49    O     0.27512   0.09632   0.25498   0.00000  Uiso   1.00
O50    O     0.30328   0.17397   0.32247   0.00000  Uiso   1.00
O51    O     0.03005   0.15937   0.17753   0.00000  Uiso   1.00
O52    O     0.06431   0.16467   0.31439   0.00000  Uiso   1.00
O53    O     0.26902   0.16866   0.18561   0.00000  Uiso   1.00
O54    O     0.15049   0.14289   0.15460   0.00000  Uiso   1.00
Zn55   Zn    0.27033   0.17287   0.25539   0.00000  Uiso   1.00
Zn56   Zn    0.06300   0.16046   0.24460   0.00000  Uiso   1.00
C57    C     0.34820   0.26475   0.24887   0.00000  Uiso   1.00
C58    C     0.64584   0.16284   0.15905   0.00000  Uiso   1.00
C59    C     0.36451   0.17623   0.39358   0.00000  Uiso   1.00
C60    C     0.63548   0.15709   0.10642   0.00000  Uiso   1.00
C61    C     0.35232   0.22192   0.47169   0.00000  Uiso   1.00
C62    C     0.64767   0.11138   0.02832   0.00000  Uiso   1.00
C63    C     0.66648   0.20845   0.42342   0.00000  Uiso   1.00
C64    C     0.33351   0.12486   0.07659   0.00000  Uiso   1.00
C65    C     0.41211   0.15474   0.41260   0.00000  Uiso   1.00
C66    C     0.58788   0.17858   0.08740   0.00000  Uiso   1.00
C67    C     0.43517   0.17124   0.45939   0.00000  Uiso   1.00
C68    C     0.65180   0.06858   0.25113   0.00000  Uiso   1.00
C69    C     0.56482   0.16206   0.04062   0.00000  Uiso   1.00
C70    C     0.40391   0.20488   0.48938   0.00000  Uiso   1.00
C71    C     0.59608   0.12841   0.01063   0.00000  Uiso   1.00
C72    C     0.48921   0.15704   0.47620   0.00000  Uiso   1.00
C73    C     0.51078   0.17625   0.02380   0.00000  Uiso   1.00
C74    C     0.49525   0.12530   0.19368   0.00000  Uiso   1.00
C75    C     0.50475   0.20803   0.30632   0.00000  Uiso   1.00
C76    C     0.47702   0.20794   0.05338   0.00000  Uiso   1.00
C77    C     0.52296   0.12535   0.44663   0.00000  Uiso   1.00
C78    C     0.42477   0.22192   0.03631   0.00000  Uiso   1.00
C79    C     0.57521   0.11137   0.46370   0.00000  Uiso   1.00
C80    C     0.35595   0.31932   0.24819   0.00000  Uiso   1.00
C81    C     0.64405   0.01402   0.25181   0.00000  Uiso   1.00
C82    C     0.35416   0.17049   0.34095   0.00000  Uiso   1.00
H83    H     0.40079   0.24680   0.05992   0.00000  Uiso   1.00
H84    H     0.51073   0.11015   0.40984   0.00000  Uiso   1.00
H85    H     0.39866   0.00288   0.24472   0.00000  Uiso   1.00
H86    H     0.60134   0.33045   0.25528   0.00000  Uiso   1.00
H87    H     0.52560   0.06079   0.16110   0.00000  Uiso   1.00
H88    H     0.47440   0.27254   0.33890   0.00000  Uiso   1.00
H89    H     0.59918   0.08648   0.44009   0.00000  Uiso   1.00
H90    H     0.56833   0.20612   0.11141   0.00000  Uiso   1.00
H91    H     0.43168   0.12722   0.38858   0.00000  Uiso   1.00
H92    H     0.37113   0.10845   0.09105   0.00000  Uiso   1.00
H93    H     0.62886   0.22486   0.40896   0.00000  Uiso   1.00
H94    H     0.66151   0.24742   0.49452   0.00000  Uiso   1.00
H95    H     0.33848   0.08587   0.00549   0.00000  Uiso   1.00
H96    H     0.48924   0.22313   0.09018   0.00000  Uiso   1.00
N97    N     0.48029   0.15216   0.23739   0.00000  Uiso   1.00
N98    N     0.51971   0.18117   0.26260   0.00000  Uiso   1.00
O99    O     0.63052   0.24631   0.25309   0.00000  Uiso   1.00
O100   O     0.51786   0.07654   0.19485   0.00000  Uiso   1.00
O101   O     0.51617   0.19044   0.34540   0.00000  Uiso   1.00
O102   O     0.48214   0.25679   0.30515   0.00000  Uiso   1.00
O103   O     0.36948   0.08702   0.24691   0.00000  Uiso   1.00
O104   O     0.39155   0.23702   0.24501   0.00000  Uiso   1.00
O105   O     0.60845   0.09632   0.25498   0.00000  Uiso   1.00
O106   O     0.63662   0.17397   0.32247   0.00000  Uiso   1.00
O107   O     0.36338   0.15937   0.17753   0.00000  Uiso   1.00
O108   O     0.39764   0.16467   0.31439   0.00000  Uiso   1.00
O109   O     0.60236   0.16866   0.18561   0.00000  Uiso   1.00
O110   O     0.48382   0.14289   0.15460   0.00000  Uiso   1.00
Zn111  Zn    0.60366   0.17287   0.25539   0.00000  Uiso   1.00
Zn112  Zn    0.39634   0.16046   0.24460   0.00000  Uiso   1.00
C113   C     0.68154   0.26475   0.24887   0.00000  Uiso   1.00
C114   C     0.97917   0.16284   0.15905   0.00000  Uiso   1.00
C115   C     0.69785   0.17623   0.39358   0.00000  Uiso   1.00
C116   C     0.96882   0.15709   0.10642   0.00000  Uiso   1.00
C117   C     0.68565   0.22192   0.47169   0.00000  Uiso   1.00
C118   C     0.98100   0.11138   0.02832   0.00000  Uiso   1.00
C119   C     0.99982   0.20845   0.42342   0.00000  Uiso   1.00
C120   C     0.66684   0.12486   0.07659   0.00000  Uiso   1.00
C121   C     0.74545   0.15474   0.41260   0.00000  Uiso   1.00
C122   C     0.92122   0.17858   0.08740   0.00000  Uiso   1.00
C123   C     0.76850   0.17124   0.45939   0.00000  Uiso   1.00
C124   C     0.98513   0.06858   0.25113   0.00000  Uiso   1.00
C125   C     0.89815   0.16206   0.04062   0.00000  Uiso   1.00
C126   C     0.73724   0.20488   0.48938   0.00000  Uiso   1.00
C127   C     0.92941   0.12841   0.01063   0.00000  Uiso   1.00
C128   C     0.82254   0.15704   0.47620   0.00000  Uiso   1.00
C129   C     0.84411   0.17625   0.02380   0.00000  Uiso   1.00
C130   C     0.82859   0.12530   0.19368   0.00000  Uiso   1.00
C131   C     0.83808   0.20803   0.30632   0.00000  Uiso   1.00
C132   C     0.81035   0.20794   0.05338   0.00000  Uiso   1.00
C133   C     0.85630   0.12535   0.44663   0.00000  Uiso   1.00
C134   C     0.75810   0.22192   0.03631   0.00000  Uiso   1.00
C135   C     0.90854   0.11137   0.46370   0.00000  Uiso   1.00
C136   C     0.68928   0.31932   0.24819   0.00000  Uiso   1.00
C137   C     0.97739   0.01402   0.25181   0.00000  Uiso   1.00
C138   C     0.68749   0.17049   0.34095   0.00000  Uiso   1.00
H139   H     0.73413   0.24680   0.05992   0.00000  Uiso   1.00
H140   H     0.84407   0.11015   0.40984   0.00000  Uiso   1.00
H141   H     0.73199   0.00288   0.24472   0.00000  Uiso   1.00
H142   H     0.93467   0.33045   0.25528   0.00000  Uiso   1.00
H143   H     0.85894   0.06079   0.16110   0.00000  Uiso   1.00
H144   H     0.80773   0.27254   0.33890   0.00000  Uiso   1.00
H145   H     0.93252   0.08648   0.44009   0.00000  Uiso   1.00
H146   H     0.90166   0.20612   0.11141   0.00000  Uiso   1.00
H147   H     0.76502   0.12722   0.38858   0.00000  Uiso   1.00
H148   H     0.70446   0.10845   0.09105   0.00000  Uiso   1.00
H149   H     0.96219   0.22486   0.40896   0.00000  Uiso   1.00
H150   H     0.99484   0.24742   0.49452   0.00000  Uiso   1.00
H151   H     0.67181   0.08587   0.00549   0.00000  Uiso   1.00
H152   H     0.82258   0.22313   0.09018   0.00000  Uiso   1.00
N153   N     0.81362   0.15216   0.23739   0.00000  Uiso   1.00
N154   N     0.85305   0.18117   0.26260   0.00000  Uiso   1.00
O155   O     0.96386   0.24631   0.25309   0.00000  Uiso   1.00
O156   O     0.85119   0.07654   0.19485   0.00000  Uiso   1.00
O157   O     0.84951   0.19044   0.34540   0.00000  Uiso   1.00
O158   O     0.81548   0.25679   0.30515   0.00000  Uiso   1.00
O159   O     0.70281   0.08702   0.24691   0.00000  Uiso   1.00
O160   O     0.72488   0.23702   0.24501   0.00000  Uiso   1.00
O161   O     0.94178   0.09632   0.25498   0.00000  Uiso   1.00
O162   O     0.96995   0.17397   0.32247   0.00000  Uiso   1.00
O163   O     0.69672   0.15937   0.17753   0.00000  Uiso   1.00
O164   O     0.73098   0.16467   0.31439   0.00000  Uiso   1.00
O165   O     0.93569   0.16866   0.18561   0.00000  Uiso   1.00
O166   O     0.81716   0.14289   0.15460   0.00000  Uiso   1.00
Zn167  Zn    0.93700   0.17287   0.25539   0.00000  Uiso   1.00
Zn168  Zn    0.72967   0.16046   0.24460   0.00000  Uiso   1.00
C169   C     0.01487   0.59808   0.24887   0.00000  Uiso   1.00
C170   C     0.31251   0.49617   0.15905   0.00000  Uiso   1.00
C171   C     0.03118   0.50956   0.39358   0.00000  Uiso   1.00
C172   C     0.30215   0.49043   0.10642   0.00000  Uiso   1.00
C173   C     0.01899   0.55526   0.47169   0.00000  Uiso   1.00
C174   C     0.31433   0.44471   0.02832   0.00000  Uiso   1.00
C175   C     0.33315   0.54178   0.42342   0.00000  Uiso   1.00
C176   C     0.00017   0.45820   0.07659   0.00000  Uiso   1.00
C177   C     0.07878   0.48808   0.41260   0.00000  Uiso   1.00
C178   C     0.25455   0.51191   0.08740   0.00000  Uiso   1.00
C179   C     0.10184   0.50458   0.45939   0.00000  Uiso   1.00
C180   C     0.31846   0.40192   0.25113   0.00000  Uiso   1.00
C181   C     0.23148   0.49539   0.04062   0.00000  Uiso   1.00
C182   C     0.07057   0.53822   0.48938   0.00000  Uiso   1.00
C183   C     0.26275   0.46175   0.01063   0.00000  Uiso   1.00
C184   C     0.15588   0.49038   0.47620   0.00000  Uiso   1.00
C185   C     0.17744   0.50959   0.02380   0.00000  Uiso   1.00
C186   C     0.16192   0.45863   0.19368   0.00000  Uiso   1.00
C187   C     0.17141   0.54136   0.30632   0.00000  Uiso   1.00
C188   C     0.14368   0.54128   0.05338   0.00000  Uiso   1.00
C189   C     0.18963   0.45868   0.44663   0.00000  Uiso   1.00
C190   C     0.09144   0.55525   0.03631   0.00000  Uiso   1.00
C191   C     0.24188   0.44470   0.46370   0.00000  Uiso   1.00
C192   C     0.02261   0.65265   0.24819   0.00000  Uiso   1.00
C193   C     0.31072   0.34735   0.25181   0.00000  Uiso   1.00
C194   C     0.02083   0.50383   0.34095   0.00000  Uiso   1.00
H195   H     0.06746   0.58014   0.05992   0.00000  Uiso   1.00
H196   H     0.17740   0.44348   0.40984   0.00000  Uiso   1.00
H197   H     0.06533   0.33621   0.24472   0.00000  Uiso   1.00
H198   H     0.26801   0.66379   0.25528   0.00000  Uiso   1.00
H199   H     0.19227   0.39412   0.16110   0.00000  Uiso   1.00
H200   H     0.14106   0.60588   0.33890   0.00000  Uiso   1.00
H201   H     0.26585   0.41981   0.44009   0.00000  Uiso   1.00
H202   H     0.23499   0.53945   0.11141   0.00000  Uiso   1.00
H203   H     0.09835   0.46055   0.38858   0.00000  Uiso   1.00
H204   H     0.03780   0.44178   0.09105   0.00000  Uiso   1.00
H205   H     0.29553   0.55820   0.40896   0.00000  Uiso   1.00
H206   H     0.32817   0.58075   0.49452   0.00000  Uiso   1.00
H207   H     0.00514   0.41921   0.00549   0.00000  Uiso   1.00
H208   H     0.15591   0.55646   0.09018   0.00000  Uiso   1.00
N209   N     0.14695   0.48550   0.23739   0.00000  Uiso   1.00
N210   N     0.18638   0.51450   0.26260   0.00000  Uiso   1.00
O211   O     0.29719   0.57964   0.25309   0.00000  Uiso   1.00
O212   O     0.18452   0.40987   0.19485   0.00000  Uiso   1.00
O213   O     0.18284   0.52377   0.34540   0.00000  Uiso   1.00
O214   O     0.14881   0.59012   0.30515   0.00000  Uiso   1.00
O215   O     0.03614   0.42036   0.24691   0.00000  Uiso   1.00
O216   O     0.05822   0.57035   0.24501   0.00000  Uiso   1.00
O217   O     0.27512   0.42965   0.25498   0.00000  Uiso   1.00
O218   O     0.30328   0.50730   0.32247   0.00000  Uiso   1.00
O219   O     0.03005   0.49270   0.17753   0.00000  Uiso   1.00
O220   O     0.06431   0.49801   0.31439   0.00000  Uiso   1.00
O221   O     0.26902   0.50199   0.18561   0.00000  Uiso   1.00
O222   O     0.15049   0.47622   0.15460   0.00000  Uiso   1.00
Zn223  Zn    0.27033   0.50621   0.25539   0.00000  Uiso   1.00
Zn224  Zn    0.06300   0.49379   0.24460   0.00000  Uiso   1.00
C225   C     0.34820   0.59808   0.24887   0.00000  Uiso   1.00
C226   C     0.64584   0.49617   0.15905   0.00000  Uiso   1.00
C227   C     0.36451   0.50956   0.39358   0.00000  Uiso   1.00
C228   C     0.63548   0.49043   0.10642   0.00000  Uiso   1.00
C229   C     0.35232   0.55526   0.47169   0.00000  Uiso   1.00
C230   C     0.64767   0.44471   0.02832   0.00000  Uiso   1.00
C231   C     0.66648   0.54178   0.42342   0.00000  Uiso   1.00
C232   C     0.33351   0.45820   0.07659   0.00000  Uiso   1.00
C233   C     0.41211   0.48808   0.41260   0.00000  Uiso   1.00
C234   C     0.58788   0.51191   0.08740   0.00000  Uiso   1.00
C235   C     0.43517   0.50458   0.45939   0.00000  Uiso   1.00
C236   C     0.65180   0.40192   0.25113   0.00000  Uiso   1.00
C237   C     0.56482   0.49539   0.04062   0.00000  Uiso   1.00
C238   C     0.40391   0.53822   0.48938   0.00000  Uiso   1.00
C239   C     0.59608   0.46175   0.01063   0.00000  Uiso   1.00
C240   C     0.48921   0.49038   0.47620   0.00000  Uiso   1.00
C241   C     0.51078   0.50959   0.02380   0.00000  Uiso   1.00
C242   C     0.49525   0.45863   0.19368   0.00000  Uiso   1.00
C243   C     0.50475   0.54136   0.30632   0.00000  Uiso   1.00
C244   C     0.47702   0.54128   0.05338   0.00000  Uiso   1.00
C245   C     0.52296   0.45868   0.44663   0.00000  Uiso   1.00
C246   C     0.42477   0.55525   0.03631   0.00000  Uiso   1.00
C247   C     0.57521   0.44470   0.46370   0.00000  Uiso   1.00
C248   C     0.35595   0.65265   0.24819   0.00000  Uiso   1.00
C249   C     0.64405   0.34735   0.25181   0.00000  Uiso   1.00
C250   C     0.35416   0.50383   0.34095   0.00000  Uiso   1.00
H251   H     0.40079   0.58014   0.05992   0.00000  Uiso   1.00
H252   H     0.51073   0.44348   0.40984   0.00000  Uiso   1.00
H253   H     0.39866   0.33621   0.24472   0.00000  Uiso   1.00
H254   H     0.60134   0.66379   0.25528   0.00000  Uiso   1.00
H255   H     0.52560   0.39412   0.16110   0.00000  Uiso   1.00
H256   H     0.47440   0.60588   0.33890   0.00000  Uiso   1.00
H257   H     0.59918   0.41981   0.44009   0.00000  Uiso   1.00
H258   H     0.56833   0.53945   0.11141   0.00000  Uiso   1.00
H259   H     0.43168   0.46055   0.38858   0.00000  Uiso   1.00
H260   H     0.37113   0.44178   0.09105   0.00000  Uiso   1.00
H261   H     0.62886   0.55820   0.40896   0.00000  Uiso   1.00
H262   H     0.66151   0.58075   0.49452   0.00000  Uiso   1.00
H263   H     0.33848   0.41921   0.00549   0.00000  Uiso   1.00
H264   H     0.48924   0.55646   0.09018   0.00000  Uiso   1.00
N265   N     0.48029   0.48550   0.23739   0.00000  Uiso   1.00
N266   N     0.51971   0.51450   0.26260   0.00000  Uiso   1.00
O267   O     0.63052   0.57964   0.25309   0.00000  Uiso   1.00
O268   O     0.51786   0.40987   0.19485   0.00000  Uiso   1.00
O269   O     0.51617   0.52377   0.34540   0.00000  Uiso   1.00
O270   O     0.48214   0.59012   0.30515   0.00000  Uiso   1.00
O271   O     0.36948   0.42036   0.24691   0.00000  Uiso   1.00
O272   O     0.39155   0.57035   0.24501   0.00000  Uiso   1.00
O273   O     0.60845   0.42965   0.25498   0.00000  Uiso   1.00
O274   O     0.63662   0.50730   0.32247   0.00000  Uiso   1.00
O275   O     0.36338   0.49270   0.17753   0.00000  Uiso   1.00
O276   O     0.39764   0.49801   0.31439   0.00000  Uiso   1.00
O277   O     0.60236   0.50199   0.18561   0.00000  Uiso   1.00
O278   O     0.48382   0.47622   0.15460   0.00000  Uiso   1.00
Zn279  Zn    0.60366   0.50621   0.25539   0.00000  Uiso   1.00
Zn280  Zn    0.39634   0.49379   0.24460   0.00000  Uiso   1.00
C281   C     0.68154   0.59808   0.24887   0.00000  Uiso   1.00
C282   C     0.97917   0.49617   0.15905   0.00000  Uiso   1.00
C283   C     0.69785   0.50956   0.39358   0.00000  Uiso   1.00
C284   C     0.96882   0.49043   0.10642   0.00000  Uiso   1.00
C285   C     0.68565   0.55526   0.47169   0.00000  Uiso   1.00
C286   C     0.98100   0.44471   0.02832   0.00000  Uiso   1.00
C287   C     0.99982   0.54178   0.42342   0.00000  Uiso   1.00
C288   C     0.66684   0.45820   0.07659   0.00000  Uiso   1.00
C289   C     0.74545   0.48808   0.41260   0.00000  Uiso   1.00
C290   C     0.92122   0.51191   0.08740   0.00000  Uiso   1.00
C291   C     0.76850   0.50458   0.45939   0.00000  Uiso   1.00
C292   C     0.98513   0.40192   0.25113   0.00000  Uiso   1.00
C293   C     0.89815   0.49539   0.04062   0.00000  Uiso   1.00
C294   C     0.73724   0.53822   0.48938   0.00000  Uiso   1.00
C295   C     0.92941   0.46175   0.01063   0.00000  Uiso   1.00
C296   C     0.82254   0.49038   0.47620   0.00000  Uiso   1.00
C297   C     0.84411   0.50959   0.02380   0.00000  Uiso   1.00
C298   C     0.82859   0.45863   0.19368   0.00000  Uiso   1.00
C299   C     0.83808   0.54136   0.30632   0.00000  Uiso   1.00
C300   C     0.81035   0.54128   0.05338   0.00000  Uiso   1.00
C301   C     0.85630   0.45868   0.44663   0.00000  Uiso   1.00
C302   C     0.75810   0.55525   0.03631   0.00000  Uiso   1.00
C303   C     0.90854   0.44470   0.46370   0.00000  Uiso   1.00
C304   C     0.68928   0.65265   0.24819   0.00000  Uiso   1.00
C305   C     0.97739   0.34735   0.25181   0.00000  Uiso   1.00
C306   C     0.68749   0.50383   0.34095   0.00000  Uiso   1.00
H307   H     0.73413   0.58014   0.05992   0.00000  Uiso   1.00
H308   H     0.84407   0.44348   0.40984   0.00000  Uiso   1.00
H309   H     0.73199   0.33621   0.24472   0.00000  Uiso   1.00
H310   H     0.93467   0.66379   0.25528   0.00000  Uiso   1.00
H311   H     0.85894   0.39412   0.16110   0.00000  Uiso   1.00
H312   H     0.80773   0.60588   0.33890   0.00000  Uiso   1.00
H313   H     0.93252   0.41981   0.44009   0.00000  Uiso   1.00
H314   H     0.90166   0.53945   0.11141   0.00000  Uiso   1.00
H315   H     0.76502   0.46055   0.38858   0.00000  Uiso   1.00
H316   H     0.70446   0.44178   0.09105   0.00000  Uiso   1.00
H317   H     0.96219   0.55820   0.40896   0.00000  Uiso   1.00
H318   H     0.99484   0.58075   0.49452   0.00000  Uiso   1.00
H319   H     0.67181   0.41921   0.00549   0.00000  Uiso   1.00
H320   H     0.82258   0.55646   0.09018   0.00000  Uiso   1.00
N321   N     0.81362   0.48550   0.23739   0.00000  Uiso   1.00
N322   N     0.85305   0.51450   0.26260   0.00000  Uiso   1.00
O323   O     0.96386   0.57964   0.25309   0.00000  Uiso   1.00
O324   O     0.85119   0.40987   0.19485   0.00000  Uiso   1.00
O325   O     0.84951   0.52377   0.34540   0.00000  Uiso   1.00
O326   O     0.81548   0.59012   0.30515   0.00000  Uiso   1.00
O327   O     0.70281   0.42036   0.24691   0.00000  Uiso   1.00
O328   O     0.72488   0.57035   0.24501   0.00000  Uiso   1.00
O329   O     0.94178   0.42965   0.25498   0.00000  Uiso   1.00
O330   O     0.96995   0.50730   0.32247   0.00000  Uiso   1.00
O331   O     0.69672   0.49270   0.17753   0.00000  Uiso   1.00
O332   O     0.73098   0.49801   0.31439   0.00000  Uiso   1.00
O333   O     0.93569   0.50199   0.18561   0.00000  Uiso   1.00
O334   O     0.81716   0.47622   0.15460   0.00000  Uiso   1.00
Zn335  Zn    0.93700   0.50621   0.25539   0.00000  Uiso   1.00
Zn336  Zn    0.72967   0.49379   0.24460   0.00000  Uiso   1.00
C337   C     0.01487   0.93142   0.24887   0.00000  Uiso   1.00
C338   C     0.31251   0.82951   0.15905   0.00000  Uiso   1.00
C339   C     0.03118   0.84290   0.39358   0.00000  Uiso   1.00
C340   C     0.30215   0.82376   0.10642   0.00000  Uiso   1.00
C341   C     0.01899   0.88859   0.47169   0.00000  Uiso   1.00
C342   C     0.31433   0.77804   0.02832   0.00000  Uiso   1.00
C343   C     0.33315   0.87511   0.42342   0.00000  Uiso   1.00
C344   C     0.00017   0.79153   0.07659   0.00000  Uiso   1.00
C345   C     0.07878   0.82141   0.41260   0.00000  Uiso   1.00
C346   C     0.25455   0.84524   0.08740   0.00000  Uiso   1.00
C347   C     0.10184   0.83791   0.45939   0.00000  Uiso   1.00
C348   C     0.31846   0.73525   0.25113   0.00000  Uiso   1.00
C349   C     0.23148   0.82873   0.04062   0.00000  Uiso   1.00
C350   C     0.07057   0.87155   0.48938   0.00000  Uiso   1.00
C351   C     0.26275   0.79508   0.01063   0.00000  Uiso   1.00
C352   C     0.15588   0.82371   0.47620   0.00000  Uiso   1.00
C353   C     0.17744   0.84292   0.02380   0.00000  Uiso   1.00
C354   C     0.16192   0.79197   0.19368   0.00000  Uiso   1.00
C355   C     0.17141   0.87470   0.30632   0.00000  Uiso   1.00
C356   C     0.14368   0.87461   0.05338   0.00000  Uiso   1.00
C357   C     0.18963   0.79201   0.44663   0.00000  Uiso   1.00
C358   C     0.09144   0.88859   0.03631   0.00000  Uiso   1.00
C359   C     0.24188   0.77803   0.46370   0.00000  Uiso   1.00
C360   C     0.02261   0.98598   0.24819   0.00000  Uiso   1.00
C361   C     0.31072   0.68068   0.25181   0.00000  Uiso   1.00
C362   C     0.02083   0.83716   0.34095   0.00000  Uiso   1.00
H363   H     0.06746   0.91347   0.05992   0.00000  Uiso   1.00
H364   H     0.17740   0.77681   0.40984   0.00000  Uiso   1.00
H365   H     0.06533   0.66955   0.24472   0.00000  Uiso   1.00
H366   H     0.26801   0.99712   0.25528   0.00000  Uiso   1.00
H367   H     0.19227   0.72745   0.16110   0.00000  Uiso   1.00
H368   H     0.14106   0.93921   0.33890   0.00000  Uiso   1.00
H369   H     0.26585   0.75314   0.44009   0.00000  Uiso   1.00
H370   H     0.23499   0.87278   0.11141   0.00000  Uiso   1.00
H371   H     0.09835   0.79389   0.38858   0.00000  Uiso   1.00
H372   H     0.03780   0.77511   0.09105   0.00000  Uiso   1.00
H373   H     0.29553   0.89153   0.40896   0.00000  Uiso   1.00
H374   H     0.32817   0.91408   0.49452   0.00000  Uiso   1.00
H375   H     0.00514   0.75254   0.00549   0.00000  Uiso   1.00
H376   H     0.15591   0.88980   0.09018   0.00000  Uiso   1.00
N377   N     0.14695   0.81883   0.23739   0.00000  Uiso   1.00
N378   N     0.18638   0.84784   0.26260   0.00000  Uiso   1.00
O379   O     0.29719   0.91298   0.25309   0.00000  Uiso   1.00
O380   O     0.18452   0.74321   0.19485   0.00000  Uiso   1.00
O381   O     0.18284   0.85711   0.34540   0.00000  Uiso   1.00
O382   O     0.14881   0.92346   0.30515   0.00000  Uiso   1.00
O383   O     0.03614   0.75369   0.24691   0.00000  Uiso   1.00
O384   O     0.05822   0.90368   0.24501   0.00000  Uiso   1.00
O385   O     0.27512   0.76298   0.25498   0.00000  Uiso   1.00
O386   O     0.30328   0.84063   0.32247   0.00000  Uiso   1.00
O387   O     0.03005   0.82603   0.17753   0.00000  Uiso   1.00
O388   O     0.06431   0.83134   0.31439   0.00000  Uiso   1.00
O389   O     0.26902   0.83533   0.18561   0.00000  Uiso   1.00
O390   O     0.15049   0.80955   0.15460   0.00000  Uiso   1.00
Zn391  Zn    0.27033   0.83954   0.25539   0.00000  Uiso   1.00
Zn392  Zn    0.06300   0.82713   0.24460   0.00000  Uiso   1.00
C393   C     0.34820   0.93142   0.24887   0.00000  Uiso   1.00
C394   C     0.64584   0.82951   0.15905   0.00000  Uiso   1.00
C395   C     0.36451   0.84290   0.39358   0.00000  Uiso   1.00
C396   C     0.63548   0.82376   0.10642   0.00000  Uiso   1.00
C397   C     0.35232   0.88859   0.47169   0.00000  Uiso   1.00
C398   C     0.64767   0.77804   0.02832   0.00000  Uiso   1.00
C399   C     0.66648   0.87511   0.42342   0.00000  Uiso   1.00
C400   C     0.33351   0.79153   0.07659   0.00000  Uiso   1.00
C401   C     0.41211   0.82141   0.41260   0.00000  Uiso   1.00
C402   C     0.58788   0.84524   0.08740   0.00000  Uiso   1.00
C403   C     0.43517   0.83791   0.45939   0.00000  Uiso   1.00
C404   C     0.65180   0.73525   0.25113   0.00000  Uiso   1.00
C405   C     0.56482   0.82873   0.04062   0.00000  Uiso   1.00
C406   C     0.40391   0.87155   0.48938   0.00000  Uiso   1.00
C407   C     0.59608   0.79508   0.01063   0.00000  Uiso   1.00
C408   C     0.48921   0.82371   0.47620   0.00000  Uiso   1.00
C409   C     0.51078   0.84292   0.02380   0.00000  Uiso   1.00
C410   C     0.49525   0.79197   0.19368   0.00000  Uiso   1.00
C411   C     0.50475   0.87470   0.30632   0.00000  Uiso   1.00
C412   C     0.47702   0.87461   0.05338   0.00000  Uiso   1.00
C413   C     0.52296   0.79201   0.44663   0.00000  Uiso   1.00
C414   C     0.42477   0.88859   0.03631   0.00000  Uiso   1.00
C415   C     0.57521   0.77803   0.46370   0.00000  Uiso   1.00
C416   C     0.35595   0.98598   0.24819   0.00000  Uiso   1.00
C417   C     0.64405   0.68068   0.25181   0.00000  Uiso   1.00
C418   C     0.35416   0.83716   0.34095   0.00000  Uiso   1.00
H419   H     0.40079   0.91347   0.05992   0.00000  Uiso   1.00
H420   H     0.51073   0.77681   0.40984   0.00000  Uiso   1.00
H421   H     0.39866   0.66955   0.24472   0.00000  Uiso   1.00
H422   H     0.60134   0.99712   0.25528   0.00000  Uiso   1.00
H423   H     0.52560   0.72745   0.16110   0.00000  Uiso   1.00
H424   H     0.47440   0.93921   0.33890   0.00000  Uiso   1.00
H425   H     0.59918   0.75314   0.44009   0.00000  Uiso   1.00
H426   H     0.56833   0.87278   0.11141   0.00000  Uiso   1.00
H427   H     0.43168   0.79389   0.38858   0.00000  Uiso   1.00
H428   H     0.37113   0.77511   0.09105   0.00000  Uiso   1.00
H429   H     0.62886   0.89153   0.40896   0.00000  Uiso   1.00
H430   H     0.66151   0.91408   0.49452   0.00000  Uiso   1.00
H431   H     0.33848   0.75254   0.00549   0.00000  Uiso   1.00
H432   H     0.48924   0.88980   0.09018   0.00000  Uiso   1.00
N433   N     0.48029   0.81883   0.23739   0.00000  Uiso   1.00
N434   N     0.51971   0.84784   0.26260   0.00000  Uiso   1.00
O435   O     0.63052   0.91298   0.25309   0.00000  Uiso   1.00
O436   O     0.51786   0.74321   0.19485   0.00000  Uiso   1.00
O437   O     0.51617   0.85711   0.34540   0.00000  Uiso   1.00
O438   O     0.48214   0.92346   0.30515   0.00000  Uiso   1.00
O439   O     0.36948   0.75369   0.24691   0.00000  Uiso   1.00
O440   O     0.39155   0.90368   0.24501   0.00000  Uiso   1.00
O441   O     0.60845   0.76298   0.25498   0.00000  Uiso   1.00
O442   O     0.63662   0.84063   0.32247   0.00000  Uiso   1.00
O443   O     0.36338   0.82603   0.17753   0.00000  Uiso   1.00
O444   O     0.39764   0.83134   0.31439   0.00000  Uiso   1.00
O445   O     0.60236   0.83533   0.18561   0.00000  Uiso   1.00
O446   O     0.48382   0.80955   0.15460   0.00000  Uiso   1.00
Zn447  Zn    0.60366   0.83954   0.25539   0.00000  Uiso   1.00
Zn448  Zn    0.39634   0.82713   0.24460   0.00000  Uiso   1.00
C449   C     0.68154   0.93142   0.24887   0.00000  Uiso   1.00
C450   C     0.97917   0.82951   0.15905   0.00000  Uiso   1.00
C451   C     0.69785   0.84290   0.39358   0.00000  Uiso   1.00
C452   C     0.96882   0.82376   0.10642   0.00000  Uiso   1.00
C453   C     0.68565   0.88859   0.47169   0.00000  Uiso   1.00
C454   C     0.98100   0.77804   0.02832   0.00000  Uiso   1.00
C455   C     0.99982   0.87511   0.42342   0.00000  Uiso   1.00
C456   C     0.66684   0.79153   0.07659   0.00000  Uiso   1.00
C457   C     0.74545   0.82141   0.41260   0.00000  Uiso   1.00
C458   C     0.92122   0.84524   0.08740   0.00000  Uiso   1.00
C459   C     0.76850   0.83791   0.45939   0.00000  Uiso   1.00
C460   C     0.98513   0.73525   0.25113   0.00000  Uiso   1.00
C461   C     0.89815   0.82873   0.04062   0.00000  Uiso   1.00
C462   C     0.73724   0.87155   0.48938   0.00000  Uiso   1.00
C463   C     0.92941   0.79508   0.01063   0.00000  Uiso   1.00
C464   C     0.82254   0.82371   0.47620   0.00000  Uiso   1.00
C465   C     0.84411   0.84292   0.02380   0.00000  Uiso   1.00
C466   C     0.82859   0.79197   0.19368   0.00000  Uiso   1.00
C467   C     0.83808   0.87470   0.30632   0.00000  Uiso   1.00
C468   C     0.81035   0.87461   0.05338   0.00000  Uiso   1.00
C469   C     0.85630   0.79201   0.44663   0.00000  Uiso   1.00
C470   C     0.75810   0.88859   0.03631   0.00000  Uiso   1.00
C471   C     0.90854   0.77803   0.46370   0.00000  Uiso   1.00
C472   C     0.68928   0.98598   0.24819   0.00000  Uiso   1.00
C473   C     0.97739   0.68068   0.25181   0.00000  Uiso   1.00
C474   C     0.68749   0.83716   0.34095   0.00000  Uiso   1.00
H475   H     0.73413   0.91347   0.05992   0.00000  Uiso   1.00
H476   H     0.84407   0.77681   0.40984   0.00000  Uiso   1.00
H477   H     0.73199   0.66955   0.24472   0.00000  Uiso   1.00
H478   H     0.93467   0.99712   0.25528   0.00000  Uiso   1.00
H479   H     0.85894   0.72745   0.16110   0.00000  Uiso   1.00
H480   H     0.80773   0.93921   0.33890   0.00000  Uiso   1.00
H481   H     0.93252   0.75314   0.44009   0.00000  Uiso   1.00
H482   H     0.90166   0.87278   0.11141   0.00000  Uiso   1.00
H483   H     0.76502   0.79389   0.38858   0.00000  Uiso   1.00
H484   H     0.70446   0.77511   0.09105   0.00000  Uiso   1.00
H485   H     0.96219   0.89153   0.40896   0.00000  Uiso   1.00
H486   H     0.99484   0.91408   0.49452   0.00000  Uiso   1.00
H487   H     0.67181   0.75254   0.00549   0.00000  Uiso   1.00
H488   H     0.82258   0.88980   0.09018   0.00000  Uiso   1.00
N489   N     0.81362   0.81883   0.23739   0.00000  Uiso   1.00
N490   N     0.85305   0.84784   0.26260   0.00000  Uiso   1.00
O491   O     0.96386   0.91298   0.25309   0.00000  Uiso   1.00
O492   O     0.85119   0.74321   0.19485   0.00000  Uiso   1.00
O493   O     0.84951   0.85711   0.34540   0.00000  Uiso   1.00
O494   O     0.81548   0.92346   0.30515   0.00000  Uiso   1.00
O495   O     0.70281   0.75369   0.24691   0.00000  Uiso   1.00
O496   O     0.72488   0.90368   0.24501   0.00000  Uiso   1.00
O497   O     0.94178   0.76298   0.25498   0.00000  Uiso   1.00
O498   O     0.96995   0.84063   0.32247   0.00000  Uiso   1.00
O499   O     0.69672   0.82603   0.17753   0.00000  Uiso   1.00
O500   O     0.73098   0.83134   0.31439   0.00000  Uiso   1.00
O501   O     0.93569   0.83533   0.18561   0.00000  Uiso   1.00
O502   O     0.81716   0.80955   0.15460   0.00000  Uiso   1.00
Zn503  Zn    0.93700   0.83954   0.25539   0.00000  Uiso   1.00
Zn504  Zn    0.72967   0.82713   0.24460   0.00000  Uiso   1.00
C505   C     0.01487   0.26475   0.74887   0.00000  Uiso   1.00
C506   C     0.31251   0.16284   0.65905   0.00000  Uiso   1.00
C507   C     0.03118   0.17623   0.89358   0.00000  Uiso   1.00
C508   C     0.30215   0.15709   0.60642   0.00000  Uiso   1.00
C509   C     0.01899   0.22192   0.97169   0.00000  Uiso   1.00
C510   C     0.31433   0.11138   0.52832   0.00000  Uiso   1.00
C511   C     0.33315   0.20845   0.92342   0.00000  Uiso   1.00
C512   C     0.00017   0.12486   0.57659   0.00000  Uiso   1.00
C513   C     0.07878   0.15474   0.91260   0.00000  Uiso   1.00
C514   C     0.25455   0.17858   0.58740   0.00000  Uiso   1.00
C515   C     0.10184   0.17124   0.95939   0.00000  Uiso   1.00
C516   C     0.31846   0.06858   0.75113   0.00000  Uiso   1.00
C517   C     0.23148   0.16206   0.54062   0.00000  Uiso   1.00
C518   C     0.07057   0.20488   0.98938   0.00000  Uiso   1.00
C519   C     0.26275   0.12841   0.51063   0.00000  Uiso   1.00
C520   C     0.15588   0.15704   0.97620   0.00000  Uiso   1.00
C521   C     0.17744   0.17625   0.52380   0.00000  Uiso   1.00
C522   C     0.16192   0.12530   0.69368   0.00000  Uiso   1.00
C523   C     0.17141   0.20803   0.80632   0.00000  Uiso   1.00
C524   C     0.14368   0.20794   0.55338   0.00000  Uiso   1.00
C525   C     0.18963   0.12535   0.94663   0.00000  Uiso   1.00
C526   C     0.09144   0.22192   0.53631   0.00000  Uiso   1.00
C527   C     0.24188   0.11137   0.96370   0.00000  Uiso   1.00
C528   C     0.02261   0.31932   0.74819   0.00000  Uiso   1.00
C529   C     0.31072   0.01402   0.75181   0.00000  Uiso   1.00
C530   C     0.02083   0.17049   0.84095   0.00000  Uiso   1.00
H531   H     0.06746   0.24680   0.55992   0.00000  Uiso   1.00
H532   H     0.17740   0.11015   0.90984   0.00000  Uiso   1.00
H533   H     0.06533   0.00288   0.74472   0.00000  Uiso   1.00
H534   H     0.26801   0.33045   0.75528   0.00000  Uiso   1.00
H535   H     0.19227   0.06079   0.66110   0.00000  Uiso   1.00
H536   H     0.14106   0.27254   0.83890   0.00000  Uiso   1.00
H537   H     0.26585   0.08648   0.94009   0.00000  Uiso   1.00
H538   H     0.23499   0.20612   0.61141   0.00000  Uiso   1.00
H539   H     0.09835   0.12722   0.88858   0.00000  Uiso   1.00
H540   H     0.03780   0.10845   0.59105   0.00000  Uiso   1.00
H541   H     0.29553   0.22486   0.90896   0.00000  Uiso   1.00
H542   H     0.32817   0.24742   0.99452   0.00000  Uiso   1.00
H543   H     0.00514   0.08587   0.50549   0.00000  Uiso   1.00
H544   H     0.15591   0.22313   0.59018   0.00000  Uiso   1.00
N545   N     0.14695   0.15216   0.73739   0.00000  Uiso   1.00
N546   N     0.18638   0.18117   0.76260   0.00000  Uiso   1.00
O547   O     0.29719   0.24631   0.75309   0.00000  Uiso   1.00
O548   O     0.18452   0.07654   0.69485   0.00000  Uiso   1.00
O549   O     0.18284   0.19044   0.84540   0.00000  Uiso   1.00
O550   O     0.14881   0.25679   0.80515   0.00000  Uiso   1.00
O551   O     0.03614   0.08702   0.74691   0.00000  Uiso   1.00
O552   O     0.05822   0.23702   0.74501   0.00000  Uiso   1.00
O553   O     0.27512   0.09632   0.75498   0.00000  Uiso   1.00
O554   O     0.30328   0.17397   0.82247   0.00000  Uiso   1.00
O555   O     0.03005   0.15937   0.67753   0.00000  Uiso   1.00
O556   O     0.06431   0.16467   0.81439   0.00000  Uiso   1.00
O557   O     0.26902   0.16866   0.68561   0.00000  Uiso   1.00
O558   O     0.15049   0.14289   0.65460   0.00000  Uiso   1.00
Zn559  Zn    0.27033   0.17287   0.75539   0.00000  Uiso   1.00
Zn560  Zn    0.06300   0.16046   0.74460   0.00000  Uiso   1.00
C561   C     0.34820   0.26475   0.74887   0.00000  Uiso   1.00
C562   C     0.64584   0.16284   0.65905   0.00000  Uiso   1.00
C563   C     0.36451   0.17623   0.89358   0.00000  Uiso   1.00
C564   C     0.63548   0.15709   0.60642   0.00000  Uiso   1.00
C565   C     0.35232   0.22192   0.97169   0.00000  Uiso   1.00
C566   C     0.64767   0.11138   0.52832   0.00000  Uiso   1.00
C567   C     0.66648   0.20845   0.92342   0.00000  Uiso   1.00
C568   C     0.33351   0.12486   0.57659   0.00000  Uiso   1.00
C569   C     0.41211   0.15474   0.91260   0.00000  Uiso   1.00
C570   C     0.58788   0.17858   0.58740   0.00000  Uiso   1.00
C571   C     0.43517   0.17124   0.95939   0.00000  Uiso   1.00
C572   C     0.65180   0.06858   0.75113   0.00000  Uiso   1.00
C573   C     0.56482   0.16206   0.54062   0.00000  Uiso   1.00
C574   C     0.40391   0.20488   0.98938   0.00000  Uiso   1.00
C575   C     0.59608   0.12841   0.51063   0.00000  Uiso   1.00
C576   C     0.48921   0.15704   0.97620   0.00000  Uiso   1.00
C577   C     0.51078   0.17625   0.52380   0.00000  Uiso   1.00
C578   C     0.49525   0.12530   0.69368   0.00000  Uiso   1.00
C579   C     0.50475   0.20803   0.80632   0.00000  Uiso   1.00
C580   C     0.47702   0.20794   0.55338   0.00000  Uiso   1.00
C581   C     0.52296   0.12535   0.94663   0.00000  Uiso   1.00
C582   C     0.42477   0.22192   0.53631   0.00000  Uiso   1.00
C583   C     0.57521   0.11137   0.96370   0.00000  Uiso   1.00
C584   C     0.35595   0.31932   0.74819   0.00000  Uiso   1.00
C585   C     0.64405   0.01402   0.75181   0.00000  Uiso   1.00
C586   C     0.35416   0.17049   0.84095   0.00000  Uiso   1.00
H587   H     0.40079   0.24680   0.55992   0.00000  Uiso   1.00
H588   H     0.51073   0.11015   0.90984   0.00000  Uiso   1.00
H589   H     0.39866   0.00288   0.74472   0.00000  Uiso   1.00
H590   H     0.60134   0.33045   0.75528   0.00000  Uiso   1.00
H591   H     0.52560   0.06079   0.66110   0.00000  Uiso   1.00
H592   H     0.47440   0.27254   0.83890   0.00000  Uiso   1.00
H593   H     0.59918   0.08648   0.94009   0.00000  Uiso   1.00
H594   H     0.56833   0.20612   0.61141   0.00000  Uiso   1.00
H595   H     0.43168   0.12722   0.88858   0.00000  Uiso   1.00
H596   H     0.37113   0.10845   0.59105   0.00000  Uiso   1.00
H597   H     0.62886   0.22486   0.90896   0.00000  Uiso   1.00
H598   H     0.66151   0.24742   0.99452   0.00000  Uiso   1.00
H599   H     0.33848   0.08587   0.50549   0.00000  Uiso   1.00
H600   H     0.48924   0.22313   0.59018   0.00000  Uiso   1.00
N601   N     0.48029   0.15216   0.73739   0.00000  Uiso   1.00
N602   N     0.51971   0.18117   0.76260   0.00000  Uiso   1.00
O603   O     0.63052   0.24631   0.75309   0.00000  Uiso   1.00
O604   O     0.51786   0.07654   0.69485   0.00000  Uiso   1.00
O605   O     0.51617   0.19044   0.84540   0.00000  Uiso   1.00
O606   O     0.48214   0.25679   0.80515   0.00000  Uiso   1.00
O607   O     0.36948   0.08702   0.74691   0.00000  Uiso   1.00
O608   O     0.39155   0.23702   0.74501   0.00000  Uiso   1.00
O609   O     0.60845   0.09632   0.75498   0.00000  Uiso   1.00
O610   O     0.63662   0.17397   0.82247   0.00000  Uiso   1.00
O611   O     0.36338   0.15937   0.67753   0.00000  Uiso   1.00
O612   O     0.39764   0.16467   0.81439   0.00000  Uiso   1.00
O613   O     0.60236   0.16866   0.68561   0.00000  Uiso   1.00
O614   O     0.48382   0.14289   0.65460   0.00000  Uiso   1.00
Zn615  Zn    0.60366   0.17287   0.75539   0.00000  Uiso   1.00
Zn616  Zn    0.39634   0.16046   0.74460   0.00000  Uiso   1.00
C617   C     0.68154   0.26475   0.74887   0.00000  Uiso   1.00
C618   C     0.97917   0.16284   0.65905   0.00000  Uiso   1.00
C619   C     0.69785   0.17623   0.89358   0.00000  Uiso   1.00
C620   C     0.96882   0.15709   0.60642   0.00000  Uiso   1.00
C621   C     0.68565   0.22192   0.97169   0.00000  Uiso   1.00
C622   C     0.98100   0.11138   0.52832   0.00000  Uiso   1.00
C623   C     0.99982   0.20845   0.92342   0.00000  Uiso   1.00
C624   C     0.66684   0.12486   0.57659   0.00000  Uiso   1.00
C625   C     0.74545   0.15474   0.91260   0.00000  Uiso   1.00
C626   C     0.92122   0.17858   0.58740   0.00000  Uiso   1.00
C627   C     0.76850   0.17124   0.95939   0.00000  Uiso   1.00
C628   C     0.98513   0.06858   0.75113   0.00000  Uiso   1.00
C629   C     0.89815   0.16206   0.54062   0.00000  Uiso   1.00
C630   C     0.73724   0.20488   0.98938   0.00000  Uiso   1.00
C631   C     0.92941   0.12841   0.51063   0.00000  Uiso   1.00
C632   C     0.82254   0.15704   0.97620   0.00000  Uiso   1.00
C633   C     0.84411   0.17625   0.52380   0.00000  Uiso   1.00
C634   C     0.82859   0.12530   0.69368   0.00000  Uiso   1.00
C635   C     0.83808   0.20803   0.80632   0.00000  Uiso   1.00
C636   C     0.81035   0.20794   0.55338   0.00000  Uiso   1.00
C637   C     0.85630   0.12535   0.94663   0.00000  Uiso   1.00
C638   C     0.75810   0.22192   0.53631   0.00000  Uiso   1.00
C639   C     0.90854   0.11137   0.96370   0.00000  Uiso   1.00
C640   C     0.68928   0.31932   0.74819   0.00000  Uiso   1.00
C641   C     0.97739   0.01402   0.75181   0.00000  Uiso   1.00
C642   C     0.68749   0.17049   0.84095   0.00000  Uiso   1.00
H643   H     0.73413   0.24680   0.55992   0.00000  Uiso   1.00
H644   H     0.84407   0.11015   0.90984   0.00000  Uiso   1.00
H645   H     0.73199   0.00288   0.74472   0.00000  Uiso   1.00
H646   H     0.93467   0.33045   0.75528   0.00000  Uiso   1.00
H647   H     0.85894   0.06079   0.66110   0.00000  Uiso   1.00
H648   H     0.80773   0.27254   0.83890   0.00000  Uiso   1.00
H649   H     0.93252   0.08648   0.94009   0.00000  Uiso   1.00
H650   H     0.90166   0.20612   0.61141   0.00000  Uiso   1.00
H651   H     0.76502   0.12722   0.88858   0.00000  Uiso   1.00
H652   H     0.70446   0.10845   0.59105   0.00000  Uiso   1.00
H653   H     0.96219   0.22486   0.90896   0.00000  Uiso   1.00
H654   H     0.99484   0.24742   0.99452   0.00000  Uiso   1.00
H655   H     0.67181   0.08587   0.50549   0.00000  Uiso   1.00
H656   H     0.82258   0.22313   0.59018   0.00000  Uiso   1.00
N657   N     0.81362   0.15216   0.73739   0.00000  Uiso   1.00
N658   N     0.85305   0.18117   0.76260   0.00000  Uiso   1.00
O659   O     0.96386   0.24631   0.75309   0.00000  Uiso   1.00
O660   O     0.85119   0.07654   0.69485   0.00000  Uiso   1.00
O661   O     0.84951   0.19044   0.84540   0.00000  Uiso   1.00
O662   O     0.81548   0.25679   0.80515   0.00000  Uiso   1.00
O663   O     0.70281   0.08702   0.74691   0.00000  Uiso   1.00
O664   O     0.72488   0.23702   0.74501   0.00000  Uiso   1.00
O665   O     0.94178   0.09632   0.75498   0.00000  Uiso   1.00
O666   O     0.96995   0.17397   0.82247   0.00000  Uiso   1.00
O667   O     0.69672   0.15937   0.67753   0.00000  Uiso   1.00
O668   O     0.73098   0.16467   0.81439   0.00000  Uiso   1.00
O669   O     0.93569   0.16866   0.68561   0.00000  Uiso   1.00
O670   O     0.81716   0.14289   0.65460   0.00000  Uiso   1.00
Zn671  Zn    0.93700   0.17287   0.75539   0.00000  Uiso   1.00
Zn672  Zn    0.72967   0.16046   0.74460   0.00000  Uiso   1.00
C673   C     0.01487   0.59808   0.74887   0.00000  Uiso   1.00
C674   C     0.31251   0.49617   0.65905   0.00000  Uiso   1.00
C675   C     0.03118   0.50956   0.89358   0.00000  Uiso   1.00
C676   C     0.30215   0.49043   0.60642   0.00000  Uiso   1.00
C677   C     0.01899   0.55526   0.97169   0.00000  Uiso   1.00
C678   C     0.31433   0.44471   0.52832   0.00000  Uiso   1.00
C679   C     0.33315   0.54178   0.92342   0.00000  Uiso   1.00
C680   C     0.00017   0.45820   0.57659   0.00000  Uiso   1.00
C681   C     0.07878   0.48808   0.91260   0.00000  Uiso   1.00
C682   C     0.25455   0.51191   0.58740   0.00000  Uiso   1.00
C683   C     0.10184   0.50458   0.95939   0.00000  Uiso   1.00
C684   C     0.31846   0.40192   0.75113   0.00000  Uiso   1.00
C685   C     0.23148   0.49539   0.54062   0.00000  Uiso   1.00
C686   C     0.07057   0.53822   0.98938   0.00000  Uiso   1.00
C687   C     0.26275   0.46175   0.51063   0.00000  Uiso   1.00
C688   C     0.15588   0.49038   0.97620   0.00000  Uiso   1.00
C689   C     0.17744   0.50959   0.52380   0.00000  Uiso   1.00
C690   C     0.16192   0.45863   0.69368   0.00000  Uiso   1.00
C691   C     0.17141   0.54136   0.80632   0.00000  Uiso   1.00
C692   C     0.14368   0.54128   0.55338   0.00000  Uiso   1.00
C693   C     0.18963   0.45868   0.94663   0.00000  Uiso   1.00
C694   C     0.09144   0.55525   0.53631   0.00000  Uiso   1.00
C695   C     0.24188   0.44470   0.96370   0.00000  Uiso   1.00
C696   C     0.02261   0.65265   0.74819   0.00000  Uiso   1.00
C697   C     0.31072   0.34735   0.75181   0.00000  Uiso   1.00
C698   C     0.02083   0.50383   0.84095   0.00000  Uiso   1.00
H699   H     0.06746   0.58014   0.55992   0.00000  Uiso   1.00
H700   H     0.17740   0.44348   0.90984   0.00000  Uiso   1.00
H701   H     0.06533   0.33621   0.74472   0.00000  Uiso   1.00
H702   H     0.26801   0.66379   0.75528   0.00000  Uiso   1.00
H703   H     0.19227   0.39412   0.66110   0.00000  Uiso   1.00
H704   H     0.14106   0.60588   0.83890   0.00000  Uiso   1.00
H705   H     0.26585   0.41981   0.94009   0.00000  Uiso   1.00
H706   H     0.23499   0.53945   0.61141   0.00000  Uiso   1.00
H707   H     0.09835   0.46055   0.88858   0.00000  Uiso   1.00
H708   H     0.03780   0.44178   0.59105   0.00000  Uiso   1.00
H709   H     0.29553   0.55820   0.90896   0.00000  Uiso   1.00
H710   H     0.32817   0.58075   0.99452   0.00000  Uiso   1.00
H711   H     0.00514   0.41921   0.50549   0.00000  Uiso   1.00
H712   H     0.15591   0.55646   0.59018   0.00000  Uiso   1.00
N713   N     0.14695   0.48550   0.73739   0.00000  Uiso   1.00
N714   N     0.18638   0.51450   0.76260   0.00000  Uiso   1.00
O715   O     0.29719   0.57964   0.75309   0.00000  Uiso   1.00
O716   O     0.18452   0.40987   0.69485   0.00000  Uiso   1.00
O717   O     0.18284   0.52377   0.84540   0.00000  Uiso   1.00
O718   O     0.14881   0.59012   0.80515   0.00000  Uiso   1.00
O719   O     0.03614   0.42036   0.74691   0.00000  Uiso   1.00
O720   O     0.05822   0.57035   0.74501   0.00000  Uiso   1.00
O721   O     0.27512   0.42965   0.75498   0.00000  Uiso   1.00
O722   O     0.30328   0.50730   0.82247   0.00000  Uiso   1.00
O723   O     0.03005   0.49270   0.67753   0.00000  Uiso   1.00
O724   O     0.06431   0.49801   0.81439   0.00000  Uiso   1.00
O725   O     0.26902   0.50199   0.68561   0.00000  Uiso   1.00
O726   O     0.15049   0.47622   0.65460   0.00000  Uiso   1.00
Zn727  Zn    0.27033   0.50621   0.75539   0.00000  Uiso   1.00
Zn728  Zn    0.06300   0.49379   0.74460   0.00000  Uiso   1.00
C729   C     0.34820   0.59808   0.74887   0.00000  Uiso   1.00
C730   C     0.64584   0.49617   0.65905   0.00000  Uiso   1.00
C731   C     0.36451   0.50956   0.89358   0.00000  Uiso   1.00
C732   C     0.63548   0.49043   0.60642   0.00000  Uiso   1.00
C733   C     0.35232   0.55526   0.97169   0.00000  Uiso   1.00
C734   C     0.64767   0.44471   0.52832   0.00000  Uiso   1.00
C735   C     0.66648   0.54178   0.92342   0.00000  Uiso   1.00
C736   C     0.33351   0.45820   0.57659   0.00000  Uiso   1.00
C737   C     0.41211   0.48808   0.91260   0.00000  Uiso   1.00
C738   C     0.58788   0.51191   0.58740   0.00000  Uiso   1.00
C739   C     0.43517   0.50458   0.95939   0.00000  Uiso   1.00
C740   C     0.65180   0.40192   0.75113   0.00000  Uiso   1.00
C741   C     0.56482   0.49539   0.54062   0.00000  Uiso   1.00
C742   C     0.40391   0.53822   0.98938   0.00000  Uiso   1.00
C743   C     0.59608   0.46175   0.51063   0.00000  Uiso   1.00
C744   C     0.48921   0.49038   0.97620   0.00000  Uiso   1.00
C745   C     0.51078   0.50959   0.52380   0.00000  Uiso   1.00
C746   C     0.49525   0.45863   0.69368   0.00000  Uiso   1.00
C747   C     0.50475   0.54136   0.80632   0.00000  Uiso   1.00
C748   C     0.47702   0.54128   0.55338   0.00000  Uiso   1.00
C749   C     0.52296   0.45868   0.94663   0.00000  Uiso   1.00
C750   C     0.42477   0.55525   0.53631   0.00000  Uiso   1.00
C751   C     0.57521   0.44470   0.96370   0.00000  Uiso   1.00
C752   C     0.35595   0.65265   0.74819   0.00000  Uiso   1.00
C753   C     0.64405   0.34735   0.75181   0.00000  Uiso   1.00
C754   C     0.35416   0.50383   0.84095   0.00000  Uiso   1.00
H755   H     0.40079   0.58014   0.55992   0.00000  Uiso   1.00
H756   H     0.51073   0.44348   0.90984   0.00000  Uiso   1.00
H757   H     0.39866   0.33621   0.74472   0.00000  Uiso   1.00
H758   H     0.60134   0.66379   0.75528   0.00000  Uiso   1.00
H759   H     0.52560   0.39412   0.66110   0.00000  Uiso   1.00
H760   H     0.47440   0.60588   0.83890   0.00000  Uiso   1.00
H761   H     0.59918   0.41981   0.94009   0.00000  Uiso   1.00
H762   H     0.56833   0.53945   0.61141   0.00000  Uiso   1.00
H763   H     0.43168   0.46055   0.88858   0.00000  Uiso   1.00
H764   H     0.37113   0.44178   0.59105   0.00000  Uiso   1.00
H765   H     0.62886   0.55820   0.90896   0.00000  Uiso   1.00
H766   H     0.66151   0.58075   0.99452   0.00000  Uiso   1.00
H767   H     0.33848   0.41921   0.50549   0.00000  Uiso   1.00
H768   H     0.48924   0.55646   0.59018   0.00000  Uiso   1.00
N769   N     0.48029   0.48550   0.73739   0.00000  Uiso   1.00
N770   N     0.51971   0.51450   0.76260   0.00000  Uiso   1.00
O771   O     0.63052   0.57964   0.75309   0.00000  Uiso   1.00
O772   O     0.51786   0.40987   0.69485   0.00000  Uiso   1.00
O773   O     0.51617   0.52377   0.84540   0.00000  Uiso   1.00
O774   O     0.48214   0.59012   0.80515   0.00000  Uiso   1.00
O775   O     0.36948   0.42036   0.74691   0.00000  Uiso   1.00
O776   O     0.39155   0.57035   0.74501   0.00000  Uiso   1.00
O777   O     0.60845   0.42965   0.75498   0.00000  Uiso   1.00
O778   O     0.63662   0.50730   0.82247   0.00000  Uiso   1.00
O779   O     0.36338   0.49270   0.67753   0.00000  Uiso   1.00
O780   O     0.39764   0.49801   0.81439   0.00000  Uiso   1.00
O781   O     0.60236   0.50199   0.68561   0.00000  Uiso   1.00
O782   O     0.48382   0.47622   0.65460   0.00000  Uiso   1.00
Zn783  Zn    0.60366   0.50621   0.75539   0.00000  Uiso   1.00
Zn784  Zn    0.39634   0.49379   0.74460   0.00000  Uiso   1.00
C785   C     0.68154   0.59808   0.74887   0.00000  Uiso   1.00
C786   C     0.97917   0.49617   0.65905   0.00000  Uiso   1.00
C787   C     0.69785   0.50956   0.89358   0.00000  Uiso   1.00
C788   C     0.96882   0.49043   0.60642   0.00000  Uiso   1.00
C789   C     0.68565   0.55526   0.97169   0.00000  Uiso   1.00
C790   C     0.98100   0.44471   0.52832   0.00000  Uiso   1.00
C791   C     0.99982   0.54178   0.92342   0.00000  Uiso   1.00
C792   C     0.66684   0.45820   0.57659   0.00000  Uiso   1.00
C793   C     0.74545   0.48808   0.91260   0.00000  Uiso   1.00
C794   C     0.92122   0.51191   0.58740   0.00000  Uiso   1.00
C795   C     0.76850   0.50458   0.95939   0.00000  Uiso   1.00
C796   C     0.98513   0.40192   0.75113   0.00000  Uiso   1.00
C797   C     0.89815   0.49539   0.54062   0.00000  Uiso   1.00
C798   C     0.73724   0.53822   0.98938   0.00000  Uiso   1.00
C799   C     0.92941   0.46175   0.51063   0.00000  Uiso   1.00
C800   C     0.82254   0.49038   0.97620   0.00000  Uiso   1.00
C801   C     0.84411   0.50959   0.52380   0.00000  Uiso   1.00
C802   C     0.82859   0.45863   0.69368   0.00000  Uiso   1.00
C803   C     0.83808   0.54136   0.80632   0.00000  Uiso   1.00
C804   C     0.81035   0.54128   0.55338   0.00000  Uiso   1.00
C805   C     0.85630   0.45868   0.94663   0.00000  Uiso   1.00
C806   C     0.75810   0.55525   0.53631   0.00000  Uiso   1.00
C807   C     0.90854   0.44470   0.96370   0.00000  Uiso   1.00
C808   C     0.68928   0.65265   0.74819   0.00000  Uiso   1.00
C809   C     0.97739   0.34735   0.75181   0.00000  Uiso   1.00
C810   C     0.68749   0.50383   0.84095   0.00000  Uiso   1.00
H811   H     0.73413   0.58014   0.55992   0.00000  Uiso   1.00
H812   H     0.84407   0.44348   0.90984   0.00000  Uiso   1.00
H813   H     0.73199   0.33621   0.74472   0.00000  Uiso   1.00
H814   H     0.93467   0.66379   0.75528   0.00000  Uiso   1.00
H815   H     0.85894   0.39412   0.66110   0.00000  Uiso   1.00
H816   H     0.80773   0.60588   0.83890   0.00000  Uiso   1.00
H817   H     0.93252   0.41981   0.94009   0.00000  Uiso   1.00
H818   H     0.90166   0.53945   0.61141   0.00000  Uiso   1.00
H819   H     0.76502   0.46055   0.88858   0.00000  Uiso   1.00
H820   H     0.70446   0.44178   0.59105   0.00000  Uiso   1.00
H821   H     0.96219   0.55820   0.90896   0.00000  Uiso   1.00
H822   H     0.99484   0.58075   0.99452   0.00000  Uiso   1.00
H823   H     0.67181   0.41921   0.50549   0.00000  Uiso   1.00
H824   H     0.82258   0.55646   0.59018   0.00000  Uiso   1.00
N825   N     0.81362   0.48550   0.73739   0.00000  Uiso   1.00
N826   N     0.85305   0.51450   0.76260   0.00000  Uiso   1.00
O827   O     0.96386   0.57964   0.75309   0.00000  Uiso   1.00
O828   O     0.85119   0.40987   0.69485   0.00000  Uiso   1.00
O829   O     0.84951   0.52377   0.84540   0.00000  Uiso   1.00
O830   O     0.81548   0.59012   0.80515   0.00000  Uiso   1.00
O831   O     0.70281   0.42036   0.74691   0.00000  Uiso   1.00
O832   O     0.72488   0.57035   0.74501   0.00000  Uiso   1.00
O833   O     0.94178   0.42965   0.75498   0.00000  Uiso   1.00
O834   O     0.96995   0.50730   0.82247   0.00000  Uiso   1.00
O835   O     0.69672   0.49270   0.67753   0.00000  Uiso   1.00
O836   O     0.73098   0.49801   0.81439   0.00000  Uiso   1.00
O837   O     0.93569   0.50199   0.68561   0.00000  Uiso   1.00
O838   O     0.81716   0.47622   0.65460   0.00000  Uiso   1.00
Zn839  Zn    0.93700   0.50621   0.75539   0.00000  Uiso   1.00
Zn840  Zn    0.72967   0.49379   0.74460   0.00000  Uiso   1.00
C841   C     0.01487   0.93142   0.74887   0.00000  Uiso   1.00
C842   C     0.31251   0.82951   0.65905   0.00000  Uiso   1.00
C843   C     0.03118   0.84290   0.89358   0.00000  Uiso   1.00
C844   C     0.30215   0.82376   0.60642   0.00000  Uiso   1.00
C845   C     0.01899   0.88859   0.97169   0.00000  Uiso   1.00
C846   C     0.31433   0.77804   0.52832   0.00000  Uiso   1.00
C847   C     0.33315   0.87511   0.92342   0.00000  Uiso   1.00
C848   C     0.00017   0.79153   0.57659   0.00000  Uiso   1.00
C849   C     0.07878   0.82141   0.91260   0.00000  Uiso   1.00
C850   C     0.25455   0.84524   0.58740   0.00000  Uiso   1.00
C851   C     0.10184   0.83791   0.95939   0.00000  Uiso   1.00
C852   C     0.31846   0.73525   0.75113   0.00000  Uiso   1.00
C853   C     0.23148   0.82873   0.54062   0.00000  Uiso   1.00
C854   C     0.07057   0.87155   0.98938   0.00000  Uiso   1.00
C855   C     0.26275   0.79508   0.51063   0.00000  Uiso   1.00
C856   C     0.15588   0.82371   0.97620   0.00000  Uiso   1.00
C857   C     0.17744   0.84292   0.52380   0.00000  Uiso   1.00
C858   C     0.16192   0.79197   0.69368   0.00000  Uiso   1.00
C859   C     0.17141   0.87470   0.80632   0.00000  Uiso   1.00
C860   C     0.14368   0.87461   0.55338   0.00000  Uiso   1.00
C861   C     0.18963   0.79201   0.94663   0.00000  Uiso   1.00
C862   C     0.09144   0.88859   0.53631   0.00000  Uiso   1.00
C863   C     0.24188   0.77803   0.96370   0.00000  Uiso   1.00
C864   C     0.02261   0.98598   0.74819   0.00000  Uiso   1.00
C865   C     0.31072   0.68068   0.75181   0.00000  Uiso   1.00
C866   C     0.02083   0.83716   0.84095   0.00000  Uiso   1.00
H867   H     0.06746   0.91347   0.55992   0.00000  Uiso   1.00
H868   H     0.17740   0.77681   0.90984   0.00000  Uiso   1.00
H869   H     0.06533   0.66955   0.74472   0.00000  Uiso   1.00
H870   H     0.26801   0.99712   0.75528   0.00000  Uiso   1.00
H871   H     0.19227   0.72745   0.66110   0.00000  Uiso   1.00
H872   H     0.14106   0.93921   0.83890   0.00000  Uiso   1.00
H873   H     0.26585   0.75314   0.94009   0.00000  Uiso   1.00
H874   H     0.23499   0.87278   0.61141   0.00000  Uiso   1.00
H875   H     0.09835   0.79389   0.88858   0.00000  Uiso   1.00
H876   H     0.03780   0.77511   0.59105   0.00000  Uiso   1.00
H877   H     0.29553   0.89153   0.90896   0.00000  Uiso   1.00
H878   H     0.32817   0.91408   0.99452   0.00000  Uiso   1.00
H879   H     0.00514   0.75254   0.50549   0.00000  Uiso   1.00
H880   H     0.15591   0.88980   0.59018   0.00000  Uiso   1.00
N881   N     0.14695   0.81883   0.73739   0.00000  Uiso   1.00
N882   N     0.18638   0.84784   0.76260   0.00000  Uiso   1.00
O883   O     0.29719   0.91298   0.75309   0.00000  Uiso   1.00
O884   O     0.18452   0.74321   0.69485   0.00000  Uiso   1.00
O885   O     0.18284   0.85711   0.84540   0.00000  Uiso   1.00
O886   O     0.14881   0.92346   0.80515   0.00000  Uiso   1.00
O887   O     0.03614   0.75369   0.74691   0.00000  Uiso   1.00
O888   O     0.05822   0.90368   0.74501   0.00000  Uiso   1.00
O889   O     0.27512   0.76298   0.75498   0.00000  Uiso   1.00
O890   O     0.30328   0.84063   0.82247   0.00000  Uiso   1.00
O891   O     0.03005   0.82603   0.67753   0.00000  Uiso   1.00
O892   O     0.06431   0.83134   0.81439   0.00000  Uiso   1.00
O893   O     0.26902   0.83533   0.68561   0.00000  Uiso   1.00
O894   O     0.15049   0.80955   0.65460   0.00000  Uiso   1.00
Zn895  Zn    0.27033   0.83954   0.75539   0.00000  Uiso   1.00
Zn896  Zn    0.06300   0.82713   0.74460   0.00000  Uiso   1.00
C897   C     0.34820   0.93142   0.74887   0.00000  Uiso   1.00
C898   C     0.64584   0.82951   0.65905   0.00000  Uiso   1.00
C899   C     0.36451   0.84290   0.89358   0.00000  Uiso   1.00
C900   C     0.63548   0.82376   0.60642   0.00000  Uiso   1.00
C901   C     0.35232   0.88859   0.97169   0.00000  Uiso   1.00
C902   C     0.64767   0.77804   0.52832   0.00000  Uiso   1.00
C903   C     0.66648   0.87511   0.92342   0.00000  Uiso   1.00
C904   C     0.33351   0.79153   0.57659   0.00000  Uiso   1.00
C905   C     0.41211   0.82141   0.91260   0.00000  Uiso   1.00
C906   C     0.58788   0.84524   0.58740   0.00000  Uiso   1.00
C907   C     0.43517   0.83791   0.95939   0.00000  Uiso   1.00
C908   C     0.65180   0.73525   0.75113   0.00000  Uiso   1.00
C909   C     0.56482   0.82873   0.54062   0.00000  Uiso   1.00
C910   C     0.40391   0.87155   0.98938   0.00000  Uiso   1.00
C911   C     0.59608   0.79508   0.51063   0.00000  Uiso   1.00
C912   C     0.48921   0.82371   0.97620   0.00000  Uiso   1.00
C913   C     0.51078   0.84292   0.52380   0.00000  Uiso   1.00
C914   C     0.49525   0.79197   0.69368   0.00000  Uiso   1.00
C915   C     0.50475   0.87470   0.80632   0.00000  Uiso   1.00
C916   C     0.47702   0.87461   0.55338   0.00000  Uiso   1.00
C917   C     0.52296   0.79201   0.94663   0.00000  Uiso   1.00
C918   C     0.42477   0.88859   0.53631   0.00000  Uiso   1.00
C919   C     0.57521   0.77803   0.96370   0.00000  Uiso   1.00
C920   C     0.35595   0.98598   0.74819   0.00000  Uiso   1.00
C921   C     0.64405   0.68068   0.75181   0.00000  Uiso   1.00
C922   C     0.35416   0.83716   0.84095   0.00000  Uiso   1.00
H923   H     0.40079   0.91347   0.55992   0.00000  Uiso   1.00
H924   H     0.51073   0.77681   0.90984   0.00000  Uiso   1.00
H925   H     0.39866   0.66955   0.74472   0.00000  Uiso   1.00
H926   H     0.60134   0.99712   0.75528   0.00000  Uiso   1.00
H927   H     0.52560   0.72745   0.66110   0.00000  Uiso   1.00
H928   H     0.47440   0.93921   0.83890   0.00000  Uiso   1.00
H929   H     0.59918   0.75314   0.94009   0.00000  Uiso   1.00
H930   H     0.56833   0.87278   0.61141   0.00000  Uiso   1.00
H931   H     0.43168   0.79389   0.88858   0.00000  Uiso   1.00
H932   H     0.37113   0.77511   0.59105   0.00000  Uiso   1.00
H933   H     0.62886   0.89153   0.90896   0.00000  Uiso   1.00
H934   H     0.66151   0.91408   0.99452   0.00000  Uiso   1.00
H935   H     0.33848   0.75254   0.50549   0.00000  Uiso   1.00
H936   H     0.48924   0.88980   0.59018   0.00000  Uiso   1.00
N937   N     0.48029   0.81883   0.73739   0.00000  Uiso   1.00
N938   N     0.51971   0.84784   0.76260   0.00000  Uiso   1.00
O939   O     0.63052   0.91298   0.75309   0.00000  Uiso   1.00
O940   O     0.51786   0.74321   0.69485   0.00000  Uiso   1.00
O941   O     0.51617   0.85711   0.84540   0.00000  Uiso   1.00
O942   O     0.48214   0.92346   0.80515   0.00000  Uiso   1.00
O943   O     0.36948   0.75369   0.74691   0.00000  Uiso   1.00
O944   O     0.39155   0.90368   0.74501   0.00000  Uiso   1.00
O945   O     0.60845   0.76298   0.75498   0.00000  Uiso   1.00
O946   O     0.63662   0.84063   0.82247   0.00000  Uiso   1.00
O947   O     0.36338   0.82603   0.67753   0.00000  Uiso   1.00
O948   O     0.39764   0.83134   0.81439   0.00000  Uiso   1.00
O949   O     0.60236   0.83533   0.68561   0.00000  Uiso   1.00
O950   O     0.48382   0.80955   0.65460   0.00000  Uiso   1.00
Zn951  Zn    0.60366   0.83954   0.75539   0.00000  Uiso   1.00
Zn952  Zn    0.39634   0.82713   0.74460   0.00000  Uiso   1.00
C953   C     0.68154   0.93142   0.74887   0.00000  Uiso   1.00
C954   C     0.97917   0.82951   0.65905   0.00000  Uiso   1.00
C955   C     0.69785   0.84290   0.89358   0.00000  Uiso   1.00
C956   C     0.96882   0.82376   0.60642   0.00000  Uiso   1.00
C957   C     0.68565   0.88859   0.97169   0.00000  Uiso   1.00
C958   C     0.98100   0.77804   0.52832   0.00000  Uiso   1.00
C959   C     0.99982   0.87511   0.92342   0.00000  Uiso   1.00
C960   C     0.66684   0.79153   0.57659   0.00000  Uiso   1.00
C961   C     0.74545   0.82141   0.91260   0.00000  Uiso   1.00
C962   C     0.92122   0.84524   0.58740   0.00000  Uiso   1.00
C963   C     0.76850   0.83791   0.95939   0.00000  Uiso   1.00
C964   C     0.98513   0.73525   0.75113   0.00000  Uiso   1.00
C965   C     0.89815   0.82873   0.54062   0.00000  Uiso   1.00
C966   C     0.73724   0.87155   0.98938   0.00000  Uiso   1.00
C967   C     0.92941   0.79508   0.51063   0.00000  Uiso   1.00
C968   C     0.82254   0.82371   0.97620   0.00000  Uiso   1.00
C969   C     0.84411   0.84292   0.52380   0.00000  Uiso   1.00
C970   C     0.82859   0.79197   0.69368   0.00000  Uiso   1.00
C971   C     0.83808   0.87470   0.80632   0.00000  Uiso   1.00
C972   C     0.81035   0.87461   0.55338   0.00000  Uiso   1.00
C973   C     0.85630   0.79201   0.94663   0.00000  Uiso   1.00
C974   C     0.75810   0.88859   0.53631   0.00000  Uiso   1.00
C975   C     0.90854   0.77803   0.96370   0.00000  Uiso   1.00
C976   C     0.68928   0.98598   0.74819   0.00000  Uiso   1.00
C977   C     0.97739   0.68068   0.75181   0.00000  Uiso   1.00
C978   C     0.68749   0.83716   0.84095   0.00000  Uiso   1.00
H979   H     0.73413   0.91347   0.55992   0.00000  Uiso   1.00
H980   H     0.84407   0.77681   0.90984   0.00000  Uiso   1.00
H981   H     0.73199   0.66955   0.74472   0.00000  Uiso   1.00
H982   H     0.93467   0.99712   0.75528   0.00000  Uiso   1.00
H983   H     0.85894   0.72745   0.66110   0.00000  Uiso   1.00
H984   H     0.80773   0.93921   0.83890   0.00000  Uiso   1.00
H985   H     0.93252   0.75314   0.94009   0.00000  Uiso   1.00
H986   H     0.90166   0.87278   0.61141   0.00000  Uiso   1.00
H987   H     0.76502   0.79389   0.88858   0.00000  Uiso   1.00
H988   H     0.70446   0.77511   0.59105   0.00000  Uiso   1.00
H989   H     0.96219   0.89153   0.90896   0.00000  Uiso   1.00
H990   H     0.99484   0.91408   0.99452   0.00000  Uiso   1.00
H991   H     0.67181   0.75254   0.50549   0.00000  Uiso   1.00
H992   H     0.82258   0.88980   0.59018   0.00000  Uiso   1.00
N993   N     0.81362   0.81883   0.73739   0.00000  Uiso   1.00
N994   N     0.85305   0.84784   0.76260   0.00000  Uiso   1.00
O995   O     0.96386   0.91298   0.75309   0.00000  Uiso   1.00
O996   O     0.85119   0.74321   0.69485   0.00000  Uiso   1.00
O997   O     0.84951   0.85711   0.84540   0.00000  Uiso   1.00
O998   O     0.81548   0.92346   0.80515   0.00000  Uiso   1.00
O999   O     0.70281   0.75369   0.74691   0.00000  Uiso   1.00
O1000  O     0.72488   0.90368   0.74501   0.00000  Uiso   1.00
O1001  O     0.94178   0.76298   0.75498   0.00000  Uiso   1.00
O1002  O     0.96995   0.84063   0.82247   0.00000  Uiso   1.00
O1003  O     0.69672   0.82603   0.67753   0.00000  Uiso   1.00
O1004  O     0.73098   0.83134   0.81439   0.00000  Uiso   1.00
O1005  O     0.93569   0.83533   0.68561   0.00000  Uiso   1.00
O1006  O     0.81716   0.80955   0.65460   0.00000  Uiso   1.00
Zn1007 Zn    0.93700   0.83954   0.75539   0.00000  Uiso   1.00
Zn1008 Zn    0.72967   0.82713   0.74460   0.00000  Uiso   1.00
loop_
_geom_bond_atom_site_label_1
_geom_bond_atom_site_label_2
_geom_bond_distance
_geom_bond_site_symmetry_2
_ccdc_geom_bond_type
C1     C24     1.401   .     S
C1     O48     1.294   .     A
C1     O155    1.285   1_455 S
C2     C4      1.449   .     S
C2     O53     1.305   .     A
C2     O107    1.298   .     S
C3     C9      1.386   .     A
C3     C26     1.449   .     S
C3     C119    1.397   1_455 S
C4     C10     1.386   .     A
C4     C64     1.397   .     S
C5     C14     1.404   .     A
C5     C119    1.391   1_455 S
C5     H150    1.084   1_455 S
C6     C15     1.404   .     A
C6     C64     1.391   .     S
C6     H95     1.084   .     S
C7     H37     1.083   .     S
C7     C59     1.397   .     S
C7     C61     1.391   .     S
C8     H36     1.083   .     S
C8     C116    1.397   1_455 S
C8     C118    1.391   1_455 S
C9     C11     1.395   .     A
C9     H35     1.074   .     S
C10    H34     1.074   .     S
C10    C13     1.395   .     A
C11    C16     1.422   .     A
C11    C14     1.420   .     A
C12    C25     1.401   .     S
C12    O49     1.294   .     A
C12    O103    1.285   .     S
C13    C17     1.422   .     A
C13    C15     1.420   .     A
C14    C526    1.386   .     S
C15    C527    1.386   1_554 S
C16    C21     1.420   .     A
C16    C521    1.420   .     S
C17    C20     1.420   .     A
C17    C520    1.420   1_554 S
C18    O54     1.221   .     D
C18    O44     1.396   .     S
C18    N41     1.413   .     S
C19    O45     1.221   .     D
C19    N42     1.413   .     S
C19    O46     1.396   .     S
C20    C22     1.383   .     A
C20    H40     1.074   .     S
C21    H28     1.074   .     S
C21    C23     1.384   .     A
C22    H27     1.085   .     S
C22    C518    1.386   1_554 S
C23    H33     1.085   .     S
C23    C519    1.386   .     S
C24    C305    1.336   1_455 S
C24    H197    1.088   .     S
C25    C416    1.336   1_545 S
C25    H366    1.088   1_545 S
C26    O52     1.305   .     A
C26    O162    1.298   1_455 S
H29    C360    1.088   1_545 S
H30    C193    1.088   .     S
H31    O44     1.014   .     S
H32    O46     1.014   .     S
H38    C61     1.084   .     S
H39    C118    1.084   1_455 S
N41    Zn56    2.037   .     S
N41    N42     1.293   .     D
N42    Zn55    2.037   .     S
O43    Zn55    1.955   .     S
O43    C57     1.285   .     S
O47    Zn56    1.955   .     S
O47    C124    1.285   1_455 S
O48    Zn56    1.974   .     S
O49    Zn55    1.974   .     S
O50    Zn55    1.963   .     S
O50    C82     1.298   .     S
O51    Zn56    1.963   .     S
O51    C114    1.298   1_455 S
O52    Zn56    1.912   .     S
O53    Zn55    1.912   .     S
C57    C80     1.401   .     S
C57    O104    1.294   .     A
C58    C60     1.449   .     S
C58    O109    1.305   .     A
C58    O163    1.298   .     S
C59    C65     1.386   .     A
C59    C82     1.449   .     S
C60    C66     1.386   .     A
C60    C120    1.397   .     S
C61    C70     1.404   .     A
C62    C71     1.404   .     A
C62    C120    1.391   .     S
C62    H151    1.084   .     S
C63    H93     1.083   .     S
C63    C115    1.397   .     S
C63    C117    1.391   .     S
C64    H92     1.083   .     S
C65    C67     1.395   .     A
C65    H91     1.074   .     S
C66    H90     1.074   .     S
C66    C69     1.395   .     A
C67    C72     1.422   .     A
C67    C70     1.420   .     A
C68    C81     1.401   .     S
C68    O105    1.294   .     A
C68    O159    1.285   .     S
C69    C73     1.422   .     A
C69    C71     1.420   .     A
C70    C582    1.386   .     S
C71    C583    1.386   1_554 S
C72    C77     1.420   .     A
C72    C577    1.420   .     S
C73    C76     1.420   .     A
C73    C576    1.420   1_554 S
C74    O110    1.221   .     D
C74    O100    1.396   .     S
C74    N97     1.413   .     S
C75    O101    1.221   .     D
C75    N98     1.413   .     S
C75    O102    1.396   .     S
C76    C78     1.383   .     A
C76    H96     1.074   .     S
C77    H84     1.074   .     S
C77    C79     1.384   .     A
C78    H83     1.085   .     S
C78    C574    1.386   1_554 S
C79    H89     1.085   .     S
C79    C575    1.386   .     S
C80    C193    1.336   .     S
C80    H253    1.088   .     S
C81    C472    1.336   1_545 S
C81    H422    1.088   1_545 S
C82    O108    1.305   .     A
H85    C416    1.088   1_545 S
H86    C249    1.088   .     S
H87    O100    1.014   .     S
H88    O102    1.014   .     S
H94    C117    1.084   .     S
N97    Zn112   2.037   .     S
N97    N98     1.293   .     D
N98    Zn111   2.037   .     S
O99    Zn111   1.955   .     S
O99    C113    1.285   .     S
O103   Zn112   1.955   .     S
O104   Zn112   1.974   .     S
O105   Zn111   1.974   .     S
O106   Zn111   1.963   .     S
O106   C138    1.298   .     S
O107   Zn112   1.963   .     S
O108   Zn112   1.912   .     S
O109   Zn111   1.912   .     S
C113   C136    1.401   .     S
C113   O160    1.294   .     A
C114   C116    1.449   .     S
C114   O165    1.305   .     A
C114   O51     1.298   1_655 S
C115   C121    1.386   .     A
C115   C138    1.449   .     S
C116   C122    1.386   .     A
C116   C8      1.397   1_655 S
C117   C126    1.404   .     A
C118   C127    1.404   .     A
C118   C8      1.391   1_655 S
C118   H39     1.084   1_655 S
C119   H149    1.083   .     S
C119   C3      1.397   1_655 S
C119   C5      1.391   1_655 S
C120   H148    1.083   .     S
C121   C123    1.395   .     A
C121   H147    1.074   .     S
C122   H146    1.074   .     S
C122   C125    1.395   .     A
C123   C128    1.422   .     A
C123   C126    1.420   .     A
C124   C137    1.401   .     S
C124   O161    1.294   .     A
C124   O47     1.285   1_655 S
C125   C129    1.422   .     A
C125   C127    1.420   .     A
C126   C638    1.386   .     S
C127   C639    1.386   1_554 S
C128   C133    1.420   .     A
C128   C633    1.420   .     S
C129   C132    1.420   .     A
C129   C632    1.420   1_554 S
C130   O166    1.221   .     D
C130   O156    1.396   .     S
C130   N153    1.413   .     S
C131   O157    1.221   .     D
C131   N154    1.413   .     S
C131   O158    1.396   .     S
C132   C134    1.383   .     A
C132   H152    1.074   .     S
C133   H140    1.074   .     S
C133   C135    1.384   .     A
C134   H139    1.085   .     S
C134   C630    1.386   1_554 S
C135   H145    1.085   .     S
C135   C631    1.386   .     S
C136   C249    1.336   .     S
C136   H309    1.088   .     S
C137   C360    1.336   1_645 S
C137   H478    1.088   1_545 S
C138   O164    1.305   .     A
H141   C472    1.088   1_545 S
H142   C305    1.088   .     S
H143   O156    1.014   .     S
H144   O158    1.014   .     S
H150   C5      1.084   1_655 S
N153   Zn168   2.037   .     S
N153   N154    1.293   .     D
N154   Zn167   2.037   .     S
O155   Zn167   1.955   .     S
O155   C1      1.285   1_655 S
O159   Zn168   1.955   .     S
O160   Zn168   1.974   .     S
O161   Zn167   1.974   .     S
O162   Zn167   1.963   .     S
O162   C26     1.298   1_655 S
O163   Zn168   1.963   .     S
O164   Zn168   1.912   .     S
O165   Zn167   1.912   .     S
C169   C192    1.401   .     S
C169   O216    1.294   .     A
C169   O323    1.285   1_455 S
C170   C172    1.449   .     S
C170   O221    1.305   .     A
C170   O275    1.298   .     S
C171   C177    1.386   .     A
C171   C194    1.449   .     S
C171   C287    1.397   1_455 S
C172   C178    1.386   .     A
C172   C232    1.397   .     S
C173   C182    1.404   .     A
C173   C287    1.391   1_455 S
C173   H318    1.084   1_455 S
C174   C183    1.404   .     A
C174   C232    1.391   .     S
C174   H263    1.084   .     S
C175   H205    1.083   .     S
C175   C227    1.397   .     S
C175   C229    1.391   .     S
C176   H204    1.083   .     S
C176   C284    1.397   1_455 S
C176   C286    1.391   1_455 S
C177   C179    1.395   .     A
C177   H203    1.074   .     S
C178   H202    1.074   .     S
C178   C181    1.395   .     A
C179   C184    1.422   .     A
C179   C182    1.420   .     A
C180   C193    1.401   .     S
C180   O217    1.294   .     A
C180   O271    1.285   .     S
C181   C185    1.422   .     A
C181   C183    1.420   .     A
C182   C694    1.386   .     S
C183   C695    1.386   1_554 S
C184   C189    1.420   .     A
C184   C689    1.420   .     S
C185   C188    1.420   .     A
C185   C688    1.420   1_554 S
C186   O222    1.221   .     D
C186   O212    1.396   .     S
C186   N209    1.413   .     S
C187   O213    1.221   .     D
C187   N210    1.413   .     S
C187   O214    1.396   .     S
C188   C190    1.383   .     A
C188   H208    1.074   .     S
C189   H196    1.074   .     S
C189   C191    1.384   .     A
C190   H195    1.085   .     S
C190   C686    1.386   1_554 S
C191   H201    1.085   .     S
C191   C687    1.386   .     S
C192   C473    1.336   1_455 S
C192   H365    1.088   .     S
C194   O220    1.305   .     A
C194   O330    1.298   1_455 S
H198   C361    1.088   .     S
H199   O212    1.014   .     S
H200   O214    1.014   .     S
H206   C229    1.084   .     S
H207   C286    1.084   1_455 S
N209   Zn224   2.037   .     S
N209   N210    1.293   .     D
N210   Zn223   2.037   .     S
O211   Zn223   1.955   .     S
O211   C225    1.285   .     S
O215   Zn224   1.955   .     S
O215   C292    1.285   1_455 S
O216   Zn224   1.974   .     S
O217   Zn223   1.974   .     S
O218   Zn223   1.963   .     S
O218   C250    1.298   .     S
O219   Zn224   1.963   .     S
O219   C282    1.298   1_455 S
O220   Zn224   1.912   .     S
O221   Zn223   1.912   .     S
C225   C248    1.401   .     S
C225   O272    1.294   .     A
C226   C228    1.449   .     S
C226   O277    1.305   .     A
C226   O331    1.298   .     S
C227   C233    1.386   .     A
C227   C250    1.449   .     S
C228   C234    1.386   .     A
C228   C288    1.397   .     S
C229   C238    1.404   .     A
C230   C239    1.404   .     A
C230   C288    1.391   .     S
C230   H319    1.084   .     S
C231   H261    1.083   .     S
C231   C283    1.397   .     S
C231   C285    1.391   .     S
C232   H260    1.083   .     S
C233   C235    1.395   .     A
C233   H259    1.074   .     S
C234   H258    1.074   .     S
C234   C237    1.395   .     A
C235   C240    1.422   .     A
C235   C238    1.420   .     A
C236   C249    1.401   .     S
C236   O273    1.294   .     A
C236   O327    1.285   .     S
C237   C241    1.422   .     A
C237   C239    1.420   .     A
C238   C750    1.386   .     S
C239   C751    1.386   1_554 S
C240   C245    1.420   .     A
C240   C745    1.420   .     S
C241   C244    1.420   .     A
C241   C744    1.420   1_554 S
C242   O278    1.221   .     D
C242   O268    1.396   .     S
C242   N265    1.413   .     S
C243   O269    1.221   .     D
C243   N266    1.413   .     S
C243   O270    1.396   .     S
C244   C246    1.383   .     A
C244   H264    1.074   .     S
C245   H252    1.074   .     S
C245   C247    1.384   .     A
C246   H251    1.085   .     S
C246   C742    1.386   1_554 S
C247   H257    1.085   .     S
C247   C743    1.386   .     S
C248   C361    1.336   .     S
C248   H421    1.088   .     S
C250   O276    1.305   .     A
H254   C417    1.088   .     S
H255   O268    1.014   .     S
H256   O270    1.014   .     S
H262   C285    1.084   .     S
N265   Zn280   2.037   .     S
N265   N266    1.293   .     D
N266   Zn279   2.037   .     S
O267   Zn279   1.955   .     S
O267   C281    1.285   .     S
O271   Zn280   1.955   .     S
O272   Zn280   1.974   .     S
O273   Zn279   1.974   .     S
O274   Zn279   1.963   .     S
O274   C306    1.298   .     S
O275   Zn280   1.963   .     S
O276   Zn280   1.912   .     S
O277   Zn279   1.912   .     S
C281   C304    1.401   .     S
C281   O328    1.294   .     A
C282   C284    1.449   .     S
C282   O333    1.305   .     A
C282   O219    1.298   1_655 S
C283   C289    1.386   .     A
C283   C306    1.449   .     S
C284   C290    1.386   .     A
C284   C176    1.397   1_655 S
C285   C294    1.404   .     A
C286   C295    1.404   .     A
C286   C176    1.391   1_655 S
C286   H207    1.084   1_655 S
C287   H317    1.083   .     S
C287   C171    1.397   1_655 S
C287   C173    1.391   1_655 S
C288   H316    1.083   .     S
C289   C291    1.395   .     A
C289   H315    1.074   .     S
C290   H314    1.074   .     S
C290   C293    1.395   .     A
C291   C296    1.422   .     A
C291   C294    1.420   .     A
C292   C305    1.401   .     S
C292   O329    1.294   .     A
C292   O215    1.285   1_655 S
C293   C297    1.422   .     A
C293   C295    1.420   .     A
C294   C806    1.386   .     S
C295   C807    1.386   1_554 S
C296   C301    1.420   .     A
C296   C801    1.420   .     S
C297   C300    1.420   .     A
C297   C800    1.420   1_554 S
C298   O334    1.221   .     D
C298   O324    1.396   .     S
C298   N321    1.413   .     S
C299   O325    1.221   .     D
C299   N322    1.413   .     S
C299   O326    1.396   .     S
C300   C302    1.383   .     A
C300   H320    1.074   .     S
C301   H308    1.074   .     S
C301   C303    1.384   .     A
C302   H307    1.085   .     S
C302   C798    1.386   1_554 S
C303   H313    1.085   .     S
C303   C799    1.386   .     S
C304   C417    1.336   .     S
C304   H477    1.088   .     S
C305   C24     1.336   1_655 S
C306   O332    1.305   .     A
H310   C473    1.088   .     S
H311   O324    1.014   .     S
H312   O326    1.014   .     S
H318   C173    1.084   1_655 S
N321   Zn336   2.037   .     S
N321   N322    1.293   .     D
N322   Zn335   2.037   .     S
O323   Zn335   1.955   .     S
O323   C169    1.285   1_655 S
O327   Zn336   1.955   .     S
O328   Zn336   1.974   .     S
O329   Zn335   1.974   .     S
O330   Zn335   1.963   .     S
O330   C194    1.298   1_655 S
O331   Zn336   1.963   .     S
O332   Zn336   1.912   .     S
O333   Zn335   1.912   .     S
C337   C360    1.401   .     S
C337   O384    1.294   .     A
C337   O491    1.285   1_455 S
C338   C340    1.449   .     S
C338   O389    1.305   .     A
C338   O443    1.298   .     S
C339   C345    1.386   .     A
C339   C362    1.449   .     S
C339   C455    1.397   1_455 S
C340   C346    1.386   .     A
C340   C400    1.397   .     S
C341   C350    1.404   .     A
C341   C455    1.391   1_455 S
C341   H486    1.084   1_455 S
C342   C351    1.404   .     A
C342   C400    1.391   .     S
C342   H431    1.084   .     S
C343   H373    1.083   .     S
C343   C395    1.397   .     S
C343   C397    1.391   .     S
C344   H372    1.083   .     S
C344   C452    1.397   1_455 S
C344   C454    1.391   1_455 S
C345   C347    1.395   .     A
C345   H371    1.074   .     S
C346   H370    1.074   .     S
C346   C349    1.395   .     A
C347   C352    1.422   .     A
C347   C350    1.420   .     A
C348   C361    1.401   .     S
C348   O385    1.294   .     A
C348   O439    1.285   .     S
C349   C353    1.422   .     A
C349   C351    1.420   .     A
C350   C862    1.386   .     S
C351   C863    1.386   1_554 S
C352   C357    1.420   .     A
C352   C857    1.420   .     S
C353   C356    1.420   .     A
C353   C856    1.420   1_554 S
C354   O390    1.221   .     D
C354   O380    1.396   .     S
C354   N377    1.413   .     S
C355   O381    1.221   .     D
C355   N378    1.413   .     S
C355   O382    1.396   .     S
C356   C358    1.383   .     A
C356   H376    1.074   .     S
C357   H364    1.074   .     S
C357   C359    1.384   .     A
C358   H363    1.085   .     S
C358   C854    1.386   1_554 S
C359   H369    1.085   .     S
C359   C855    1.386   .     S
C360   C137    1.336   1_465 S
C360   H29     1.088   1_565 S
C362   O388    1.305   .     A
C362   O498    1.298   1_455 S
H366   C25     1.088   1_565 S
H367   O380    1.014   .     S
H368   O382    1.014   .     S
H374   C397    1.084   .     S
H375   C454    1.084   1_455 S
N377   Zn392   2.037   .     S
N377   N378    1.293   .     D
N378   Zn391   2.037   .     S
O379   Zn391   1.955   .     S
O379   C393    1.285   .     S
O383   Zn392   1.955   .     S
O383   C460    1.285   1_455 S
O384   Zn392   1.974   .     S
O385   Zn391   1.974   .     S
O386   Zn391   1.963   .     S
O386   C418    1.298   .     S
O387   Zn392   1.963   .     S
O387   C450    1.298   1_455 S
O388   Zn392   1.912   .     S
O389   Zn391   1.912   .     S
C393   C416    1.401   .     S
C393   O440    1.294   .     A
C394   C396    1.449   .     S
C394   O445    1.305   .     A
C394   O499    1.298   .     S
C395   C401    1.386   .     A
C395   C418    1.449   .     S
C396   C402    1.386   .     A
C396   C456    1.397   .     S
C397   C406    1.404   .     A
C398   C407    1.404   .     A
C398   C456    1.391   .     S
C398   H487    1.084   .     S
C399   H429    1.083   .     S
C399   C451    1.397   .     S
C399   C453    1.391   .     S
C400   H428    1.083   .     S
C401   C403    1.395   .     A
C401   H427    1.074   .     S
C402   H426    1.074   .     S
C402   C405    1.395   .     A
C403   C408    1.422   .     A
C403   C406    1.420   .     A
C404   C417    1.401   .     S
C404   O441    1.294   .     A
C404   O495    1.285   .     S
C405   C409    1.422   .     A
C405   C407    1.420   .     A
C406   C918    1.386   .     S
C407   C919    1.386   1_554 S
C408   C413    1.420   .     A
C408   C913    1.420   .     S
C409   C412    1.420   .     A
C409   C912    1.420   1_554 S
C410   O446    1.221   .     D
C410   O436    1.396   .     S
C410   N433    1.413   .     S
C411   O437    1.221   .     D
C411   N434    1.413   .     S
C411   O438    1.396   .     S
C412   C414    1.383   .     A
C412   H432    1.074   .     S
C413   H420    1.074   .     S
C413   C415    1.384   .     A
C414   H419    1.085   .     S
C414   C910    1.386   1_554 S
C415   H425    1.085   .     S
C415   C911    1.386   .     S
C416   C25     1.336   1_565 S
C416   H85     1.088   1_565 S
C418   O444    1.305   .     A
H422   C81     1.088   1_565 S
H423   O436    1.014   .     S
H424   O438    1.014   .     S
H430   C453    1.084   .     S
N433   Zn448   2.037   .     S
N433   N434    1.293   .     D
N434   Zn447   2.037   .     S
O435   Zn447   1.955   .     S
O435   C449    1.285   .     S
O439   Zn448   1.955   .     S
O440   Zn448   1.974   .     S
O441   Zn447   1.974   .     S
O442   Zn447   1.963   .     S
O442   C474    1.298   .     S
O443   Zn448   1.963   .     S
O444   Zn448   1.912   .     S
O445   Zn447   1.912   .     S
C449   C472    1.401   .     S
C449   O496    1.294   .     A
C450   C452    1.449   .     S
C450   O501    1.305   .     A
C450   O387    1.298   1_655 S
C451   C457    1.386   .     A
C451   C474    1.449   .     S
C452   C458    1.386   .     A
C452   C344    1.397   1_655 S
C453   C462    1.404   .     A
C454   C463    1.404   .     A
C454   C344    1.391   1_655 S
C454   H375    1.084   1_655 S
C455   H485    1.083   .     S
C455   C339    1.397   1_655 S
C455   C341    1.391   1_655 S
C456   H484    1.083   .     S
C457   C459    1.395   .     A
C457   H483    1.074   .     S
C458   H482    1.074   .     S
C458   C461    1.395   .     A
C459   C464    1.422   .     A
C459   C462    1.420   .     A
C460   C473    1.401   .     S
C460   O497    1.294   .     A
C460   O383    1.285   1_655 S
C461   C465    1.422   .     A
C461   C463    1.420   .     A
C462   C974    1.386   .     S
C463   C975    1.386   1_554 S
C464   C469    1.420   .     A
C464   C969    1.420   .     S
C465   C468    1.420   .     A
C465   C968    1.420   1_554 S
C466   O502    1.221   .     D
C466   O492    1.396   .     S
C466   N489    1.413   .     S
C467   O493    1.221   .     D
C467   N490    1.413   .     S
C467   O494    1.396   .     S
C468   C470    1.383   .     A
C468   H488    1.074   .     S
C469   H476    1.074   .     S
C469   C471    1.384   .     A
C470   H475    1.085   .     S
C470   C966    1.386   1_554 S
C471   H481    1.085   .     S
C471   C967    1.386   .     S
C472   C81     1.336   1_565 S
C472   H141    1.088   1_565 S
C473   C192    1.336   1_655 S
C474   O500    1.305   .     A
H478   C137    1.088   1_565 S
H479   O492    1.014   .     S
H480   O494    1.014   .     S
H486   C341    1.084   1_655 S
N489   Zn504   2.037   .     S
N489   N490    1.293   .     D
N490   Zn503   2.037   .     S
O491   Zn503   1.955   .     S
O491   C337    1.285   1_655 S
O495   Zn504   1.955   .     S
O496   Zn504   1.974   .     S
O497   Zn503   1.974   .     S
O498   Zn503   1.963   .     S
O498   C362    1.298   1_655 S
O499   Zn504   1.963   .     S
O500   Zn504   1.912   .     S
O501   Zn503   1.912   .     S
C505   C528    1.401   .     S
C505   O552    1.294   .     A
C505   O659    1.285   1_455 S
C506   C508    1.449   .     S
C506   O557    1.305   .     A
C506   O611    1.298   .     S
C507   C513    1.386   .     A
C507   C530    1.449   .     S
C507   C623    1.397   1_455 S
C508   C514    1.386   .     A
C508   C568    1.397   .     S
C509   C518    1.404   .     A
C509   C623    1.391   1_455 S
C509   H654    1.084   1_455 S
C510   C519    1.404   .     A
C510   C568    1.391   .     S
C510   H599    1.084   .     S
C511   H541    1.083   .     S
C511   C563    1.397   .     S
C511   C565    1.391   .     S
C512   H540    1.083   .     S
C512   C620    1.397   1_455 S
C512   C622    1.391   1_455 S
C513   C515    1.395   .     A
C513   H539    1.074   .     S
C514   H538    1.074   .     S
C514   C517    1.395   .     A
C515   C520    1.422   .     A
C515   C518    1.420   .     A
C516   C529    1.401   .     S
C516   O553    1.294   .     A
C516   O607    1.285   .     S
C517   C521    1.422   .     A
C517   C519    1.420   .     A
C518   C22     1.386   1_556 S
C520   C525    1.420   .     A
C520   C17     1.420   1_556 S
C521   C524    1.420   .     A
C522   O558    1.221   .     D
C522   O548    1.396   .     S
C522   N545    1.413   .     S
C523   O549    1.221   .     D
C523   N546    1.413   .     S
C523   O550    1.396   .     S
C524   C526    1.383   .     A
C524   H544    1.074   .     S
C525   H532    1.074   .     S
C525   C527    1.384   .     A
C526   H531    1.085   .     S
C527   H537    1.085   .     S
C527   C15     1.386   1_556 S
C528   C809    1.336   1_455 S
C528   H701    1.088   .     S
C529   C920    1.336   1_545 S
C529   H870    1.088   1_545 S
C530   O556    1.305   .     A
C530   O666    1.298   1_455 S
H533   C864    1.088   1_545 S
H534   C697    1.088   .     S
H535   O548    1.014   .     S
H536   O550    1.014   .     S
H542   C565    1.084   .     S
H543   C622    1.084   1_455 S
N545   Zn560   2.037   .     S
N545   N546    1.293   .     D
N546   Zn559   2.037   .     S
O547   Zn559   1.955   .     S
O547   C561    1.285   .     S
O551   Zn560   1.955   .     S
O551   C628    1.285   1_455 S
O552   Zn560   1.974   .     S
O553   Zn559   1.974   .     S
O554   Zn559   1.963   .     S
O554   C586    1.298   .     S
O555   Zn560   1.963   .     S
O555   C618    1.298   1_455 S
O556   Zn560   1.912   .     S
O557   Zn559   1.912   .     S
C561   C584    1.401   .     S
C561   O608    1.294   .     A
C562   C564    1.449   .     S
C562   O613    1.305   .     A
C562   O667    1.298   .     S
C563   C569    1.386   .     A
C563   C586    1.449   .     S
C564   C570    1.386   .     A
C564   C624    1.397   .     S
C565   C574    1.404   .     A
C566   C575    1.404   .     A
C566   C624    1.391   .     S
C566   H655    1.084   .     S
C567   H597    1.083   .     S
C567   C619    1.397   .     S
C567   C621    1.391   .     S
C568   H596    1.083   .     S
C569   C571    1.395   .     A
C569   H595    1.074   .     S
C570   H594    1.074   .     S
C570   C573    1.395   .     A
C571   C576    1.422   .     A
C571   C574    1.420   .     A
C572   C585    1.401   .     S
C572   O609    1.294   .     A
C572   O663    1.285   .     S
C573   C577    1.422   .     A
C573   C575    1.420   .     A
C574   C78     1.386   1_556 S
C576   C581    1.420   .     A
C576   C73     1.420   1_556 S
C577   C580    1.420   .     A
C578   O614    1.221   .     D
C578   O604    1.396   .     S
C578   N601    1.413   .     S
C579   O605    1.221   .     D
C579   N602    1.413   .     S
C579   O606    1.396   .     S
C580   C582    1.383   .     A
C580   H600    1.074   .     S
C581   H588    1.074   .     S
C581   C583    1.384   .     A
C582   H587    1.085   .     S
C583   H593    1.085   .     S
C583   C71     1.386   1_556 S
C584   C697    1.336   .     S
C584   H757    1.088   .     S
C585   C976    1.336   1_545 S
C585   H926    1.088   1_545 S
C586   O612    1.305   .     A
H589   C920    1.088   1_545 S
H590   C753    1.088   .     S
H591   O604    1.014   .     S
H592   O606    1.014   .     S
H598   C621    1.084   .     S
N601   Zn616   2.037   .     S
N601   N602    1.293   .     D
N602   Zn615   2.037   .     S
O603   Zn615   1.955   .     S
O603   C617    1.285   .     S
O607   Zn616   1.955   .     S
O608   Zn616   1.974   .     S
O609   Zn615   1.974   .     S
O610   Zn615   1.963   .     S
O610   C642    1.298   .     S
O611   Zn616   1.963   .     S
O612   Zn616   1.912   .     S
O613   Zn615   1.912   .     S
C617   C640    1.401   .     S
C617   O664    1.294   .     A
C618   C620    1.449   .     S
C618   O669    1.305   .     A
C618   O555    1.298   1_655 S
C619   C625    1.386   .     A
C619   C642    1.449   .     S
C620   C626    1.386   .     A
C620   C512    1.397   1_655 S
C621   C630    1.404   .     A
C622   C631    1.404   .     A
C622   C512    1.391   1_655 S
C622   H543    1.084   1_655 S
C623   H653    1.083   .     S
C623   C507    1.397   1_655 S
C623   C509    1.391   1_655 S
C624   H652    1.083   .     S
C625   C627    1.395   .     A
C625   H651    1.074   .     S
C626   H650    1.074   .     S
C626   C629    1.395   .     A
C627   C632    1.422   .     A
C627   C630    1.420   .     A
C628   C641    1.401   .     S
C628   O665    1.294   .     A
C628   O551    1.285   1_655 S
C629   C633    1.422   .     A
C629   C631    1.420   .     A
C630   C134    1.386   1_556 S
C632   C637    1.420   .     A
C632   C129    1.420   1_556 S
C633   C636    1.420   .     A
C634   O670    1.221   .     D
C634   O660    1.396   .     S
C634   N657    1.413   .     S
C635   O661    1.221   .     D
C635   N658    1.413   .     S
C635   O662    1.396   .     S
C636   C638    1.383   .     A
C636   H656    1.074   .     S
C637   H644    1.074   .     S
C637   C639    1.384   .     A
C638   H643    1.085   .     S
C639   H649    1.085   .     S
C639   C127    1.386   1_556 S
C640   C753    1.336   .     S
C640   H813    1.088   .     S
C641   C864    1.336   1_645 S
C641   H982    1.088   1_545 S
C642   O668    1.305   .     A
H645   C976    1.088   1_545 S
H646   C809    1.088   .     S
H647   O660    1.014   .     S
H648   O662    1.014   .     S
H654   C509    1.084   1_655 S
N657   Zn672   2.037   .     S
N657   N658    1.293   .     D
N658   Zn671   2.037   .     S
O659   Zn671   1.955   .     S
O659   C505    1.285   1_655 S
O663   Zn672   1.955   .     S
O664   Zn672   1.974   .     S
O665   Zn671   1.974   .     S
O666   Zn671   1.963   .     S
O666   C530    1.298   1_655 S
O667   Zn672   1.963   .     S
O668   Zn672   1.912   .     S
O669   Zn671   1.912   .     S
C673   C696    1.401   .     S
C673   O720    1.294   .     A
C673   O827    1.285   1_455 S
C674   C676    1.449   .     S
C674   O725    1.305   .     A
C674   O779    1.298   .     S
C675   C681    1.386   .     A
C675   C698    1.449   .     S
C675   C791    1.397   1_455 S
C676   C682    1.386   .     A
C676   C736    1.397   .     S
C677   C686    1.404   .     A
C677   C791    1.391   1_455 S
C677   H822    1.084   1_455 S
C678   C687    1.404   .     A
C678   C736    1.391   .     S
C678   H767    1.084   .     S
C679   H709    1.083   .     S
C679   C731    1.397   .     S
C679   C733    1.391   .     S
C680   H708    1.083   .     S
C680   C788    1.397   1_455 S
C680   C790    1.391   1_455 S
C681   C683    1.395   .     A
C681   H707    1.074   .     S
C682   H706    1.074   .     S
C682   C685    1.395   .     A
C683   C688    1.422   .     A
C683   C686    1.420   .     A
C684   C697    1.401   .     S
C684   O721    1.294   .     A
C684   O775    1.285   .     S
C685   C689    1.422   .     A
C685   C687    1.420   .     A
C686   C190    1.386   1_556 S
C688   C693    1.420   .     A
C688   C185    1.420   1_556 S
C689   C692    1.420   .     A
C690   O726    1.221   .     D
C690   O716    1.396   .     S
C690   N713    1.413   .     S
C691   O717    1.221   .     D
C691   N714    1.413   .     S
C691   O718    1.396   .     S
C692   C694    1.383   .     A
C692   H712    1.074   .     S
C693   H700    1.074   .     S
C693   C695    1.384   .     A
C694   H699    1.085   .     S
C695   H705    1.085   .     S
C695   C183    1.386   1_556 S
C696   C977    1.336   1_455 S
C696   H869    1.088   .     S
C698   O724    1.305   .     A
C698   O834    1.298   1_455 S
H702   C865    1.088   .     S
H703   O716    1.014   .     S
H704   O718    1.014   .     S
H710   C733    1.084   .     S
H711   C790    1.084   1_455 S
N713   Zn728   2.037   .     S
N713   N714    1.293   .     D
N714   Zn727   2.037   .     S
O715   Zn727   1.955   .     S
O715   C729    1.285   .     S
O719   Zn728   1.955   .     S
O719   C796    1.285   1_455 S
O720   Zn728   1.974   .     S
O721   Zn727   1.974   .     S
O722   Zn727   1.963   .     S
O722   C754    1.298   .     S
O723   Zn728   1.963   .     S
O723   C786    1.298   1_455 S
O724   Zn728   1.912   .     S
O725   Zn727   1.912   .     S
C729   C752    1.401   .     S
C729   O776    1.294   .     A
C730   C732    1.449   .     S
C730   O781    1.305   .     A
C730   O835    1.298   .     S
C731   C737    1.386   .     A
C731   C754    1.449   .     S
C732   C738    1.386   .     A
C732   C792    1.397   .     S
C733   C742    1.404   .     A
C734   C743    1.404   .     A
C734   C792    1.391   .     S
C734   H823    1.084   .     S
C735   H765    1.083   .     S
C735   C787    1.397   .     S
C735   C789    1.391   .     S
C736   H764    1.083   .     S
C737   C739    1.395   .     A
C737   H763    1.074   .     S
C738   H762    1.074   .     S
C738   C741    1.395   .     A
C739   C744    1.422   .     A
C739   C742    1.420   .     A
C740   C753    1.401   .     S
C740   O777    1.294   .     A
C740   O831    1.285   .     S
C741   C745    1.422   .     A
C741   C743    1.420   .     A
C742   C246    1.386   1_556 S
C744   C749    1.420   .     A
C744   C241    1.420   1_556 S
C745   C748    1.420   .     A
C746   O782    1.221   .     D
C746   O772    1.396   .     S
C746   N769    1.413   .     S
C747   O773    1.221   .     D
C747   N770    1.413   .     S
C747   O774    1.396   .     S
C748   C750    1.383   .     A
C748   H768    1.074   .     S
C749   H756    1.074   .     S
C749   C751    1.384   .     A
C750   H755    1.085   .     S
C751   H761    1.085   .     S
C751   C239    1.386   1_556 S
C752   C865    1.336   .     S
C752   H925    1.088   .     S
C754   O780    1.305   .     A
H758   C921    1.088   .     S
H759   O772    1.014   .     S
H760   O774    1.014   .     S
H766   C789    1.084   .     S
N769   Zn784   2.037   .     S
N769   N770    1.293   .     D
N770   Zn783   2.037   .     S
O771   Zn783   1.955   .     S
O771   C785    1.285   .     S
O775   Zn784   1.955   .     S
O776   Zn784   1.974   .     S
O777   Zn783   1.974   .     S
O778   Zn783   1.963   .     S
O778   C810    1.298   .     S
O779   Zn784   1.963   .     S
O780   Zn784   1.912   .     S
O781   Zn783   1.912   .     S
C785   C808    1.401   .     S
C785   O832    1.294   .     A
C786   C788    1.449   .     S
C786   O837    1.305   .     A
C786   O723    1.298   1_655 S
C787   C793    1.386   .     A
C787   C810    1.449   .     S
C788   C794    1.386   .     A
C788   C680    1.397   1_655 S
C789   C798    1.404   .     A
C790   C799    1.404   .     A
C790   C680    1.391   1_655 S
C790   H711    1.084   1_655 S
C791   H821    1.083   .     S
C791   C675    1.397   1_655 S
C791   C677    1.391   1_655 S
C792   H820    1.083   .     S
C793   C795    1.395   .     A
C793   H819    1.074   .     S
C794   H818    1.074   .     S
C794   C797    1.395   .     A
C795   C800    1.422   .     A
C795   C798    1.420   .     A
C796   C809    1.401   .     S
C796   O833    1.294   .     A
C796   O719    1.285   1_655 S
C797   C801    1.422   .     A
C797   C799    1.420   .     A
C798   C302    1.386   1_556 S
C800   C805    1.420   .     A
C800   C297    1.420   1_556 S
C801   C804    1.420   .     A
C802   O838    1.221   .     D
C802   O828    1.396   .     S
C802   N825    1.413   .     S
C803   O829    1.221   .     D
C803   N826    1.413   .     S
C803   O830    1.396   .     S
C804   C806    1.383   .     A
C804   H824    1.074   .     S
C805   H812    1.074   .     S
C805   C807    1.384   .     A
C806   H811    1.085   .     S
C807   H817    1.085   .     S
C807   C295    1.386   1_556 S
C808   C921    1.336   .     S
C808   H981    1.088   .     S
C809   C528    1.336   1_655 S
C810   O836    1.305   .     A
H814   C977    1.088   .     S
H815   O828    1.014   .     S
H816   O830    1.014   .     S
H822   C677    1.084   1_655 S
N825   Zn840   2.037   .     S
N825   N826    1.293   .     D
N826   Zn839   2.037   .     S
O827   Zn839   1.955   .     S
O827   C673    1.285   1_655 S
O831   Zn840   1.955   .     S
O832   Zn840   1.974   .     S
O833   Zn839   1.974   .     S
O834   Zn839   1.963   .     S
O834   C698    1.298   1_655 S
O835   Zn840   1.963   .     S
O836   Zn840   1.912   .     S
O837   Zn839   1.912   .     S
C841   C864    1.401   .     S
C841   O888    1.294   .     A
C841   O995    1.285   1_455 S
C842   C844    1.449   .     S
C842   O893    1.305   .     A
C842   O947    1.298   .     S
C843   C849    1.386   .     A
C843   C866    1.449   .     S
C843   C959    1.397   1_455 S
C844   C850    1.386   .     A
C844   C904    1.397   .     S
C845   C854    1.404   .     A
C845   C959    1.391   1_455 S
C845   H990    1.084   1_455 S
C846   C855    1.404   .     A
C846   C904    1.391   .     S
C846   H935    1.084   .     S
C847   H877    1.083   .     S
C847   C899    1.397   .     S
C847   C901    1.391   .     S
C848   H876    1.083   .     S
C848   C956    1.397   1_455 S
C848   C958    1.391   1_455 S
C849   C851    1.395   .     A
C849   H875    1.074   .     S
C850   H874    1.074   .     S
C850   C853    1.395   .     A
C851   C856    1.422   .     A
C851   C854    1.420   .     A
C852   C865    1.401   .     S
C852   O889    1.294   .     A
C852   O943    1.285   .     S
C853   C857    1.422   .     A
C853   C855    1.420   .     A
C854   C358    1.386   1_556 S
C856   C861    1.420   .     A
C856   C353    1.420   1_556 S
C857   C860    1.420   .     A
C858   O894    1.221   .     D
C858   O884    1.396   .     S
C858   N881    1.413   .     S
C859   O885    1.221   .     D
C859   N882    1.413   .     S
C859   O886    1.396   .     S
C860   C862    1.383   .     A
C860   H880    1.074   .     S
C861   H868    1.074   .     S
C861   C863    1.384   .     A
C862   H867    1.085   .     S
C863   H873    1.085   .     S
C863   C351    1.386   1_556 S
C864   C641    1.336   1_465 S
C864   H533    1.088   1_565 S
C866   O892    1.305   .     A
C866   O1002   1.298   1_455 S
H870   C529    1.088   1_565 S
H871   O884    1.014   .     S
H872   O886    1.014   .     S
H878   C901    1.084   .     S
H879   C958    1.084   1_455 S
N881   Zn896   2.037   .     S
N881   N882    1.293   .     D
N882   Zn895   2.037   .     S
O883   Zn895   1.955   .     S
O883   C897    1.285   .     S
O887   Zn896   1.955   .     S
O887   C964    1.285   1_455 S
O888   Zn896   1.974   .     S
O889   Zn895   1.974   .     S
O890   Zn895   1.963   .     S
O890   C922    1.298   .     S
O891   Zn896   1.963   .     S
O891   C954    1.298   1_455 S
O892   Zn896   1.912   .     S
O893   Zn895   1.912   .     S
C897   C920    1.401   .     S
C897   O944    1.294   .     A
C898   C900    1.449   .     S
C898   O949    1.305   .     A
C898   O1003   1.298   .     S
C899   C905    1.386   .     A
C899   C922    1.449   .     S
C900   C906    1.386   .     A
C900   C960    1.397   .     S
C901   C910    1.404   .     A
C902   C911    1.404   .     A
C902   C960    1.391   .     S
C902   H991    1.084   .     S
C903   H933    1.083   .     S
C903   C955    1.397   .     S
C903   C957    1.391   .     S
C904   H932    1.083   .     S
C905   C907    1.395   .     A
C905   H931    1.074   .     S
C906   H930    1.074   .     S
C906   C909    1.395   .     A
C907   C912    1.422   .     A
C907   C910    1.420   .     A
C908   C921    1.401   .     S
C908   O945    1.294   .     A
C908   O999    1.285   .     S
C909   C913    1.422   .     A
C909   C911    1.420   .     A
C910   C414    1.386   1_556 S
C912   C917    1.420   .     A
C912   C409    1.420   1_556 S
C913   C916    1.420   .     A
C914   O950    1.221   .     D
C914   O940    1.396   .     S
C914   N937    1.413   .     S
C915   O941    1.221   .     D
C915   N938    1.413   .     S
C915   O942    1.396   .     S
C916   C918    1.383   .     A
C916   H936    1.074   .     S
C917   H924    1.074   .     S
C917   C919    1.384   .     A
C918   H923    1.085   .     S
C919   H929    1.085   .     S
C919   C407    1.386   1_556 S
C920   C529    1.336   1_565 S
C920   H589    1.088   1_565 S
C922   O948    1.305   .     A
H926   C585    1.088   1_565 S
H927   O940    1.014   .     S
H928   O942    1.014   .     S
H934   C957    1.084   .     S
N937   Zn952   2.037   .     S
N937   N938    1.293   .     D
N938   Zn951   2.037   .     S
O939   Zn951   1.955   .     S
O939   C953    1.285   .     S
O943   Zn952   1.955   .     S
O944   Zn952   1.974   .     S
O945   Zn951   1.974   .     S
O946   Zn951   1.963   .     S
O946   C978    1.298   .     S
O947   Zn952   1.963   .     S
O948   Zn952   1.912   .     S
O949   Zn951   1.912   .     S
C953   C976    1.401   .     S
C953   O1000   1.294   .     A
C954   C956    1.449   .     S
C954   O1005   1.305   .     A
C954   O891    1.298   1_655 S
C955   C961    1.386   .     A
C955   C978    1.449   .     S
C956   C962    1.386   .     A
C956   C848    1.397   1_655 S
C957   C966    1.404   .     A
C958   C967    1.404   .     A
C958   C848    1.391   1_655 S
C958   H879    1.084   1_655 S
C959   H989    1.083   .     S
C959   C843    1.397   1_655 S
C959   C845    1.391   1_655 S
C960   H988    1.083   .     S
C961   C963    1.395   .     A
C961   H987    1.074   .     S
C962   H986    1.074   .     S
C962   C965    1.395   .     A
C963   C968    1.422   .     A
C963   C966    1.420   .     A
C964   C977    1.401   .     S
C964   O1001   1.294   .     A
C964   O887    1.285   1_655 S
C965   C969    1.422   .     A
C965   C967    1.420   .     A
C966   C470    1.386   1_556 S
C968   C973    1.420   .     A
C968   C465    1.420   1_556 S
C969   C972    1.420   .     A
C970   O1006   1.221   .     D
C970   O996    1.396   .     S
C970   N993    1.413   .     S
C971   O997    1.221   .     D
C971   N994    1.413   .     S
C971   O998    1.396   .     S
C972   C974    1.383   .     A
C972   H992    1.074   .     S
C973   H980    1.074   .     S
C973   C975    1.384   .     A
C974   H979    1.085   .     S
C975   H985    1.085   .     S
C975   C463    1.386   1_556 S
C976   C585    1.336   1_565 S
C976   H645    1.088   1_565 S
C977   C696    1.336   1_655 S
C978   O1004   1.305   .     A
H982   C641    1.088   1_565 S
H983   O996    1.014   .     S
H984   O998    1.014   .     S
H990   C845    1.084   1_655 S
N993   Zn1008  2.037   .     S
N993   N994    1.293   .     D
N994   Zn1007  2.037   .     S
O995   Zn1007  1.955   .     S
O995   C841    1.285   1_655 S
O999   Zn1008  1.955   .     S
O1000  Zn1008  1.974   .     S
O1001  Zn1007  1.974   .     S
O1002  Zn1007  1.963   .     S
O1002  C866    1.298   1_655 S
O1003  Zn1008  1.963   .     S
O1004  Zn1008  1.912   .     S
O1005  Zn1007  1.912   .     S
