data_str_m3_o1_o17_pcu_sym.167
_audit_creation_date              2020-01-03
_audit_creation_method            'Materials Studio'
_symmetry_space_group_name_H-M    'P1'
_symmetry_Int_Tables_number       1
_symmetry_cell_setting            triclinic
loop_
_symmetry_equiv_pos_as_xyz
  x,y,z
_cell_length_a                    32.2638
_cell_length_b                    29.7138
_cell_length_c                    29.7747
_cell_angle_alpha                 90.0007
_cell_angle_beta                  91.0998
_cell_angle_gamma                 89.9996
loop_
_atom_site_label
_atom_site_type_symbol
_atom_site_fract_x
_atom_site_fract_y
_atom_site_fract_z
_atom_site_U_iso_or_equiv
_atom_site_adp_type
_atom_site_occupancy
C1     C     0.08678   0.16675   0.25407   0.00000  Uiso   1.00
C2     C     0.24655   0.16675   0.24593   0.00000  Uiso   1.00
C3     C     0.09159   0.14649   0.02172   0.00000  Uiso   1.00
C4     C     0.24174   0.14648   0.47828   0.00000  Uiso   1.00
C5     C     0.02060   0.12602   0.25655   0.00000  Uiso   1.00
C6     C     0.31253   0.20859   0.24416   0.00000  Uiso   1.00
C7     C     0.31273   0.12602   0.24346   0.00000  Uiso   1.00
C8     C     0.02080   0.20859   0.25584   0.00000  Uiso   1.00
C9     C     0.29108   0.16716   0.24199   0.00000  Uiso   1.00
C10    C     0.04225   0.16716   0.25801   0.00000  Uiso   1.00
C11    C     0.19140   0.02388   0.27960   0.00000  Uiso   1.00
C12    C     0.14212   0.30941   0.22020   0.00000  Uiso   1.00
C13    C     0.14193   0.02388   0.22040   0.00000  Uiso   1.00
C14    C     0.19121   0.30941   0.27980   0.00000  Uiso   1.00
C15    C     0.16665   0.16659   0.16348   0.00000  Uiso   1.00
C16    C     0.16668   0.16659   0.33652   0.00000  Uiso   1.00
C17    C     0.20482   0.15873   0.40728   0.00000  Uiso   1.00
C18    C     0.12851   0.15873   0.09272   0.00000  Uiso   1.00
C19    C     0.16702   0.16545   0.38450   0.00000  Uiso   1.00
C20    C     0.16632   0.16545   0.11550   0.00000  Uiso   1.00
C21    C     0.12905   0.16501   0.40650   0.00000  Uiso   1.00
C22    C     0.20428   0.16500   0.09350   0.00000  Uiso   1.00
C23    C     0.12843   0.15402   0.45220   0.00000  Uiso   1.00
C24    C     0.20490   0.15401   0.04780   0.00000  Uiso   1.00
C25    C     0.16663   0.15282   0.47645   0.00000  Uiso   1.00
C26    C     0.16671   0.15282   0.02355   0.00000  Uiso   1.00
C27    C     0.20477   0.15330   0.45384   0.00000  Uiso   1.00
C28    C     0.12856   0.15330   0.04615   0.00000  Uiso   1.00
C29    C     0.09144   0.14492   0.47514   0.00000  Uiso   1.00
C30    C     0.24189   0.14491   0.02486   0.00000  Uiso   1.00
H31    H     0.06264   0.14078   0.03843   0.00000  Uiso   1.00
H32    H     0.27069   0.14077   0.46157   0.00000  Uiso   1.00
N33    N     0.16667   0.28573   0.25000   0.00000  Uiso   1.00
N34    N     0.16667   0.04760   0.25000   0.00000  Uiso   1.00
O35    O     0.10559   0.20487   0.25000   0.00000  Uiso   1.00
O36    O     0.22774   0.12846   0.25001   0.00000  Uiso   1.00
O37    O     0.22774   0.20487   0.25001   0.00000  Uiso   1.00
O38    O     0.10559   0.12846   0.25000   0.00000  Uiso   1.00
O39    O     0.16666   0.20489   0.18393   0.00000  Uiso   1.00
O40    O     0.16667   0.12844   0.31608   0.00000  Uiso   1.00
O41    O     0.16667   0.20489   0.31608   0.00000  Uiso   1.00
O42    O     0.16666   0.12844   0.18393   0.00000  Uiso   1.00
Zn43   Zn    0.16667   0.21771   0.25000   0.00000  Uiso   1.00
Zn44   Zn    0.16667   0.11563   0.25000   0.00000  Uiso   1.00
Br45   Br    0.25620   0.16169   0.37458   0.00000  Uiso   1.00
Br46   Br    0.07713   0.16169   0.12542   0.00000  Uiso   1.00
I47    I     0.07704   0.19600   0.37328   0.00000  Uiso   1.00
I48    I     0.25630   0.19598   0.12673   0.00000  Uiso   1.00
I49    I     0.03758   0.11464   0.44546   0.00000  Uiso   1.00
I50    I     0.29575   0.11463   0.05454   0.00000  Uiso   1.00
Br51   Br    0.04369   0.06997   0.27927   0.00000  Uiso   1.00
Br52   Br    0.28845   0.26574   0.22522   0.00000  Uiso   1.00
Br53   Br    0.28965   0.06997   0.22074   0.00000  Uiso   1.00
Br54   Br    0.04488   0.26574   0.27477   0.00000  Uiso   1.00
Br55   Br    0.22717   0.05495   0.32147   0.00000  Uiso   1.00
Br56   Br    0.10730   0.27826   0.17728   0.00000  Uiso   1.00
Br57   Br    0.10616   0.05495   0.17853   0.00000  Uiso   1.00
Br58   Br    0.22603   0.27826   0.32272   0.00000  Uiso   1.00
C59    C     0.42012   0.16675   0.25407   0.00000  Uiso   1.00
C60    C     0.57988   0.16675   0.24593   0.00000  Uiso   1.00
C61    C     0.42493   0.14649   0.02172   0.00000  Uiso   1.00
C62    C     0.57507   0.14648   0.47828   0.00000  Uiso   1.00
C63    C     0.35393   0.12602   0.25655   0.00000  Uiso   1.00
C64    C     0.64587   0.20859   0.24416   0.00000  Uiso   1.00
C65    C     0.64607   0.12602   0.24346   0.00000  Uiso   1.00
C66    C     0.35413   0.20859   0.25584   0.00000  Uiso   1.00
C67    C     0.62441   0.16716   0.24199   0.00000  Uiso   1.00
C68    C     0.37559   0.16716   0.25801   0.00000  Uiso   1.00
C69    C     0.52473   0.02388   0.27960   0.00000  Uiso   1.00
C70    C     0.47545   0.30941   0.22020   0.00000  Uiso   1.00
C71    C     0.47527   0.02388   0.22040   0.00000  Uiso   1.00
C72    C     0.52455   0.30941   0.27980   0.00000  Uiso   1.00
C73    C     0.49999   0.16659   0.16348   0.00000  Uiso   1.00
C74    C     0.50001   0.16659   0.33652   0.00000  Uiso   1.00
C75    C     0.53815   0.15873   0.40728   0.00000  Uiso   1.00
C76    C     0.46184   0.15873   0.09272   0.00000  Uiso   1.00
C77    C     0.50035   0.16545   0.38450   0.00000  Uiso   1.00
C78    C     0.49965   0.16545   0.11550   0.00000  Uiso   1.00
C79    C     0.46239   0.16501   0.40650   0.00000  Uiso   1.00
C80    C     0.53761   0.16500   0.09350   0.00000  Uiso   1.00
C81    C     0.46176   0.15402   0.45220   0.00000  Uiso   1.00
C82    C     0.53824   0.15401   0.04780   0.00000  Uiso   1.00
C83    C     0.49996   0.15282   0.47645   0.00000  Uiso   1.00
C84    C     0.50004   0.15282   0.02355   0.00000  Uiso   1.00
C85    C     0.53811   0.15330   0.45384   0.00000  Uiso   1.00
C86    C     0.46189   0.15330   0.04615   0.00000  Uiso   1.00
C87    C     0.42477   0.14492   0.47514   0.00000  Uiso   1.00
C88    C     0.57523   0.14491   0.02486   0.00000  Uiso   1.00
H89    H     0.39597   0.14078   0.03843   0.00000  Uiso   1.00
H90    H     0.60403   0.14077   0.46157   0.00000  Uiso   1.00
N91    N     0.50000   0.28573   0.25000   0.00000  Uiso   1.00
N92    N     0.50000   0.04760   0.25000   0.00000  Uiso   1.00
O93    O     0.43892   0.20487   0.25000   0.00000  Uiso   1.00
O94    O     0.56108   0.12846   0.25001   0.00000  Uiso   1.00
O95    O     0.56108   0.20487   0.25001   0.00000  Uiso   1.00
O96    O     0.43892   0.12846   0.25000   0.00000  Uiso   1.00
O97    O     0.49999   0.20489   0.18393   0.00000  Uiso   1.00
O98    O     0.50001   0.12844   0.31608   0.00000  Uiso   1.00
O99    O     0.50001   0.20489   0.31608   0.00000  Uiso   1.00
O100   O     0.49999   0.12844   0.18393   0.00000  Uiso   1.00
Zn101  Zn    0.50000   0.21771   0.25000   0.00000  Uiso   1.00
Zn102  Zn    0.50000   0.11563   0.25000   0.00000  Uiso   1.00
Br103  Br    0.58954   0.16169   0.37458   0.00000  Uiso   1.00
Br104  Br    0.41046   0.16169   0.12542   0.00000  Uiso   1.00
I105   I     0.41037   0.19600   0.37328   0.00000  Uiso   1.00
I106   I     0.58963   0.19598   0.12673   0.00000  Uiso   1.00
I107   I     0.37092   0.11464   0.44546   0.00000  Uiso   1.00
I108   I     0.62908   0.11463   0.05454   0.00000  Uiso   1.00
Br109  Br    0.37702   0.06997   0.27927   0.00000  Uiso   1.00
Br110  Br    0.62179   0.26574   0.22522   0.00000  Uiso   1.00
Br111  Br    0.62298   0.06997   0.22074   0.00000  Uiso   1.00
Br112  Br    0.37821   0.26574   0.27477   0.00000  Uiso   1.00
Br113  Br    0.56051   0.05495   0.32147   0.00000  Uiso   1.00
Br114  Br    0.44063   0.27826   0.17728   0.00000  Uiso   1.00
Br115  Br    0.43949   0.05495   0.17853   0.00000  Uiso   1.00
Br116  Br    0.55936   0.27826   0.32272   0.00000  Uiso   1.00
C117   C     0.75345   0.16675   0.25407   0.00000  Uiso   1.00
C118   C     0.91322   0.16675   0.24593   0.00000  Uiso   1.00
C119   C     0.75826   0.14649   0.02172   0.00000  Uiso   1.00
C120   C     0.90841   0.14648   0.47828   0.00000  Uiso   1.00
C121   C     0.68727   0.12602   0.25655   0.00000  Uiso   1.00
C122   C     0.97920   0.20859   0.24416   0.00000  Uiso   1.00
C123   C     0.97940   0.12602   0.24346   0.00000  Uiso   1.00
C124   C     0.68747   0.20859   0.25584   0.00000  Uiso   1.00
C125   C     0.95775   0.16716   0.24199   0.00000  Uiso   1.00
C126   C     0.70892   0.16716   0.25801   0.00000  Uiso   1.00
C127   C     0.85807   0.02388   0.27960   0.00000  Uiso   1.00
C128   C     0.80879   0.30941   0.22020   0.00000  Uiso   1.00
C129   C     0.80860   0.02388   0.22040   0.00000  Uiso   1.00
C130   C     0.85788   0.30941   0.27980   0.00000  Uiso   1.00
C131   C     0.83332   0.16659   0.16348   0.00000  Uiso   1.00
C132   C     0.83335   0.16659   0.33652   0.00000  Uiso   1.00
C133   C     0.87149   0.15873   0.40728   0.00000  Uiso   1.00
C134   C     0.79518   0.15873   0.09272   0.00000  Uiso   1.00
C135   C     0.83368   0.16545   0.38450   0.00000  Uiso   1.00
C136   C     0.83298   0.16545   0.11550   0.00000  Uiso   1.00
C137   C     0.79572   0.16501   0.40650   0.00000  Uiso   1.00
C138   C     0.87095   0.16500   0.09350   0.00000  Uiso   1.00
C139   C     0.79510   0.15402   0.45220   0.00000  Uiso   1.00
C140   C     0.87157   0.15401   0.04780   0.00000  Uiso   1.00
C141   C     0.83329   0.15282   0.47645   0.00000  Uiso   1.00
C142   C     0.83337   0.15282   0.02355   0.00000  Uiso   1.00
C143   C     0.87144   0.15330   0.45384   0.00000  Uiso   1.00
C144   C     0.79523   0.15330   0.04615   0.00000  Uiso   1.00
C145   C     0.75810   0.14492   0.47514   0.00000  Uiso   1.00
C146   C     0.90856   0.14491   0.02486   0.00000  Uiso   1.00
H147   H     0.72930   0.14078   0.03843   0.00000  Uiso   1.00
H148   H     0.93736   0.14077   0.46157   0.00000  Uiso   1.00
N149   N     0.83333   0.28573   0.25000   0.00000  Uiso   1.00
N150   N     0.83333   0.04760   0.25000   0.00000  Uiso   1.00
O151   O     0.77226   0.20487   0.25000   0.00000  Uiso   1.00
O152   O     0.89441   0.12846   0.25001   0.00000  Uiso   1.00
O153   O     0.89441   0.20487   0.25001   0.00000  Uiso   1.00
O154   O     0.77226   0.12846   0.25000   0.00000  Uiso   1.00
O155   O     0.83333   0.20489   0.18393   0.00000  Uiso   1.00
O156   O     0.83334   0.12844   0.31608   0.00000  Uiso   1.00
O157   O     0.83334   0.20489   0.31608   0.00000  Uiso   1.00
O158   O     0.83333   0.12844   0.18393   0.00000  Uiso   1.00
Zn159  Zn    0.83333   0.21771   0.25000   0.00000  Uiso   1.00
Zn160  Zn    0.83333   0.11563   0.25000   0.00000  Uiso   1.00
Br161  Br    0.92287   0.16169   0.37458   0.00000  Uiso   1.00
Br162  Br    0.74380   0.16169   0.12542   0.00000  Uiso   1.00
I163   I     0.74371   0.19600   0.37328   0.00000  Uiso   1.00
I164   I     0.92296   0.19598   0.12673   0.00000  Uiso   1.00
I165   I     0.70425   0.11464   0.44546   0.00000  Uiso   1.00
I166   I     0.96241   0.11463   0.05454   0.00000  Uiso   1.00
Br167  Br    0.71035   0.06997   0.27927   0.00000  Uiso   1.00
Br168  Br    0.95512   0.26574   0.22522   0.00000  Uiso   1.00
Br169  Br    0.95631   0.06997   0.22074   0.00000  Uiso   1.00
Br170  Br    0.71155   0.26574   0.27477   0.00000  Uiso   1.00
Br171  Br    0.89384   0.05495   0.32147   0.00000  Uiso   1.00
Br172  Br    0.77397   0.27826   0.17728   0.00000  Uiso   1.00
Br173  Br    0.77283   0.05495   0.17853   0.00000  Uiso   1.00
Br174  Br    0.89270   0.27826   0.32272   0.00000  Uiso   1.00
C175   C     0.08678   0.50009   0.25407   0.00000  Uiso   1.00
C176   C     0.24655   0.50009   0.24593   0.00000  Uiso   1.00
C177   C     0.09159   0.47982   0.02172   0.00000  Uiso   1.00
C178   C     0.24174   0.47981   0.47828   0.00000  Uiso   1.00
C179   C     0.02060   0.45936   0.25655   0.00000  Uiso   1.00
C180   C     0.31253   0.54192   0.24416   0.00000  Uiso   1.00
C181   C     0.31273   0.45936   0.24346   0.00000  Uiso   1.00
C182   C     0.02080   0.54192   0.25584   0.00000  Uiso   1.00
C183   C     0.29108   0.50049   0.24199   0.00000  Uiso   1.00
C184   C     0.04225   0.50049   0.25801   0.00000  Uiso   1.00
C185   C     0.19140   0.35722   0.27960   0.00000  Uiso   1.00
C186   C     0.14212   0.64274   0.22020   0.00000  Uiso   1.00
C187   C     0.14193   0.35722   0.22040   0.00000  Uiso   1.00
C188   C     0.19121   0.64274   0.27980   0.00000  Uiso   1.00
C189   C     0.16665   0.49993   0.16348   0.00000  Uiso   1.00
C190   C     0.16668   0.49993   0.33652   0.00000  Uiso   1.00
C191   C     0.20482   0.49206   0.40728   0.00000  Uiso   1.00
C192   C     0.12851   0.49207   0.09272   0.00000  Uiso   1.00
C193   C     0.16702   0.49878   0.38450   0.00000  Uiso   1.00
C194   C     0.16632   0.49878   0.11550   0.00000  Uiso   1.00
C195   C     0.12905   0.49834   0.40650   0.00000  Uiso   1.00
C196   C     0.20428   0.49834   0.09350   0.00000  Uiso   1.00
C197   C     0.12843   0.48735   0.45220   0.00000  Uiso   1.00
C198   C     0.20490   0.48735   0.04780   0.00000  Uiso   1.00
C199   C     0.16663   0.48615   0.47645   0.00000  Uiso   1.00
C200   C     0.16671   0.48615   0.02355   0.00000  Uiso   1.00
C201   C     0.20477   0.48664   0.45384   0.00000  Uiso   1.00
C202   C     0.12856   0.48664   0.04615   0.00000  Uiso   1.00
C203   C     0.09144   0.47825   0.47514   0.00000  Uiso   1.00
C204   C     0.24189   0.47824   0.02486   0.00000  Uiso   1.00
H205   H     0.06264   0.47412   0.03843   0.00000  Uiso   1.00
H206   H     0.27069   0.47411   0.46157   0.00000  Uiso   1.00
N207   N     0.16667   0.61907   0.25000   0.00000  Uiso   1.00
N208   N     0.16667   0.38093   0.25000   0.00000  Uiso   1.00
O209   O     0.10559   0.53821   0.25000   0.00000  Uiso   1.00
O210   O     0.22774   0.46179   0.25001   0.00000  Uiso   1.00
O211   O     0.22774   0.53821   0.25001   0.00000  Uiso   1.00
O212   O     0.10559   0.46179   0.25000   0.00000  Uiso   1.00
O213   O     0.16666   0.53823   0.18393   0.00000  Uiso   1.00
O214   O     0.16667   0.46177   0.31608   0.00000  Uiso   1.00
O215   O     0.16667   0.53823   0.31608   0.00000  Uiso   1.00
O216   O     0.16666   0.46177   0.18393   0.00000  Uiso   1.00
Zn217  Zn    0.16667   0.55104   0.25000   0.00000  Uiso   1.00
Zn218  Zn    0.16667   0.44896   0.25000   0.00000  Uiso   1.00
Br219  Br    0.25620   0.49502   0.37458   0.00000  Uiso   1.00
Br220  Br    0.07713   0.49502   0.12542   0.00000  Uiso   1.00
I221   I     0.07704   0.52933   0.37328   0.00000  Uiso   1.00
I222   I     0.25630   0.52932   0.12673   0.00000  Uiso   1.00
I223   I     0.03758   0.44797   0.44546   0.00000  Uiso   1.00
I224   I     0.29575   0.44796   0.05454   0.00000  Uiso   1.00
Br225  Br    0.04369   0.40331   0.27927   0.00000  Uiso   1.00
Br226  Br    0.28845   0.59907   0.22522   0.00000  Uiso   1.00
Br227  Br    0.28965   0.40330   0.22074   0.00000  Uiso   1.00
Br228  Br    0.04488   0.59907   0.27477   0.00000  Uiso   1.00
Br229  Br    0.22717   0.38828   0.32147   0.00000  Uiso   1.00
Br230  Br    0.10730   0.61159   0.17728   0.00000  Uiso   1.00
Br231  Br    0.10616   0.38828   0.17853   0.00000  Uiso   1.00
Br232  Br    0.22603   0.61159   0.32272   0.00000  Uiso   1.00
C233   C     0.42012   0.50009   0.25407   0.00000  Uiso   1.00
C234   C     0.57988   0.50009   0.24593   0.00000  Uiso   1.00
C235   C     0.42493   0.47982   0.02172   0.00000  Uiso   1.00
C236   C     0.57507   0.47981   0.47828   0.00000  Uiso   1.00
C237   C     0.35393   0.45936   0.25655   0.00000  Uiso   1.00
C238   C     0.64587   0.54192   0.24416   0.00000  Uiso   1.00
C239   C     0.64607   0.45936   0.24346   0.00000  Uiso   1.00
C240   C     0.35413   0.54192   0.25584   0.00000  Uiso   1.00
C241   C     0.62441   0.50049   0.24199   0.00000  Uiso   1.00
C242   C     0.37559   0.50049   0.25801   0.00000  Uiso   1.00
C243   C     0.52473   0.35722   0.27960   0.00000  Uiso   1.00
C244   C     0.47545   0.64274   0.22020   0.00000  Uiso   1.00
C245   C     0.47527   0.35722   0.22040   0.00000  Uiso   1.00
C246   C     0.52455   0.64274   0.27980   0.00000  Uiso   1.00
C247   C     0.49999   0.49993   0.16348   0.00000  Uiso   1.00
C248   C     0.50001   0.49993   0.33652   0.00000  Uiso   1.00
C249   C     0.53815   0.49206   0.40728   0.00000  Uiso   1.00
C250   C     0.46184   0.49207   0.09272   0.00000  Uiso   1.00
C251   C     0.50035   0.49878   0.38450   0.00000  Uiso   1.00
C252   C     0.49965   0.49878   0.11550   0.00000  Uiso   1.00
C253   C     0.46239   0.49834   0.40650   0.00000  Uiso   1.00
C254   C     0.53761   0.49834   0.09350   0.00000  Uiso   1.00
C255   C     0.46176   0.48735   0.45220   0.00000  Uiso   1.00
C256   C     0.53824   0.48735   0.04780   0.00000  Uiso   1.00
C257   C     0.49996   0.48615   0.47645   0.00000  Uiso   1.00
C258   C     0.50004   0.48615   0.02355   0.00000  Uiso   1.00
C259   C     0.53811   0.48664   0.45384   0.00000  Uiso   1.00
C260   C     0.46189   0.48664   0.04615   0.00000  Uiso   1.00
C261   C     0.42477   0.47825   0.47514   0.00000  Uiso   1.00
C262   C     0.57523   0.47824   0.02486   0.00000  Uiso   1.00
H263   H     0.39597   0.47412   0.03843   0.00000  Uiso   1.00
H264   H     0.60403   0.47411   0.46157   0.00000  Uiso   1.00
N265   N     0.50000   0.61907   0.25000   0.00000  Uiso   1.00
N266   N     0.50000   0.38093   0.25000   0.00000  Uiso   1.00
O267   O     0.43892   0.53821   0.25000   0.00000  Uiso   1.00
O268   O     0.56108   0.46179   0.25001   0.00000  Uiso   1.00
O269   O     0.56108   0.53821   0.25001   0.00000  Uiso   1.00
O270   O     0.43892   0.46179   0.25000   0.00000  Uiso   1.00
O271   O     0.49999   0.53823   0.18393   0.00000  Uiso   1.00
O272   O     0.50001   0.46177   0.31608   0.00000  Uiso   1.00
O273   O     0.50001   0.53823   0.31608   0.00000  Uiso   1.00
O274   O     0.49999   0.46177   0.18393   0.00000  Uiso   1.00
Zn275  Zn    0.50000   0.55104   0.25000   0.00000  Uiso   1.00
Zn276  Zn    0.50000   0.44896   0.25000   0.00000  Uiso   1.00
Br277  Br    0.58954   0.49502   0.37458   0.00000  Uiso   1.00
Br278  Br    0.41046   0.49502   0.12542   0.00000  Uiso   1.00
I279   I     0.41037   0.52933   0.37328   0.00000  Uiso   1.00
I280   I     0.58963   0.52932   0.12673   0.00000  Uiso   1.00
I281   I     0.37092   0.44797   0.44546   0.00000  Uiso   1.00
I282   I     0.62908   0.44796   0.05454   0.00000  Uiso   1.00
Br283  Br    0.37702   0.40331   0.27927   0.00000  Uiso   1.00
Br284  Br    0.62179   0.59907   0.22522   0.00000  Uiso   1.00
Br285  Br    0.62298   0.40330   0.22074   0.00000  Uiso   1.00
Br286  Br    0.37821   0.59907   0.27477   0.00000  Uiso   1.00
Br287  Br    0.56051   0.38828   0.32147   0.00000  Uiso   1.00
Br288  Br    0.44063   0.61159   0.17728   0.00000  Uiso   1.00
Br289  Br    0.43949   0.38828   0.17853   0.00000  Uiso   1.00
Br290  Br    0.55936   0.61159   0.32272   0.00000  Uiso   1.00
C291   C     0.75345   0.50009   0.25407   0.00000  Uiso   1.00
C292   C     0.91322   0.50009   0.24593   0.00000  Uiso   1.00
C293   C     0.75826   0.47982   0.02172   0.00000  Uiso   1.00
C294   C     0.90841   0.47981   0.47828   0.00000  Uiso   1.00
C295   C     0.68727   0.45936   0.25655   0.00000  Uiso   1.00
C296   C     0.97920   0.54192   0.24416   0.00000  Uiso   1.00
C297   C     0.97940   0.45936   0.24346   0.00000  Uiso   1.00
C298   C     0.68747   0.54192   0.25584   0.00000  Uiso   1.00
C299   C     0.95775   0.50049   0.24199   0.00000  Uiso   1.00
C300   C     0.70892   0.50049   0.25801   0.00000  Uiso   1.00
C301   C     0.85807   0.35722   0.27960   0.00000  Uiso   1.00
C302   C     0.80879   0.64274   0.22020   0.00000  Uiso   1.00
C303   C     0.80860   0.35722   0.22040   0.00000  Uiso   1.00
C304   C     0.85788   0.64274   0.27980   0.00000  Uiso   1.00
C305   C     0.83332   0.49993   0.16348   0.00000  Uiso   1.00
C306   C     0.83335   0.49993   0.33652   0.00000  Uiso   1.00
C307   C     0.87149   0.49206   0.40728   0.00000  Uiso   1.00
C308   C     0.79518   0.49207   0.09272   0.00000  Uiso   1.00
C309   C     0.83368   0.49878   0.38450   0.00000  Uiso   1.00
C310   C     0.83298   0.49878   0.11550   0.00000  Uiso   1.00
C311   C     0.79572   0.49834   0.40650   0.00000  Uiso   1.00
C312   C     0.87095   0.49834   0.09350   0.00000  Uiso   1.00
C313   C     0.79510   0.48735   0.45220   0.00000  Uiso   1.00
C314   C     0.87157   0.48735   0.04780   0.00000  Uiso   1.00
C315   C     0.83329   0.48615   0.47645   0.00000  Uiso   1.00
C316   C     0.83337   0.48615   0.02355   0.00000  Uiso   1.00
C317   C     0.87144   0.48664   0.45384   0.00000  Uiso   1.00
C318   C     0.79523   0.48664   0.04615   0.00000  Uiso   1.00
C319   C     0.75810   0.47825   0.47514   0.00000  Uiso   1.00
C320   C     0.90856   0.47824   0.02486   0.00000  Uiso   1.00
H321   H     0.72930   0.47412   0.03843   0.00000  Uiso   1.00
H322   H     0.93736   0.47411   0.46157   0.00000  Uiso   1.00
N323   N     0.83333   0.61907   0.25000   0.00000  Uiso   1.00
N324   N     0.83333   0.38093   0.25000   0.00000  Uiso   1.00
O325   O     0.77226   0.53821   0.25000   0.00000  Uiso   1.00
O326   O     0.89441   0.46179   0.25001   0.00000  Uiso   1.00
O327   O     0.89441   0.53821   0.25001   0.00000  Uiso   1.00
O328   O     0.77226   0.46179   0.25000   0.00000  Uiso   1.00
O329   O     0.83333   0.53823   0.18393   0.00000  Uiso   1.00
O330   O     0.83334   0.46177   0.31608   0.00000  Uiso   1.00
O331   O     0.83334   0.53823   0.31608   0.00000  Uiso   1.00
O332   O     0.83333   0.46177   0.18393   0.00000  Uiso   1.00
Zn333  Zn    0.83333   0.55104   0.25000   0.00000  Uiso   1.00
Zn334  Zn    0.83333   0.44896   0.25000   0.00000  Uiso   1.00
Br335  Br    0.92287   0.49502   0.37458   0.00000  Uiso   1.00
Br336  Br    0.74380   0.49502   0.12542   0.00000  Uiso   1.00
I337   I     0.74371   0.52933   0.37328   0.00000  Uiso   1.00
I338   I     0.92296   0.52932   0.12673   0.00000  Uiso   1.00
I339   I     0.70425   0.44797   0.44546   0.00000  Uiso   1.00
I340   I     0.96241   0.44796   0.05454   0.00000  Uiso   1.00
Br341  Br    0.71035   0.40331   0.27927   0.00000  Uiso   1.00
Br342  Br    0.95512   0.59907   0.22522   0.00000  Uiso   1.00
Br343  Br    0.95631   0.40330   0.22074   0.00000  Uiso   1.00
Br344  Br    0.71155   0.59907   0.27477   0.00000  Uiso   1.00
Br345  Br    0.89384   0.38828   0.32147   0.00000  Uiso   1.00
Br346  Br    0.77397   0.61159   0.17728   0.00000  Uiso   1.00
Br347  Br    0.77283   0.38828   0.17853   0.00000  Uiso   1.00
Br348  Br    0.89270   0.61159   0.32272   0.00000  Uiso   1.00
C349   C     0.08678   0.83342   0.25407   0.00000  Uiso   1.00
C350   C     0.24655   0.83342   0.24593   0.00000  Uiso   1.00
C351   C     0.09159   0.81315   0.02172   0.00000  Uiso   1.00
C352   C     0.24174   0.81315   0.47828   0.00000  Uiso   1.00
C353   C     0.02060   0.79269   0.25655   0.00000  Uiso   1.00
C354   C     0.31253   0.87525   0.24416   0.00000  Uiso   1.00
C355   C     0.31273   0.79269   0.24346   0.00000  Uiso   1.00
C356   C     0.02080   0.87525   0.25584   0.00000  Uiso   1.00
C357   C     0.29108   0.83383   0.24199   0.00000  Uiso   1.00
C358   C     0.04225   0.83383   0.25801   0.00000  Uiso   1.00
C359   C     0.19140   0.69055   0.27960   0.00000  Uiso   1.00
C360   C     0.14212   0.97608   0.22020   0.00000  Uiso   1.00
C361   C     0.14193   0.69055   0.22040   0.00000  Uiso   1.00
C362   C     0.19121   0.97608   0.27980   0.00000  Uiso   1.00
C363   C     0.16665   0.83326   0.16348   0.00000  Uiso   1.00
C364   C     0.16668   0.83326   0.33652   0.00000  Uiso   1.00
C365   C     0.20482   0.82540   0.40728   0.00000  Uiso   1.00
C366   C     0.12851   0.82540   0.09272   0.00000  Uiso   1.00
C367   C     0.16702   0.83212   0.38450   0.00000  Uiso   1.00
C368   C     0.16632   0.83212   0.11550   0.00000  Uiso   1.00
C369   C     0.12905   0.83168   0.40650   0.00000  Uiso   1.00
C370   C     0.20428   0.83167   0.09350   0.00000  Uiso   1.00
C371   C     0.12843   0.82069   0.45220   0.00000  Uiso   1.00
C372   C     0.20490   0.82068   0.04780   0.00000  Uiso   1.00
C373   C     0.16663   0.81949   0.47645   0.00000  Uiso   1.00
C374   C     0.16671   0.81949   0.02355   0.00000  Uiso   1.00
C375   C     0.20477   0.81997   0.45384   0.00000  Uiso   1.00
C376   C     0.12856   0.81997   0.04615   0.00000  Uiso   1.00
C377   C     0.09144   0.81158   0.47514   0.00000  Uiso   1.00
C378   C     0.24189   0.81158   0.02486   0.00000  Uiso   1.00
H379   H     0.06264   0.80745   0.03843   0.00000  Uiso   1.00
H380   H     0.27069   0.80744   0.46157   0.00000  Uiso   1.00
N381   N     0.16667   0.95240   0.25000   0.00000  Uiso   1.00
N382   N     0.16667   0.71427   0.25000   0.00000  Uiso   1.00
O383   O     0.10559   0.87154   0.25000   0.00000  Uiso   1.00
O384   O     0.22774   0.79513   0.25001   0.00000  Uiso   1.00
O385   O     0.22774   0.87154   0.25001   0.00000  Uiso   1.00
O386   O     0.10559   0.79513   0.25000   0.00000  Uiso   1.00
O387   O     0.16666   0.87156   0.18393   0.00000  Uiso   1.00
O388   O     0.16667   0.79511   0.31608   0.00000  Uiso   1.00
O389   O     0.16667   0.87156   0.31608   0.00000  Uiso   1.00
O390   O     0.16666   0.79511   0.18393   0.00000  Uiso   1.00
Zn391  Zn    0.16667   0.88437   0.25000   0.00000  Uiso   1.00
Zn392  Zn    0.16667   0.78229   0.25000   0.00000  Uiso   1.00
Br393  Br    0.25620   0.82835   0.37458   0.00000  Uiso   1.00
Br394  Br    0.07713   0.82836   0.12542   0.00000  Uiso   1.00
I395   I     0.07704   0.86266   0.37328   0.00000  Uiso   1.00
I396   I     0.25630   0.86265   0.12673   0.00000  Uiso   1.00
I397   I     0.03758   0.78131   0.44546   0.00000  Uiso   1.00
I398   I     0.29575   0.78129   0.05454   0.00000  Uiso   1.00
Br399  Br    0.04369   0.73664   0.27927   0.00000  Uiso   1.00
Br400  Br    0.28845   0.93241   0.22522   0.00000  Uiso   1.00
Br401  Br    0.28965   0.73664   0.22074   0.00000  Uiso   1.00
Br402  Br    0.04488   0.93241   0.27477   0.00000  Uiso   1.00
Br403  Br    0.22717   0.72161   0.32147   0.00000  Uiso   1.00
Br404  Br    0.10730   0.94493   0.17728   0.00000  Uiso   1.00
Br405  Br    0.10616   0.72161   0.17853   0.00000  Uiso   1.00
Br406  Br    0.22603   0.94493   0.32272   0.00000  Uiso   1.00
C407   C     0.42012   0.83342   0.25407   0.00000  Uiso   1.00
C408   C     0.57988   0.83342   0.24593   0.00000  Uiso   1.00
C409   C     0.42493   0.81315   0.02172   0.00000  Uiso   1.00
C410   C     0.57507   0.81315   0.47828   0.00000  Uiso   1.00
C411   C     0.35393   0.79269   0.25655   0.00000  Uiso   1.00
C412   C     0.64587   0.87525   0.24416   0.00000  Uiso   1.00
C413   C     0.64607   0.79269   0.24346   0.00000  Uiso   1.00
C414   C     0.35413   0.87525   0.25584   0.00000  Uiso   1.00
C415   C     0.62441   0.83383   0.24199   0.00000  Uiso   1.00
C416   C     0.37559   0.83383   0.25801   0.00000  Uiso   1.00
C417   C     0.52473   0.69055   0.27960   0.00000  Uiso   1.00
C418   C     0.47545   0.97608   0.22020   0.00000  Uiso   1.00
C419   C     0.47527   0.69055   0.22040   0.00000  Uiso   1.00
C420   C     0.52455   0.97608   0.27980   0.00000  Uiso   1.00
C421   C     0.49999   0.83326   0.16348   0.00000  Uiso   1.00
C422   C     0.50001   0.83326   0.33652   0.00000  Uiso   1.00
C423   C     0.53815   0.82540   0.40728   0.00000  Uiso   1.00
C424   C     0.46184   0.82540   0.09272   0.00000  Uiso   1.00
C425   C     0.50035   0.83212   0.38450   0.00000  Uiso   1.00
C426   C     0.49965   0.83212   0.11550   0.00000  Uiso   1.00
C427   C     0.46239   0.83168   0.40650   0.00000  Uiso   1.00
C428   C     0.53761   0.83167   0.09350   0.00000  Uiso   1.00
C429   C     0.46176   0.82069   0.45220   0.00000  Uiso   1.00
C430   C     0.53824   0.82068   0.04780   0.00000  Uiso   1.00
C431   C     0.49996   0.81949   0.47645   0.00000  Uiso   1.00
C432   C     0.50004   0.81949   0.02355   0.00000  Uiso   1.00
C433   C     0.53811   0.81997   0.45384   0.00000  Uiso   1.00
C434   C     0.46189   0.81997   0.04615   0.00000  Uiso   1.00
C435   C     0.42477   0.81158   0.47514   0.00000  Uiso   1.00
C436   C     0.57523   0.81158   0.02486   0.00000  Uiso   1.00
H437   H     0.39597   0.80745   0.03843   0.00000  Uiso   1.00
H438   H     0.60403   0.80744   0.46157   0.00000  Uiso   1.00
N439   N     0.50000   0.95240   0.25000   0.00000  Uiso   1.00
N440   N     0.50000   0.71427   0.25000   0.00000  Uiso   1.00
O441   O     0.43892   0.87154   0.25000   0.00000  Uiso   1.00
O442   O     0.56108   0.79513   0.25001   0.00000  Uiso   1.00
O443   O     0.56108   0.87154   0.25001   0.00000  Uiso   1.00
O444   O     0.43892   0.79513   0.25000   0.00000  Uiso   1.00
O445   O     0.49999   0.87156   0.18393   0.00000  Uiso   1.00
O446   O     0.50001   0.79511   0.31608   0.00000  Uiso   1.00
O447   O     0.50001   0.87156   0.31608   0.00000  Uiso   1.00
O448   O     0.49999   0.79511   0.18393   0.00000  Uiso   1.00
Zn449  Zn    0.50000   0.88437   0.25000   0.00000  Uiso   1.00
Zn450  Zn    0.50000   0.78229   0.25000   0.00000  Uiso   1.00
Br451  Br    0.58954   0.82835   0.37458   0.00000  Uiso   1.00
Br452  Br    0.41046   0.82836   0.12542   0.00000  Uiso   1.00
I453   I     0.41037   0.86266   0.37328   0.00000  Uiso   1.00
I454   I     0.58963   0.86265   0.12673   0.00000  Uiso   1.00
I455   I     0.37092   0.78131   0.44546   0.00000  Uiso   1.00
I456   I     0.62908   0.78129   0.05454   0.00000  Uiso   1.00
Br457  Br    0.37702   0.73664   0.27927   0.00000  Uiso   1.00
Br458  Br    0.62179   0.93241   0.22522   0.00000  Uiso   1.00
Br459  Br    0.62298   0.73664   0.22074   0.00000  Uiso   1.00
Br460  Br    0.37821   0.93241   0.27477   0.00000  Uiso   1.00
Br461  Br    0.56051   0.72161   0.32147   0.00000  Uiso   1.00
Br462  Br    0.44063   0.94493   0.17728   0.00000  Uiso   1.00
Br463  Br    0.43949   0.72161   0.17853   0.00000  Uiso   1.00
Br464  Br    0.55936   0.94493   0.32272   0.00000  Uiso   1.00
C465   C     0.75345   0.83342   0.25407   0.00000  Uiso   1.00
C466   C     0.91322   0.83342   0.24593   0.00000  Uiso   1.00
C467   C     0.75826   0.81315   0.02172   0.00000  Uiso   1.00
C468   C     0.90841   0.81315   0.47828   0.00000  Uiso   1.00
C469   C     0.68727   0.79269   0.25655   0.00000  Uiso   1.00
C470   C     0.97920   0.87525   0.24416   0.00000  Uiso   1.00
C471   C     0.97940   0.79269   0.24346   0.00000  Uiso   1.00
C472   C     0.68747   0.87525   0.25584   0.00000  Uiso   1.00
C473   C     0.95775   0.83383   0.24199   0.00000  Uiso   1.00
C474   C     0.70892   0.83383   0.25801   0.00000  Uiso   1.00
C475   C     0.85807   0.69055   0.27960   0.00000  Uiso   1.00
C476   C     0.80879   0.97608   0.22020   0.00000  Uiso   1.00
C477   C     0.80860   0.69055   0.22040   0.00000  Uiso   1.00
C478   C     0.85788   0.97608   0.27980   0.00000  Uiso   1.00
C479   C     0.83332   0.83326   0.16348   0.00000  Uiso   1.00
C480   C     0.83335   0.83326   0.33652   0.00000  Uiso   1.00
C481   C     0.87149   0.82540   0.40728   0.00000  Uiso   1.00
C482   C     0.79518   0.82540   0.09272   0.00000  Uiso   1.00
C483   C     0.83368   0.83212   0.38450   0.00000  Uiso   1.00
C484   C     0.83298   0.83212   0.11550   0.00000  Uiso   1.00
C485   C     0.79572   0.83168   0.40650   0.00000  Uiso   1.00
C486   C     0.87095   0.83167   0.09350   0.00000  Uiso   1.00
C487   C     0.79510   0.82069   0.45220   0.00000  Uiso   1.00
C488   C     0.87157   0.82068   0.04780   0.00000  Uiso   1.00
C489   C     0.83329   0.81949   0.47645   0.00000  Uiso   1.00
C490   C     0.83337   0.81949   0.02355   0.00000  Uiso   1.00
C491   C     0.87144   0.81997   0.45384   0.00000  Uiso   1.00
C492   C     0.79523   0.81997   0.04615   0.00000  Uiso   1.00
C493   C     0.75810   0.81158   0.47514   0.00000  Uiso   1.00
C494   C     0.90856   0.81158   0.02486   0.00000  Uiso   1.00
H495   H     0.72930   0.80745   0.03843   0.00000  Uiso   1.00
H496   H     0.93736   0.80744   0.46157   0.00000  Uiso   1.00
N497   N     0.83333   0.95240   0.25000   0.00000  Uiso   1.00
N498   N     0.83333   0.71427   0.25000   0.00000  Uiso   1.00
O499   O     0.77226   0.87154   0.25000   0.00000  Uiso   1.00
O500   O     0.89441   0.79513   0.25001   0.00000  Uiso   1.00
O501   O     0.89441   0.87154   0.25001   0.00000  Uiso   1.00
O502   O     0.77226   0.79513   0.25000   0.00000  Uiso   1.00
O503   O     0.83333   0.87156   0.18393   0.00000  Uiso   1.00
O504   O     0.83334   0.79511   0.31608   0.00000  Uiso   1.00
O505   O     0.83334   0.87156   0.31608   0.00000  Uiso   1.00
O506   O     0.83333   0.79511   0.18393   0.00000  Uiso   1.00
Zn507  Zn    0.83333   0.88437   0.25000   0.00000  Uiso   1.00
Zn508  Zn    0.83333   0.78229   0.25000   0.00000  Uiso   1.00
Br509  Br    0.92287   0.82835   0.37458   0.00000  Uiso   1.00
Br510  Br    0.74380   0.82836   0.12542   0.00000  Uiso   1.00
I511   I     0.74371   0.86266   0.37328   0.00000  Uiso   1.00
I512   I     0.92296   0.86265   0.12673   0.00000  Uiso   1.00
I513   I     0.70425   0.78131   0.44546   0.00000  Uiso   1.00
I514   I     0.96241   0.78129   0.05454   0.00000  Uiso   1.00
Br515  Br    0.71035   0.73664   0.27927   0.00000  Uiso   1.00
Br516  Br    0.95512   0.93241   0.22522   0.00000  Uiso   1.00
Br517  Br    0.95631   0.73664   0.22074   0.00000  Uiso   1.00
Br518  Br    0.71155   0.93241   0.27477   0.00000  Uiso   1.00
Br519  Br    0.89384   0.72161   0.32147   0.00000  Uiso   1.00
Br520  Br    0.77397   0.94493   0.17728   0.00000  Uiso   1.00
Br521  Br    0.77283   0.72161   0.17853   0.00000  Uiso   1.00
Br522  Br    0.89270   0.94493   0.32272   0.00000  Uiso   1.00
C523   C     0.08678   0.16675   0.75407   0.00000  Uiso   1.00
C524   C     0.24655   0.16675   0.74593   0.00000  Uiso   1.00
C525   C     0.09159   0.14649   0.52172   0.00000  Uiso   1.00
C526   C     0.24174   0.14648   0.97828   0.00000  Uiso   1.00
C527   C     0.02060   0.12602   0.75655   0.00000  Uiso   1.00
C528   C     0.31253   0.20859   0.74416   0.00000  Uiso   1.00
C529   C     0.31273   0.12602   0.74346   0.00000  Uiso   1.00
C530   C     0.02080   0.20859   0.75584   0.00000  Uiso   1.00
C531   C     0.29108   0.16716   0.74199   0.00000  Uiso   1.00
C532   C     0.04225   0.16716   0.75801   0.00000  Uiso   1.00
C533   C     0.19140   0.02388   0.77960   0.00000  Uiso   1.00
C534   C     0.14212   0.30941   0.72020   0.00000  Uiso   1.00
C535   C     0.14193   0.02388   0.72040   0.00000  Uiso   1.00
C536   C     0.19121   0.30941   0.77980   0.00000  Uiso   1.00
C537   C     0.16665   0.16659   0.66348   0.00000  Uiso   1.00
C538   C     0.16668   0.16659   0.83652   0.00000  Uiso   1.00
C539   C     0.20482   0.15873   0.90728   0.00000  Uiso   1.00
C540   C     0.12851   0.15873   0.59272   0.00000  Uiso   1.00
C541   C     0.16702   0.16545   0.88450   0.00000  Uiso   1.00
C542   C     0.16632   0.16545   0.61550   0.00000  Uiso   1.00
C543   C     0.12905   0.16501   0.90650   0.00000  Uiso   1.00
C544   C     0.20428   0.16500   0.59350   0.00000  Uiso   1.00
C545   C     0.12843   0.15402   0.95220   0.00000  Uiso   1.00
C546   C     0.20490   0.15401   0.54780   0.00000  Uiso   1.00
C547   C     0.16663   0.15282   0.97645   0.00000  Uiso   1.00
C548   C     0.16671   0.15282   0.52355   0.00000  Uiso   1.00
C549   C     0.20477   0.15330   0.95384   0.00000  Uiso   1.00
C550   C     0.12856   0.15330   0.54615   0.00000  Uiso   1.00
C551   C     0.09144   0.14492   0.97514   0.00000  Uiso   1.00
C552   C     0.24189   0.14491   0.52486   0.00000  Uiso   1.00
H553   H     0.06264   0.14078   0.53843   0.00000  Uiso   1.00
H554   H     0.27069   0.14077   0.96157   0.00000  Uiso   1.00
N555   N     0.16667   0.28573   0.75000   0.00000  Uiso   1.00
N556   N     0.16667   0.04760   0.75000   0.00000  Uiso   1.00
O557   O     0.10559   0.20487   0.75000   0.00000  Uiso   1.00
O558   O     0.22774   0.12846   0.75001   0.00000  Uiso   1.00
O559   O     0.22774   0.20487   0.75001   0.00000  Uiso   1.00
O560   O     0.10559   0.12846   0.75000   0.00000  Uiso   1.00
O561   O     0.16666   0.20489   0.68393   0.00000  Uiso   1.00
O562   O     0.16667   0.12844   0.81608   0.00000  Uiso   1.00
O563   O     0.16667   0.20489   0.81608   0.00000  Uiso   1.00
O564   O     0.16666   0.12844   0.68393   0.00000  Uiso   1.00
Zn565  Zn    0.16667   0.21771   0.75000   0.00000  Uiso   1.00
Zn566  Zn    0.16667   0.11563   0.75000   0.00000  Uiso   1.00
Br567  Br    0.25620   0.16169   0.87458   0.00000  Uiso   1.00
Br568  Br    0.07713   0.16169   0.62542   0.00000  Uiso   1.00
I569   I     0.07704   0.19600   0.87328   0.00000  Uiso   1.00
I570   I     0.25630   0.19598   0.62673   0.00000  Uiso   1.00
I571   I     0.03758   0.11464   0.94546   0.00000  Uiso   1.00
I572   I     0.29575   0.11463   0.55454   0.00000  Uiso   1.00
Br573  Br    0.04369   0.06997   0.77927   0.00000  Uiso   1.00
Br574  Br    0.28845   0.26574   0.72522   0.00000  Uiso   1.00
Br575  Br    0.28965   0.06997   0.72074   0.00000  Uiso   1.00
Br576  Br    0.04488   0.26574   0.77477   0.00000  Uiso   1.00
Br577  Br    0.22717   0.05495   0.82147   0.00000  Uiso   1.00
Br578  Br    0.10730   0.27826   0.67728   0.00000  Uiso   1.00
Br579  Br    0.10616   0.05495   0.67853   0.00000  Uiso   1.00
Br580  Br    0.22603   0.27826   0.82272   0.00000  Uiso   1.00
C581   C     0.42012   0.16675   0.75407   0.00000  Uiso   1.00
C582   C     0.57988   0.16675   0.74593   0.00000  Uiso   1.00
C583   C     0.42493   0.14649   0.52172   0.00000  Uiso   1.00
C584   C     0.57507   0.14648   0.97828   0.00000  Uiso   1.00
C585   C     0.35393   0.12602   0.75655   0.00000  Uiso   1.00
C586   C     0.64587   0.20859   0.74416   0.00000  Uiso   1.00
C587   C     0.64607   0.12602   0.74346   0.00000  Uiso   1.00
C588   C     0.35413   0.20859   0.75584   0.00000  Uiso   1.00
C589   C     0.62441   0.16716   0.74199   0.00000  Uiso   1.00
C590   C     0.37559   0.16716   0.75801   0.00000  Uiso   1.00
C591   C     0.52473   0.02388   0.77960   0.00000  Uiso   1.00
C592   C     0.47545   0.30941   0.72020   0.00000  Uiso   1.00
C593   C     0.47527   0.02388   0.72040   0.00000  Uiso   1.00
C594   C     0.52455   0.30941   0.77980   0.00000  Uiso   1.00
C595   C     0.49999   0.16659   0.66348   0.00000  Uiso   1.00
C596   C     0.50001   0.16659   0.83652   0.00000  Uiso   1.00
C597   C     0.53815   0.15873   0.90728   0.00000  Uiso   1.00
C598   C     0.46184   0.15873   0.59272   0.00000  Uiso   1.00
C599   C     0.50035   0.16545   0.88450   0.00000  Uiso   1.00
C600   C     0.49965   0.16545   0.61550   0.00000  Uiso   1.00
C601   C     0.46239   0.16501   0.90650   0.00000  Uiso   1.00
C602   C     0.53761   0.16500   0.59350   0.00000  Uiso   1.00
C603   C     0.46176   0.15402   0.95220   0.00000  Uiso   1.00
C604   C     0.53824   0.15401   0.54780   0.00000  Uiso   1.00
C605   C     0.49996   0.15282   0.97645   0.00000  Uiso   1.00
C606   C     0.50004   0.15282   0.52355   0.00000  Uiso   1.00
C607   C     0.53811   0.15330   0.95384   0.00000  Uiso   1.00
C608   C     0.46189   0.15330   0.54615   0.00000  Uiso   1.00
C609   C     0.42477   0.14492   0.97514   0.00000  Uiso   1.00
C610   C     0.57523   0.14491   0.52486   0.00000  Uiso   1.00
H611   H     0.39597   0.14078   0.53843   0.00000  Uiso   1.00
H612   H     0.60403   0.14077   0.96157   0.00000  Uiso   1.00
N613   N     0.50000   0.28573   0.75000   0.00000  Uiso   1.00
N614   N     0.50000   0.04760   0.75000   0.00000  Uiso   1.00
O615   O     0.43892   0.20487   0.75000   0.00000  Uiso   1.00
O616   O     0.56108   0.12846   0.75001   0.00000  Uiso   1.00
O617   O     0.56108   0.20487   0.75001   0.00000  Uiso   1.00
O618   O     0.43892   0.12846   0.75000   0.00000  Uiso   1.00
O619   O     0.49999   0.20489   0.68393   0.00000  Uiso   1.00
O620   O     0.50001   0.12844   0.81608   0.00000  Uiso   1.00
O621   O     0.50001   0.20489   0.81608   0.00000  Uiso   1.00
O622   O     0.49999   0.12844   0.68393   0.00000  Uiso   1.00
Zn623  Zn    0.50000   0.21771   0.75000   0.00000  Uiso   1.00
Zn624  Zn    0.50000   0.11563   0.75000   0.00000  Uiso   1.00
Br625  Br    0.58954   0.16169   0.87458   0.00000  Uiso   1.00
Br626  Br    0.41046   0.16169   0.62542   0.00000  Uiso   1.00
I627   I     0.41037   0.19600   0.87328   0.00000  Uiso   1.00
I628   I     0.58963   0.19598   0.62673   0.00000  Uiso   1.00
I629   I     0.37092   0.11464   0.94546   0.00000  Uiso   1.00
I630   I     0.62908   0.11463   0.55454   0.00000  Uiso   1.00
Br631  Br    0.37702   0.06997   0.77927   0.00000  Uiso   1.00
Br632  Br    0.62179   0.26574   0.72522   0.00000  Uiso   1.00
Br633  Br    0.62298   0.06997   0.72074   0.00000  Uiso   1.00
Br634  Br    0.37821   0.26574   0.77477   0.00000  Uiso   1.00
Br635  Br    0.56051   0.05495   0.82147   0.00000  Uiso   1.00
Br636  Br    0.44063   0.27826   0.67728   0.00000  Uiso   1.00
Br637  Br    0.43949   0.05495   0.67853   0.00000  Uiso   1.00
Br638  Br    0.55936   0.27826   0.82272   0.00000  Uiso   1.00
C639   C     0.75345   0.16675   0.75407   0.00000  Uiso   1.00
C640   C     0.91322   0.16675   0.74593   0.00000  Uiso   1.00
C641   C     0.75826   0.14649   0.52172   0.00000  Uiso   1.00
C642   C     0.90841   0.14648   0.97828   0.00000  Uiso   1.00
C643   C     0.68727   0.12602   0.75655   0.00000  Uiso   1.00
C644   C     0.97920   0.20859   0.74416   0.00000  Uiso   1.00
C645   C     0.97940   0.12602   0.74346   0.00000  Uiso   1.00
C646   C     0.68747   0.20859   0.75584   0.00000  Uiso   1.00
C647   C     0.95775   0.16716   0.74199   0.00000  Uiso   1.00
C648   C     0.70892   0.16716   0.75801   0.00000  Uiso   1.00
C649   C     0.85807   0.02388   0.77960   0.00000  Uiso   1.00
C650   C     0.80879   0.30941   0.72020   0.00000  Uiso   1.00
C651   C     0.80860   0.02388   0.72040   0.00000  Uiso   1.00
C652   C     0.85788   0.30941   0.77980   0.00000  Uiso   1.00
C653   C     0.83332   0.16659   0.66348   0.00000  Uiso   1.00
C654   C     0.83335   0.16659   0.83652   0.00000  Uiso   1.00
C655   C     0.87149   0.15873   0.90728   0.00000  Uiso   1.00
C656   C     0.79518   0.15873   0.59272   0.00000  Uiso   1.00
C657   C     0.83368   0.16545   0.88450   0.00000  Uiso   1.00
C658   C     0.83298   0.16545   0.61550   0.00000  Uiso   1.00
C659   C     0.79572   0.16501   0.90650   0.00000  Uiso   1.00
C660   C     0.87095   0.16500   0.59350   0.00000  Uiso   1.00
C661   C     0.79510   0.15402   0.95220   0.00000  Uiso   1.00
C662   C     0.87157   0.15401   0.54780   0.00000  Uiso   1.00
C663   C     0.83329   0.15282   0.97645   0.00000  Uiso   1.00
C664   C     0.83337   0.15282   0.52355   0.00000  Uiso   1.00
C665   C     0.87144   0.15330   0.95384   0.00000  Uiso   1.00
C666   C     0.79523   0.15330   0.54615   0.00000  Uiso   1.00
C667   C     0.75810   0.14492   0.97514   0.00000  Uiso   1.00
C668   C     0.90856   0.14491   0.52486   0.00000  Uiso   1.00
H669   H     0.72930   0.14078   0.53843   0.00000  Uiso   1.00
H670   H     0.93736   0.14077   0.96157   0.00000  Uiso   1.00
N671   N     0.83333   0.28573   0.75000   0.00000  Uiso   1.00
N672   N     0.83333   0.04760   0.75000   0.00000  Uiso   1.00
O673   O     0.77226   0.20487   0.75000   0.00000  Uiso   1.00
O674   O     0.89441   0.12846   0.75001   0.00000  Uiso   1.00
O675   O     0.89441   0.20487   0.75001   0.00000  Uiso   1.00
O676   O     0.77226   0.12846   0.75000   0.00000  Uiso   1.00
O677   O     0.83333   0.20489   0.68393   0.00000  Uiso   1.00
O678   O     0.83334   0.12844   0.81608   0.00000  Uiso   1.00
O679   O     0.83334   0.20489   0.81608   0.00000  Uiso   1.00
O680   O     0.83333   0.12844   0.68393   0.00000  Uiso   1.00
Zn681  Zn    0.83333   0.21771   0.75000   0.00000  Uiso   1.00
Zn682  Zn    0.83333   0.11563   0.75000   0.00000  Uiso   1.00
Br683  Br    0.92287   0.16169   0.87458   0.00000  Uiso   1.00
Br684  Br    0.74380   0.16169   0.62542   0.00000  Uiso   1.00
I685   I     0.74371   0.19600   0.87328   0.00000  Uiso   1.00
I686   I     0.92296   0.19598   0.62673   0.00000  Uiso   1.00
I687   I     0.70425   0.11464   0.94546   0.00000  Uiso   1.00
I688   I     0.96241   0.11463   0.55454   0.00000  Uiso   1.00
Br689  Br    0.71035   0.06997   0.77927   0.00000  Uiso   1.00
Br690  Br    0.95512   0.26574   0.72522   0.00000  Uiso   1.00
Br691  Br    0.95631   0.06997   0.72074   0.00000  Uiso   1.00
Br692  Br    0.71155   0.26574   0.77477   0.00000  Uiso   1.00
Br693  Br    0.89384   0.05495   0.82147   0.00000  Uiso   1.00
Br694  Br    0.77397   0.27826   0.67728   0.00000  Uiso   1.00
Br695  Br    0.77283   0.05495   0.67853   0.00000  Uiso   1.00
Br696  Br    0.89270   0.27826   0.82272   0.00000  Uiso   1.00
C697   C     0.08678   0.50009   0.75407   0.00000  Uiso   1.00
C698   C     0.24655   0.50009   0.74593   0.00000  Uiso   1.00
C699   C     0.09159   0.47982   0.52172   0.00000  Uiso   1.00
C700   C     0.24174   0.47981   0.97828   0.00000  Uiso   1.00
C701   C     0.02060   0.45936   0.75655   0.00000  Uiso   1.00
C702   C     0.31253   0.54192   0.74416   0.00000  Uiso   1.00
C703   C     0.31273   0.45936   0.74346   0.00000  Uiso   1.00
C704   C     0.02080   0.54192   0.75584   0.00000  Uiso   1.00
C705   C     0.29108   0.50049   0.74199   0.00000  Uiso   1.00
C706   C     0.04225   0.50049   0.75801   0.00000  Uiso   1.00
C707   C     0.19140   0.35722   0.77960   0.00000  Uiso   1.00
C708   C     0.14212   0.64274   0.72020   0.00000  Uiso   1.00
C709   C     0.14193   0.35722   0.72040   0.00000  Uiso   1.00
C710   C     0.19121   0.64274   0.77980   0.00000  Uiso   1.00
C711   C     0.16665   0.49993   0.66348   0.00000  Uiso   1.00
C712   C     0.16668   0.49993   0.83652   0.00000  Uiso   1.00
C713   C     0.20482   0.49206   0.90728   0.00000  Uiso   1.00
C714   C     0.12851   0.49207   0.59272   0.00000  Uiso   1.00
C715   C     0.16702   0.49878   0.88450   0.00000  Uiso   1.00
C716   C     0.16632   0.49878   0.61550   0.00000  Uiso   1.00
C717   C     0.12905   0.49834   0.90650   0.00000  Uiso   1.00
C718   C     0.20428   0.49834   0.59350   0.00000  Uiso   1.00
C719   C     0.12843   0.48735   0.95220   0.00000  Uiso   1.00
C720   C     0.20490   0.48735   0.54780   0.00000  Uiso   1.00
C721   C     0.16663   0.48615   0.97645   0.00000  Uiso   1.00
C722   C     0.16671   0.48615   0.52355   0.00000  Uiso   1.00
C723   C     0.20477   0.48664   0.95384   0.00000  Uiso   1.00
C724   C     0.12856   0.48664   0.54615   0.00000  Uiso   1.00
C725   C     0.09144   0.47825   0.97514   0.00000  Uiso   1.00
C726   C     0.24189   0.47824   0.52486   0.00000  Uiso   1.00
H727   H     0.06264   0.47412   0.53843   0.00000  Uiso   1.00
H728   H     0.27069   0.47411   0.96157   0.00000  Uiso   1.00
N729   N     0.16667   0.61907   0.75000   0.00000  Uiso   1.00
N730   N     0.16667   0.38093   0.75000   0.00000  Uiso   1.00
O731   O     0.10559   0.53821   0.75000   0.00000  Uiso   1.00
O732   O     0.22774   0.46179   0.75001   0.00000  Uiso   1.00
O733   O     0.22774   0.53821   0.75001   0.00000  Uiso   1.00
O734   O     0.10559   0.46179   0.75000   0.00000  Uiso   1.00
O735   O     0.16666   0.53823   0.68393   0.00000  Uiso   1.00
O736   O     0.16667   0.46177   0.81608   0.00000  Uiso   1.00
O737   O     0.16667   0.53823   0.81608   0.00000  Uiso   1.00
O738   O     0.16666   0.46177   0.68393   0.00000  Uiso   1.00
Zn739  Zn    0.16667   0.55104   0.75000   0.00000  Uiso   1.00
Zn740  Zn    0.16667   0.44896   0.75000   0.00000  Uiso   1.00
Br741  Br    0.25620   0.49502   0.87458   0.00000  Uiso   1.00
Br742  Br    0.07713   0.49502   0.62542   0.00000  Uiso   1.00
I743   I     0.07704   0.52933   0.87328   0.00000  Uiso   1.00
I744   I     0.25630   0.52932   0.62673   0.00000  Uiso   1.00
I745   I     0.03758   0.44797   0.94546   0.00000  Uiso   1.00
I746   I     0.29575   0.44796   0.55454   0.00000  Uiso   1.00
Br747  Br    0.04369   0.40331   0.77927   0.00000  Uiso   1.00
Br748  Br    0.28845   0.59907   0.72522   0.00000  Uiso   1.00
Br749  Br    0.28965   0.40330   0.72074   0.00000  Uiso   1.00
Br750  Br    0.04488   0.59907   0.77477   0.00000  Uiso   1.00
Br751  Br    0.22717   0.38828   0.82147   0.00000  Uiso   1.00
Br752  Br    0.10730   0.61159   0.67728   0.00000  Uiso   1.00
Br753  Br    0.10616   0.38828   0.67853   0.00000  Uiso   1.00
Br754  Br    0.22603   0.61159   0.82272   0.00000  Uiso   1.00
C755   C     0.42012   0.50009   0.75407   0.00000  Uiso   1.00
C756   C     0.57988   0.50009   0.74593   0.00000  Uiso   1.00
C757   C     0.42493   0.47982   0.52172   0.00000  Uiso   1.00
C758   C     0.57507   0.47981   0.97828   0.00000  Uiso   1.00
C759   C     0.35393   0.45936   0.75655   0.00000  Uiso   1.00
C760   C     0.64587   0.54192   0.74416   0.00000  Uiso   1.00
C761   C     0.64607   0.45936   0.74346   0.00000  Uiso   1.00
C762   C     0.35413   0.54192   0.75584   0.00000  Uiso   1.00
C763   C     0.62441   0.50049   0.74199   0.00000  Uiso   1.00
C764   C     0.37559   0.50049   0.75801   0.00000  Uiso   1.00
C765   C     0.52473   0.35722   0.77960   0.00000  Uiso   1.00
C766   C     0.47545   0.64274   0.72020   0.00000  Uiso   1.00
C767   C     0.47527   0.35722   0.72040   0.00000  Uiso   1.00
C768   C     0.52455   0.64274   0.77980   0.00000  Uiso   1.00
C769   C     0.49999   0.49993   0.66348   0.00000  Uiso   1.00
C770   C     0.50001   0.49993   0.83652   0.00000  Uiso   1.00
C771   C     0.53815   0.49206   0.90728   0.00000  Uiso   1.00
C772   C     0.46184   0.49207   0.59272   0.00000  Uiso   1.00
C773   C     0.50035   0.49878   0.88450   0.00000  Uiso   1.00
C774   C     0.49965   0.49878   0.61550   0.00000  Uiso   1.00
C775   C     0.46239   0.49834   0.90650   0.00000  Uiso   1.00
C776   C     0.53761   0.49834   0.59350   0.00000  Uiso   1.00
C777   C     0.46176   0.48735   0.95220   0.00000  Uiso   1.00
C778   C     0.53824   0.48735   0.54780   0.00000  Uiso   1.00
C779   C     0.49996   0.48615   0.97645   0.00000  Uiso   1.00
C780   C     0.50004   0.48615   0.52355   0.00000  Uiso   1.00
C781   C     0.53811   0.48664   0.95384   0.00000  Uiso   1.00
C782   C     0.46189   0.48664   0.54615   0.00000  Uiso   1.00
C783   C     0.42477   0.47825   0.97514   0.00000  Uiso   1.00
C784   C     0.57523   0.47824   0.52486   0.00000  Uiso   1.00
H785   H     0.39597   0.47412   0.53843   0.00000  Uiso   1.00
H786   H     0.60403   0.47411   0.96157   0.00000  Uiso   1.00
N787   N     0.50000   0.61907   0.75000   0.00000  Uiso   1.00
N788   N     0.50000   0.38093   0.75000   0.00000  Uiso   1.00
O789   O     0.43892   0.53821   0.75000   0.00000  Uiso   1.00
O790   O     0.56108   0.46179   0.75001   0.00000  Uiso   1.00
O791   O     0.56108   0.53821   0.75001   0.00000  Uiso   1.00
O792   O     0.43892   0.46179   0.75000   0.00000  Uiso   1.00
O793   O     0.49999   0.53823   0.68393   0.00000  Uiso   1.00
O794   O     0.50001   0.46177   0.81608   0.00000  Uiso   1.00
O795   O     0.50001   0.53823   0.81608   0.00000  Uiso   1.00
O796   O     0.49999   0.46177   0.68393   0.00000  Uiso   1.00
Zn797  Zn    0.50000   0.55104   0.75000   0.00000  Uiso   1.00
Zn798  Zn    0.50000   0.44896   0.75000   0.00000  Uiso   1.00
Br799  Br    0.58954   0.49502   0.87458   0.00000  Uiso   1.00
Br800  Br    0.41046   0.49502   0.62542   0.00000  Uiso   1.00
I801   I     0.41037   0.52933   0.87328   0.00000  Uiso   1.00
I802   I     0.58963   0.52932   0.62673   0.00000  Uiso   1.00
I803   I     0.37092   0.44797   0.94546   0.00000  Uiso   1.00
I804   I     0.62908   0.44796   0.55454   0.00000  Uiso   1.00
Br805  Br    0.37702   0.40331   0.77927   0.00000  Uiso   1.00
Br806  Br    0.62179   0.59907   0.72522   0.00000  Uiso   1.00
Br807  Br    0.62298   0.40330   0.72074   0.00000  Uiso   1.00
Br808  Br    0.37821   0.59907   0.77477   0.00000  Uiso   1.00
Br809  Br    0.56051   0.38828   0.82147   0.00000  Uiso   1.00
Br810  Br    0.44063   0.61159   0.67728   0.00000  Uiso   1.00
Br811  Br    0.43949   0.38828   0.67853   0.00000  Uiso   1.00
Br812  Br    0.55936   0.61159   0.82272   0.00000  Uiso   1.00
C813   C     0.75345   0.50009   0.75407   0.00000  Uiso   1.00
C814   C     0.91322   0.50009   0.74593   0.00000  Uiso   1.00
C815   C     0.75826   0.47982   0.52172   0.00000  Uiso   1.00
C816   C     0.90841   0.47981   0.97828   0.00000  Uiso   1.00
C817   C     0.68727   0.45936   0.75655   0.00000  Uiso   1.00
C818   C     0.97920   0.54192   0.74416   0.00000  Uiso   1.00
C819   C     0.97940   0.45936   0.74346   0.00000  Uiso   1.00
C820   C     0.68747   0.54192   0.75584   0.00000  Uiso   1.00
C821   C     0.95775   0.50049   0.74199   0.00000  Uiso   1.00
C822   C     0.70892   0.50049   0.75801   0.00000  Uiso   1.00
C823   C     0.85807   0.35722   0.77960   0.00000  Uiso   1.00
C824   C     0.80879   0.64274   0.72020   0.00000  Uiso   1.00
C825   C     0.80860   0.35722   0.72040   0.00000  Uiso   1.00
C826   C     0.85788   0.64274   0.77980   0.00000  Uiso   1.00
C827   C     0.83332   0.49993   0.66348   0.00000  Uiso   1.00
C828   C     0.83335   0.49993   0.83652   0.00000  Uiso   1.00
C829   C     0.87149   0.49206   0.90728   0.00000  Uiso   1.00
C830   C     0.79518   0.49207   0.59272   0.00000  Uiso   1.00
C831   C     0.83368   0.49878   0.88450   0.00000  Uiso   1.00
C832   C     0.83298   0.49878   0.61550   0.00000  Uiso   1.00
C833   C     0.79572   0.49834   0.90650   0.00000  Uiso   1.00
C834   C     0.87095   0.49834   0.59350   0.00000  Uiso   1.00
C835   C     0.79510   0.48735   0.95220   0.00000  Uiso   1.00
C836   C     0.87157   0.48735   0.54780   0.00000  Uiso   1.00
C837   C     0.83329   0.48615   0.97645   0.00000  Uiso   1.00
C838   C     0.83337   0.48615   0.52355   0.00000  Uiso   1.00
C839   C     0.87144   0.48664   0.95384   0.00000  Uiso   1.00
C840   C     0.79523   0.48664   0.54615   0.00000  Uiso   1.00
C841   C     0.75810   0.47825   0.97514   0.00000  Uiso   1.00
C842   C     0.90856   0.47824   0.52486   0.00000  Uiso   1.00
H843   H     0.72930   0.47412   0.53843   0.00000  Uiso   1.00
H844   H     0.93736   0.47411   0.96157   0.00000  Uiso   1.00
N845   N     0.83333   0.61907   0.75000   0.00000  Uiso   1.00
N846   N     0.83333   0.38093   0.75000   0.00000  Uiso   1.00
O847   O     0.77226   0.53821   0.75000   0.00000  Uiso   1.00
O848   O     0.89441   0.46179   0.75001   0.00000  Uiso   1.00
O849   O     0.89441   0.53821   0.75001   0.00000  Uiso   1.00
O850   O     0.77226   0.46179   0.75000   0.00000  Uiso   1.00
O851   O     0.83333   0.53823   0.68393   0.00000  Uiso   1.00
O852   O     0.83334   0.46177   0.81608   0.00000  Uiso   1.00
O853   O     0.83334   0.53823   0.81608   0.00000  Uiso   1.00
O854   O     0.83333   0.46177   0.68393   0.00000  Uiso   1.00
Zn855  Zn    0.83333   0.55104   0.75000   0.00000  Uiso   1.00
Zn856  Zn    0.83333   0.44896   0.75000   0.00000  Uiso   1.00
Br857  Br    0.92287   0.49502   0.87458   0.00000  Uiso   1.00
Br858  Br    0.74380   0.49502   0.62542   0.00000  Uiso   1.00
I859   I     0.74371   0.52933   0.87328   0.00000  Uiso   1.00
I860   I     0.92296   0.52932   0.62673   0.00000  Uiso   1.00
I861   I     0.70425   0.44797   0.94546   0.00000  Uiso   1.00
I862   I     0.96241   0.44796   0.55454   0.00000  Uiso   1.00
Br863  Br    0.71035   0.40331   0.77927   0.00000  Uiso   1.00
Br864  Br    0.95512   0.59907   0.72522   0.00000  Uiso   1.00
Br865  Br    0.95631   0.40330   0.72074   0.00000  Uiso   1.00
Br866  Br    0.71155   0.59907   0.77477   0.00000  Uiso   1.00
Br867  Br    0.89384   0.38828   0.82147   0.00000  Uiso   1.00
Br868  Br    0.77397   0.61159   0.67728   0.00000  Uiso   1.00
Br869  Br    0.77283   0.38828   0.67853   0.00000  Uiso   1.00
Br870  Br    0.89270   0.61159   0.82272   0.00000  Uiso   1.00
C871   C     0.08678   0.83342   0.75407   0.00000  Uiso   1.00
C872   C     0.24655   0.83342   0.74593   0.00000  Uiso   1.00
C873   C     0.09159   0.81315   0.52172   0.00000  Uiso   1.00
C874   C     0.24174   0.81315   0.97828   0.00000  Uiso   1.00
C875   C     0.02060   0.79269   0.75655   0.00000  Uiso   1.00
C876   C     0.31253   0.87525   0.74416   0.00000  Uiso   1.00
C877   C     0.31273   0.79269   0.74346   0.00000  Uiso   1.00
C878   C     0.02080   0.87525   0.75584   0.00000  Uiso   1.00
C879   C     0.29108   0.83383   0.74199   0.00000  Uiso   1.00
C880   C     0.04225   0.83383   0.75801   0.00000  Uiso   1.00
C881   C     0.19140   0.69055   0.77960   0.00000  Uiso   1.00
C882   C     0.14212   0.97608   0.72020   0.00000  Uiso   1.00
C883   C     0.14193   0.69055   0.72040   0.00000  Uiso   1.00
C884   C     0.19121   0.97608   0.77980   0.00000  Uiso   1.00
C885   C     0.16665   0.83326   0.66348   0.00000  Uiso   1.00
C886   C     0.16668   0.83326   0.83652   0.00000  Uiso   1.00
C887   C     0.20482   0.82540   0.90728   0.00000  Uiso   1.00
C888   C     0.12851   0.82540   0.59272   0.00000  Uiso   1.00
C889   C     0.16702   0.83212   0.88450   0.00000  Uiso   1.00
C890   C     0.16632   0.83212   0.61550   0.00000  Uiso   1.00
C891   C     0.12905   0.83168   0.90650   0.00000  Uiso   1.00
C892   C     0.20428   0.83167   0.59350   0.00000  Uiso   1.00
C893   C     0.12843   0.82069   0.95220   0.00000  Uiso   1.00
C894   C     0.20490   0.82068   0.54780   0.00000  Uiso   1.00
C895   C     0.16663   0.81949   0.97645   0.00000  Uiso   1.00
C896   C     0.16671   0.81949   0.52355   0.00000  Uiso   1.00
C897   C     0.20477   0.81997   0.95384   0.00000  Uiso   1.00
C898   C     0.12856   0.81997   0.54615   0.00000  Uiso   1.00
C899   C     0.09144   0.81158   0.97514   0.00000  Uiso   1.00
C900   C     0.24189   0.81158   0.52486   0.00000  Uiso   1.00
H901   H     0.06264   0.80745   0.53843   0.00000  Uiso   1.00
H902   H     0.27069   0.80744   0.96157   0.00000  Uiso   1.00
N903   N     0.16667   0.95240   0.75000   0.00000  Uiso   1.00
N904   N     0.16667   0.71427   0.75000   0.00000  Uiso   1.00
O905   O     0.10559   0.87154   0.75000   0.00000  Uiso   1.00
O906   O     0.22774   0.79513   0.75001   0.00000  Uiso   1.00
O907   O     0.22774   0.87154   0.75001   0.00000  Uiso   1.00
O908   O     0.10559   0.79513   0.75000   0.00000  Uiso   1.00
O909   O     0.16666   0.87156   0.68393   0.00000  Uiso   1.00
O910   O     0.16667   0.79511   0.81608   0.00000  Uiso   1.00
O911   O     0.16667   0.87156   0.81608   0.00000  Uiso   1.00
O912   O     0.16666   0.79511   0.68393   0.00000  Uiso   1.00
Zn913  Zn    0.16667   0.88437   0.75000   0.00000  Uiso   1.00
Zn914  Zn    0.16667   0.78229   0.75000   0.00000  Uiso   1.00
Br915  Br    0.25620   0.82835   0.87458   0.00000  Uiso   1.00
Br916  Br    0.07713   0.82836   0.62542   0.00000  Uiso   1.00
I917   I     0.07704   0.86266   0.87328   0.00000  Uiso   1.00
I918   I     0.25630   0.86265   0.62673   0.00000  Uiso   1.00
I919   I     0.03758   0.78131   0.94546   0.00000  Uiso   1.00
I920   I     0.29575   0.78129   0.55454   0.00000  Uiso   1.00
Br921  Br    0.04369   0.73664   0.77927   0.00000  Uiso   1.00
Br922  Br    0.28845   0.93241   0.72522   0.00000  Uiso   1.00
Br923  Br    0.28965   0.73664   0.72074   0.00000  Uiso   1.00
Br924  Br    0.04488   0.93241   0.77477   0.00000  Uiso   1.00
Br925  Br    0.22717   0.72161   0.82147   0.00000  Uiso   1.00
Br926  Br    0.10730   0.94493   0.67728   0.00000  Uiso   1.00
Br927  Br    0.10616   0.72161   0.67853   0.00000  Uiso   1.00
Br928  Br    0.22603   0.94493   0.82272   0.00000  Uiso   1.00
C929   C     0.42012   0.83342   0.75407   0.00000  Uiso   1.00
C930   C     0.57988   0.83342   0.74593   0.00000  Uiso   1.00
C931   C     0.42493   0.81315   0.52172   0.00000  Uiso   1.00
C932   C     0.57507   0.81315   0.97828   0.00000  Uiso   1.00
C933   C     0.35393   0.79269   0.75655   0.00000  Uiso   1.00
C934   C     0.64587   0.87525   0.74416   0.00000  Uiso   1.00
C935   C     0.64607   0.79269   0.74346   0.00000  Uiso   1.00
C936   C     0.35413   0.87525   0.75584   0.00000  Uiso   1.00
C937   C     0.62441   0.83383   0.74199   0.00000  Uiso   1.00
C938   C     0.37559   0.83383   0.75801   0.00000  Uiso   1.00
C939   C     0.52473   0.69055   0.77960   0.00000  Uiso   1.00
C940   C     0.47545   0.97608   0.72020   0.00000  Uiso   1.00
C941   C     0.47527   0.69055   0.72040   0.00000  Uiso   1.00
C942   C     0.52455   0.97608   0.77980   0.00000  Uiso   1.00
C943   C     0.49999   0.83326   0.66348   0.00000  Uiso   1.00
C944   C     0.50001   0.83326   0.83652   0.00000  Uiso   1.00
C945   C     0.53815   0.82540   0.90728   0.00000  Uiso   1.00
C946   C     0.46184   0.82540   0.59272   0.00000  Uiso   1.00
C947   C     0.50035   0.83212   0.88450   0.00000  Uiso   1.00
C948   C     0.49965   0.83212   0.61550   0.00000  Uiso   1.00
C949   C     0.46239   0.83168   0.90650   0.00000  Uiso   1.00
C950   C     0.53761   0.83167   0.59350   0.00000  Uiso   1.00
C951   C     0.46176   0.82069   0.95220   0.00000  Uiso   1.00
C952   C     0.53824   0.82068   0.54780   0.00000  Uiso   1.00
C953   C     0.49996   0.81949   0.97645   0.00000  Uiso   1.00
C954   C     0.50004   0.81949   0.52355   0.00000  Uiso   1.00
C955   C     0.53811   0.81997   0.95384   0.00000  Uiso   1.00
C956   C     0.46189   0.81997   0.54615   0.00000  Uiso   1.00
C957   C     0.42477   0.81158   0.97514   0.00000  Uiso   1.00
C958   C     0.57523   0.81158   0.52486   0.00000  Uiso   1.00
H959   H     0.39597   0.80745   0.53843   0.00000  Uiso   1.00
H960   H     0.60403   0.80744   0.96157   0.00000  Uiso   1.00
N961   N     0.50000   0.95240   0.75000   0.00000  Uiso   1.00
N962   N     0.50000   0.71427   0.75000   0.00000  Uiso   1.00
O963   O     0.43892   0.87154   0.75000   0.00000  Uiso   1.00
O964   O     0.56108   0.79513   0.75001   0.00000  Uiso   1.00
O965   O     0.56108   0.87154   0.75001   0.00000  Uiso   1.00
O966   O     0.43892   0.79513   0.75000   0.00000  Uiso   1.00
O967   O     0.49999   0.87156   0.68393   0.00000  Uiso   1.00
O968   O     0.50001   0.79511   0.81608   0.00000  Uiso   1.00
O969   O     0.50001   0.87156   0.81608   0.00000  Uiso   1.00
O970   O     0.49999   0.79511   0.68393   0.00000  Uiso   1.00
Zn971  Zn    0.50000   0.88437   0.75000   0.00000  Uiso   1.00
Zn972  Zn    0.50000   0.78229   0.75000   0.00000  Uiso   1.00
Br973  Br    0.58954   0.82835   0.87458   0.00000  Uiso   1.00
Br974  Br    0.41046   0.82836   0.62542   0.00000  Uiso   1.00
I975   I     0.41037   0.86266   0.87328   0.00000  Uiso   1.00
I976   I     0.58963   0.86265   0.62673   0.00000  Uiso   1.00
I977   I     0.37092   0.78131   0.94546   0.00000  Uiso   1.00
I978   I     0.62908   0.78129   0.55454   0.00000  Uiso   1.00
Br979  Br    0.37702   0.73664   0.77927   0.00000  Uiso   1.00
Br980  Br    0.62179   0.93241   0.72522   0.00000  Uiso   1.00
Br981  Br    0.62298   0.73664   0.72074   0.00000  Uiso   1.00
Br982  Br    0.37821   0.93241   0.77477   0.00000  Uiso   1.00
Br983  Br    0.56051   0.72161   0.82147   0.00000  Uiso   1.00
Br984  Br    0.44063   0.94493   0.67728   0.00000  Uiso   1.00
Br985  Br    0.43949   0.72161   0.67853   0.00000  Uiso   1.00
Br986  Br    0.55936   0.94493   0.82272   0.00000  Uiso   1.00
C987   C     0.75345   0.83342   0.75407   0.00000  Uiso   1.00
C988   C     0.91322   0.83342   0.74593   0.00000  Uiso   1.00
C989   C     0.75826   0.81315   0.52172   0.00000  Uiso   1.00
C990   C     0.90841   0.81315   0.97828   0.00000  Uiso   1.00
C991   C     0.68727   0.79269   0.75655   0.00000  Uiso   1.00
C992   C     0.97920   0.87525   0.74416   0.00000  Uiso   1.00
C993   C     0.97940   0.79269   0.74346   0.00000  Uiso   1.00
C994   C     0.68747   0.87525   0.75584   0.00000  Uiso   1.00
C995   C     0.95775   0.83383   0.74199   0.00000  Uiso   1.00
C996   C     0.70892   0.83383   0.75801   0.00000  Uiso   1.00
C997   C     0.85807   0.69055   0.77960   0.00000  Uiso   1.00
C998   C     0.80879   0.97608   0.72020   0.00000  Uiso   1.00
C999   C     0.80860   0.69055   0.72040   0.00000  Uiso   1.00
C1000  C     0.85788   0.97608   0.77980   0.00000  Uiso   1.00
C1001  C     0.83332   0.83326   0.66348   0.00000  Uiso   1.00
C1002  C     0.83335   0.83326   0.83652   0.00000  Uiso   1.00
C1003  C     0.87149   0.82540   0.90728   0.00000  Uiso   1.00
C1004  C     0.79518   0.82540   0.59272   0.00000  Uiso   1.00
C1005  C     0.83368   0.83212   0.88450   0.00000  Uiso   1.00
C1006  C     0.83298   0.83212   0.61550   0.00000  Uiso   1.00
C1007  C     0.79572   0.83168   0.90650   0.00000  Uiso   1.00
C1008  C     0.87095   0.83167   0.59350   0.00000  Uiso   1.00
C1009  C     0.79510   0.82069   0.95220   0.00000  Uiso   1.00
C1010  C     0.87157   0.82068   0.54780   0.00000  Uiso   1.00
C1011  C     0.83329   0.81949   0.97645   0.00000  Uiso   1.00
C1012  C     0.83337   0.81949   0.52355   0.00000  Uiso   1.00
C1013  C     0.87144   0.81997   0.95384   0.00000  Uiso   1.00
C1014  C     0.79523   0.81997   0.54615   0.00000  Uiso   1.00
C1015  C     0.75810   0.81158   0.97514   0.00000  Uiso   1.00
C1016  C     0.90856   0.81158   0.52486   0.00000  Uiso   1.00
H1017  H     0.72930   0.80745   0.53843   0.00000  Uiso   1.00
H1018  H     0.93736   0.80744   0.96157   0.00000  Uiso   1.00
N1019  N     0.83333   0.95240   0.75000   0.00000  Uiso   1.00
N1020  N     0.83333   0.71427   0.75000   0.00000  Uiso   1.00
O1021  O     0.77226   0.87154   0.75000   0.00000  Uiso   1.00
O1022  O     0.89441   0.79513   0.75001   0.00000  Uiso   1.00
O1023  O     0.89441   0.87154   0.75001   0.00000  Uiso   1.00
O1024  O     0.77226   0.79513   0.75000   0.00000  Uiso   1.00
O1025  O     0.83333   0.87156   0.68393   0.00000  Uiso   1.00
O1026  O     0.83334   0.79511   0.81608   0.00000  Uiso   1.00
O1027  O     0.83334   0.87156   0.81608   0.00000  Uiso   1.00
O1028  O     0.83333   0.79511   0.68393   0.00000  Uiso   1.00
Zn1029 Zn    0.83333   0.88437   0.75000   0.00000  Uiso   1.00
Zn1030 Zn    0.83333   0.78229   0.75000   0.00000  Uiso   1.00
Br1031 Br    0.92287   0.82835   0.87458   0.00000  Uiso   1.00
Br1032 Br    0.74380   0.82836   0.62542   0.00000  Uiso   1.00
I1033  I     0.74371   0.86266   0.87328   0.00000  Uiso   1.00
I1034  I     0.92296   0.86265   0.62673   0.00000  Uiso   1.00
I1035  I     0.70425   0.78131   0.94546   0.00000  Uiso   1.00
I1036  I     0.96241   0.78129   0.55454   0.00000  Uiso   1.00
Br1037 Br    0.71035   0.73664   0.77927   0.00000  Uiso   1.00
Br1038 Br    0.95512   0.93241   0.72522   0.00000  Uiso   1.00
Br1039 Br    0.95631   0.73664   0.72074   0.00000  Uiso   1.00
Br1040 Br    0.71155   0.93241   0.77477   0.00000  Uiso   1.00
Br1041 Br    0.89384   0.72161   0.82147   0.00000  Uiso   1.00
Br1042 Br    0.77397   0.94493   0.67728   0.00000  Uiso   1.00
Br1043 Br    0.77283   0.72161   0.67853   0.00000  Uiso   1.00
Br1044 Br    0.89270   0.94493   0.82272   0.00000  Uiso   1.00
loop_
_geom_bond_atom_site_label_1
_geom_bond_atom_site_label_2
_geom_bond_distance
_geom_bond_site_symmetry_2
_ccdc_geom_bond_type
C1     O38     1.296   .     A
C1     O35     1.292   .     A
C1     C10     1.444   .     S
C2     O37     1.292   .     A
C2     O36     1.296   .     A
C2     C9      1.444   .     S
C3     H31     1.080   .     S
C3     C28     1.400   .     A
C3     C551    1.388   1_554 S
C4     H32     1.080   .     S
C4     C27     1.400   .     A
C4     C552    1.387   .     S
C5     C10     1.408   .     A
C5     Br51    1.941   .     S
C5     C123    1.378   1_455 S
C6     C9      1.413   .     A
C6     Br52    1.946   .     S
C6     C66     1.380   .     S
C7     C9      1.408   .     A
C7     Br53    1.941   .     S
C7     C63     1.378   .     S
C8     C10     1.413   .     A
C8     Br54    1.946   .     S
C8     C122    1.380   1_455 S
C11    Br55    1.919   .     S
C11    N34     1.372   .     A
C11    C362    1.421   1_545 S
C12    Br56    1.923   .     S
C12    N33     1.372   .     A
C12    C187    1.421   .     S
C13    N34     1.372   .     A
C13    Br57    1.919   .     S
C13    C360    1.421   1_545 S
C14    N33     1.372   .     A
C14    Br58    1.923   .     S
C14    C185    1.421   .     S
C15    O39     1.291   .     A
C15    C20     1.429   .     S
C15    O42     1.287   .     A
C16    C19     1.429   .     S
C16    O40     1.287   .     A
C16    O41     1.291   .     A
C17    C19     1.399   .     A
C17    Br45    1.941   .     S
C17    C27     1.396   .     A
C18    C20     1.399   .     A
C18    Br46    1.941   .     S
C18    C28     1.396   .     A
C19    C21     1.400   .     A
C20    C22     1.400   .     A
C21    I47     2.140   .     S
C21    C23     1.400   .     A
C22    I48     2.140   .     S
C22    C24     1.400   .     A
C23    C25     1.417   .     A
C23    C29     1.413   .     A
C24    C30     1.413   .     A
C24    C26     1.417   .     A
C25    C27     1.414   .     A
C25    C548    1.402   .     S
C26    C28     1.414   .     A
C26    C547    1.402   1_554 S
C29    I49     2.133   .     S
C29    C525    1.388   .     S
C30    I50     2.133   .     S
C30    C526    1.387   1_554 S
N33    Zn43    2.021   .     S
N34    Zn44    2.021   .     S
O35    Zn43    2.007   .     S
O36    Zn44    2.007   .     S
O37    Zn43    2.007   .     S
O38    Zn44    2.007   .     S
O39    Zn43    2.004   .     S
O40    Zn44    2.004   .     S
O41    Zn43    2.004   .     S
O42    Zn44    2.004   .     S
C59    O96     1.296   .     A
C59    O93     1.292   .     A
C59    C68     1.444   .     S
C60    O95     1.292   .     A
C60    O94     1.296   .     A
C60    C67     1.444   .     S
C61    H89     1.080   .     S
C61    C86     1.400   .     A
C61    C609    1.388   1_554 S
C62    H90     1.080   .     S
C62    C85     1.400   .     A
C62    C610    1.387   .     S
C63    C68     1.408   .     A
C63    Br109   1.941   .     S
C64    C67     1.413   .     A
C64    Br110   1.946   .     S
C64    C124    1.380   .     S
C65    C67     1.408   .     A
C65    Br111   1.941   .     S
C65    C121    1.378   .     S
C66    C68     1.413   .     A
C66    Br112   1.946   .     S
C69    Br113   1.919   .     S
C69    N92     1.372   .     A
C69    C420    1.421   1_545 S
C70    Br114   1.923   .     S
C70    N91     1.372   .     A
C70    C245    1.421   .     S
C71    N92     1.372   .     A
C71    Br115   1.919   .     S
C71    C418    1.421   1_545 S
C72    N91     1.372   .     A
C72    Br116   1.923   .     S
C72    C243    1.421   .     S
C73    O97     1.291   .     A
C73    C78     1.429   .     S
C73    O100    1.287   .     A
C74    C77     1.429   .     S
C74    O98     1.287   .     A
C74    O99     1.291   .     A
C75    C77     1.399   .     A
C75    Br103   1.941   .     S
C75    C85     1.396   .     A
C76    C78     1.399   .     A
C76    Br104   1.941   .     S
C76    C86     1.396   .     A
C77    C79     1.400   .     A
C78    C80     1.400   .     A
C79    I105    2.140   .     S
C79    C81     1.400   .     A
C80    I106    2.140   .     S
C80    C82     1.400   .     A
C81    C83     1.417   .     A
C81    C87     1.413   .     A
C82    C88     1.413   .     A
C82    C84     1.417   .     A
C83    C85     1.414   .     A
C83    C606    1.402   .     S
C84    C86     1.414   .     A
C84    C605    1.402   1_554 S
C87    I107    2.133   .     S
C87    C583    1.388   .     S
C88    I108    2.133   .     S
C88    C584    1.387   1_554 S
N91    Zn101   2.021   .     S
N92    Zn102   2.021   .     S
O93    Zn101   2.007   .     S
O94    Zn102   2.007   .     S
O95    Zn101   2.007   .     S
O96    Zn102   2.007   .     S
O97    Zn101   2.004   .     S
O98    Zn102   2.004   .     S
O99    Zn101   2.004   .     S
O100   Zn102   2.004   .     S
C117   O154    1.296   .     A
C117   O151    1.292   .     A
C117   C126    1.444   .     S
C118   O153    1.292   .     A
C118   O152    1.296   .     A
C118   C125    1.444   .     S
C119   H147    1.080   .     S
C119   C144    1.400   .     A
C119   C667    1.388   1_554 S
C120   H148    1.080   .     S
C120   C143    1.400   .     A
C120   C668    1.387   .     S
C121   C126    1.408   .     A
C121   Br167   1.941   .     S
C122   C125    1.413   .     A
C122   Br168   1.946   .     S
C122   C8      1.380   1_655 S
C123   C125    1.408   .     A
C123   Br169   1.941   .     S
C123   C5      1.378   1_655 S
C124   C126    1.413   .     A
C124   Br170   1.946   .     S
C127   Br171   1.919   .     S
C127   N150    1.372   .     A
C127   C478    1.421   1_545 S
C128   Br172   1.923   .     S
C128   N149    1.372   .     A
C128   C303    1.421   .     S
C129   N150    1.372   .     A
C129   Br173   1.919   .     S
C129   C476    1.421   1_545 S
C130   N149    1.372   .     A
C130   Br174   1.923   .     S
C130   C301    1.421   .     S
C131   O155    1.291   .     A
C131   C136    1.429   .     S
C131   O158    1.287   .     A
C132   C135    1.429   .     S
C132   O156    1.287   .     A
C132   O157    1.291   .     A
C133   C135    1.399   .     A
C133   Br161   1.941   .     S
C133   C143    1.396   .     A
C134   C136    1.399   .     A
C134   Br162   1.941   .     S
C134   C144    1.396   .     A
C135   C137    1.400   .     A
C136   C138    1.400   .     A
C137   I163    2.140   .     S
C137   C139    1.400   .     A
C138   I164    2.140   .     S
C138   C140    1.400   .     A
C139   C141    1.417   .     A
C139   C145    1.413   .     A
C140   C146    1.413   .     A
C140   C142    1.417   .     A
C141   C143    1.414   .     A
C141   C664    1.402   .     S
C142   C144    1.414   .     A
C142   C663    1.402   1_554 S
C145   I165    2.133   .     S
C145   C641    1.388   .     S
C146   I166    2.133   .     S
C146   C642    1.387   1_554 S
N149   Zn159   2.021   .     S
N150   Zn160   2.021   .     S
O151   Zn159   2.007   .     S
O152   Zn160   2.007   .     S
O153   Zn159   2.007   .     S
O154   Zn160   2.007   .     S
O155   Zn159   2.004   .     S
O156   Zn160   2.004   .     S
O157   Zn159   2.004   .     S
O158   Zn160   2.004   .     S
C175   O212    1.296   .     A
C175   O209    1.292   .     A
C175   C184    1.444   .     S
C176   O211    1.292   .     A
C176   O210    1.296   .     A
C176   C183    1.444   .     S
C177   H205    1.080   .     S
C177   C202    1.400   .     A
C177   C725    1.388   1_554 S
C178   H206    1.080   .     S
C178   C201    1.400   .     A
C178   C726    1.387   .     S
C179   C184    1.408   .     A
C179   Br225   1.941   .     S
C179   C297    1.378   1_455 S
C180   C183    1.413   .     A
C180   Br226   1.946   .     S
C180   C240    1.380   .     S
C181   C183    1.408   .     A
C181   Br227   1.941   .     S
C181   C237    1.378   .     S
C182   C184    1.413   .     A
C182   Br228   1.946   .     S
C182   C296    1.380   1_455 S
C185   Br229   1.919   .     S
C185   N208    1.372   .     A
C186   Br230   1.923   .     S
C186   N207    1.372   .     A
C186   C361    1.421   .     S
C187   N208    1.372   .     A
C187   Br231   1.919   .     S
C188   N207    1.372   .     A
C188   Br232   1.923   .     S
C188   C359    1.421   .     S
C189   O213    1.291   .     A
C189   C194    1.429   .     S
C189   O216    1.287   .     A
C190   C193    1.429   .     S
C190   O214    1.287   .     A
C190   O215    1.291   .     A
C191   C193    1.399   .     A
C191   Br219   1.941   .     S
C191   C201    1.396   .     A
C192   C194    1.399   .     A
C192   Br220   1.941   .     S
C192   C202    1.396   .     A
C193   C195    1.400   .     A
C194   C196    1.400   .     A
C195   I221    2.140   .     S
C195   C197    1.400   .     A
C196   I222    2.140   .     S
C196   C198    1.400   .     A
C197   C199    1.417   .     A
C197   C203    1.413   .     A
C198   C204    1.413   .     A
C198   C200    1.417   .     A
C199   C201    1.414   .     A
C199   C722    1.402   .     S
C200   C202    1.414   .     A
C200   C721    1.402   1_554 S
C203   I223    2.133   .     S
C203   C699    1.388   .     S
C204   I224    2.133   .     S
C204   C700    1.387   1_554 S
N207   Zn217   2.021   .     S
N208   Zn218   2.021   .     S
O209   Zn217   2.007   .     S
O210   Zn218   2.007   .     S
O211   Zn217   2.007   .     S
O212   Zn218   2.007   .     S
O213   Zn217   2.004   .     S
O214   Zn218   2.004   .     S
O215   Zn217   2.004   .     S
O216   Zn218   2.004   .     S
C233   O270    1.296   .     A
C233   O267    1.292   .     A
C233   C242    1.444   .     S
C234   O269    1.292   .     A
C234   O268    1.296   .     A
C234   C241    1.444   .     S
C235   H263    1.080   .     S
C235   C260    1.400   .     A
C235   C783    1.388   1_554 S
C236   H264    1.080   .     S
C236   C259    1.400   .     A
C236   C784    1.387   .     S
C237   C242    1.408   .     A
C237   Br283   1.941   .     S
C238   C241    1.413   .     A
C238   Br284   1.946   .     S
C238   C298    1.380   .     S
C239   C241    1.408   .     A
C239   Br285   1.941   .     S
C239   C295    1.378   .     S
C240   C242    1.413   .     A
C240   Br286   1.946   .     S
C243   Br287   1.919   .     S
C243   N266    1.372   .     A
C244   Br288   1.923   .     S
C244   N265    1.372   .     A
C244   C419    1.421   .     S
C245   N266    1.372   .     A
C245   Br289   1.919   .     S
C246   N265    1.372   .     A
C246   Br290   1.923   .     S
C246   C417    1.421   .     S
C247   O271    1.291   .     A
C247   C252    1.429   .     S
C247   O274    1.287   .     A
C248   C251    1.429   .     S
C248   O272    1.287   .     A
C248   O273    1.291   .     A
C249   C251    1.399   .     A
C249   Br277   1.941   .     S
C249   C259    1.396   .     A
C250   C252    1.399   .     A
C250   Br278   1.941   .     S
C250   C260    1.396   .     A
C251   C253    1.400   .     A
C252   C254    1.400   .     A
C253   I279    2.140   .     S
C253   C255    1.400   .     A
C254   I280    2.140   .     S
C254   C256    1.400   .     A
C255   C257    1.417   .     A
C255   C261    1.413   .     A
C256   C262    1.413   .     A
C256   C258    1.417   .     A
C257   C259    1.414   .     A
C257   C780    1.402   .     S
C258   C260    1.414   .     A
C258   C779    1.402   1_554 S
C261   I281    2.133   .     S
C261   C757    1.388   .     S
C262   I282    2.133   .     S
C262   C758    1.387   1_554 S
N265   Zn275   2.021   .     S
N266   Zn276   2.021   .     S
O267   Zn275   2.007   .     S
O268   Zn276   2.007   .     S
O269   Zn275   2.007   .     S
O270   Zn276   2.007   .     S
O271   Zn275   2.004   .     S
O272   Zn276   2.004   .     S
O273   Zn275   2.004   .     S
O274   Zn276   2.004   .     S
C291   O328    1.296   .     A
C291   O325    1.292   .     A
C291   C300    1.444   .     S
C292   O327    1.292   .     A
C292   O326    1.296   .     A
C292   C299    1.444   .     S
C293   H321    1.080   .     S
C293   C318    1.400   .     A
C293   C841    1.388   1_554 S
C294   H322    1.080   .     S
C294   C317    1.400   .     A
C294   C842    1.387   .     S
C295   C300    1.408   .     A
C295   Br341   1.941   .     S
C296   C299    1.413   .     A
C296   Br342   1.946   .     S
C296   C182    1.380   1_655 S
C297   C299    1.408   .     A
C297   Br343   1.941   .     S
C297   C179    1.378   1_655 S
C298   C300    1.413   .     A
C298   Br344   1.946   .     S
C301   Br345   1.919   .     S
C301   N324    1.372   .     A
C302   Br346   1.923   .     S
C302   N323    1.372   .     A
C302   C477    1.421   .     S
C303   N324    1.372   .     A
C303   Br347   1.919   .     S
C304   N323    1.372   .     A
C304   Br348   1.923   .     S
C304   C475    1.421   .     S
C305   O329    1.291   .     A
C305   C310    1.429   .     S
C305   O332    1.287   .     A
C306   C309    1.429   .     S
C306   O330    1.287   .     A
C306   O331    1.291   .     A
C307   C309    1.399   .     A
C307   Br335   1.941   .     S
C307   C317    1.396   .     A
C308   C310    1.399   .     A
C308   Br336   1.941   .     S
C308   C318    1.396   .     A
C309   C311    1.400   .     A
C310   C312    1.400   .     A
C311   I337    2.140   .     S
C311   C313    1.400   .     A
C312   I338    2.140   .     S
C312   C314    1.400   .     A
C313   C315    1.417   .     A
C313   C319    1.413   .     A
C314   C320    1.413   .     A
C314   C316    1.417   .     A
C315   C317    1.414   .     A
C315   C838    1.402   .     S
C316   C318    1.414   .     A
C316   C837    1.402   1_554 S
C319   I339    2.133   .     S
C319   C815    1.388   .     S
C320   I340    2.133   .     S
C320   C816    1.387   1_554 S
N323   Zn333   2.021   .     S
N324   Zn334   2.021   .     S
O325   Zn333   2.007   .     S
O326   Zn334   2.007   .     S
O327   Zn333   2.007   .     S
O328   Zn334   2.007   .     S
O329   Zn333   2.004   .     S
O330   Zn334   2.004   .     S
O331   Zn333   2.004   .     S
O332   Zn334   2.004   .     S
C349   O386    1.296   .     A
C349   O383    1.292   .     A
C349   C358    1.444   .     S
C350   O385    1.292   .     A
C350   O384    1.296   .     A
C350   C357    1.444   .     S
C351   H379    1.080   .     S
C351   C376    1.400   .     A
C351   C899    1.388   1_554 S
C352   H380    1.080   .     S
C352   C375    1.400   .     A
C352   C900    1.387   .     S
C353   C358    1.408   .     A
C353   Br399   1.941   .     S
C353   C471    1.378   1_455 S
C354   C357    1.413   .     A
C354   Br400   1.946   .     S
C354   C414    1.380   .     S
C355   C357    1.408   .     A
C355   Br401   1.941   .     S
C355   C411    1.378   .     S
C356   C358    1.413   .     A
C356   Br402   1.946   .     S
C356   C470    1.380   1_455 S
C359   Br403   1.919   .     S
C359   N382    1.372   .     A
C360   Br404   1.923   .     S
C360   N381    1.372   .     A
C360   C13     1.421   1_565 S
C361   N382    1.372   .     A
C361   Br405   1.919   .     S
C362   N381    1.372   .     A
C362   Br406   1.923   .     S
C362   C11     1.421   1_565 S
C363   O387    1.291   .     A
C363   C368    1.429   .     S
C363   O390    1.287   .     A
C364   C367    1.429   .     S
C364   O388    1.287   .     A
C364   O389    1.291   .     A
C365   C367    1.399   .     A
C365   Br393   1.941   .     S
C365   C375    1.396   .     A
C366   C368    1.399   .     A
C366   Br394   1.941   .     S
C366   C376    1.396   .     A
C367   C369    1.400   .     A
C368   C370    1.400   .     A
C369   I395    2.140   .     S
C369   C371    1.400   .     A
C370   I396    2.140   .     S
C370   C372    1.400   .     A
C371   C373    1.417   .     A
C371   C377    1.413   .     A
C372   C378    1.413   .     A
C372   C374    1.417   .     A
C373   C375    1.414   .     A
C373   C896    1.402   .     S
C374   C376    1.414   .     A
C374   C895    1.402   1_554 S
C377   I397    2.133   .     S
C377   C873    1.388   .     S
C378   I398    2.133   .     S
C378   C874    1.387   1_554 S
N381   Zn391   2.021   .     S
N382   Zn392   2.021   .     S
O383   Zn391   2.007   .     S
O384   Zn392   2.007   .     S
O385   Zn391   2.007   .     S
O386   Zn392   2.007   .     S
O387   Zn391   2.004   .     S
O388   Zn392   2.004   .     S
O389   Zn391   2.004   .     S
O390   Zn392   2.004   .     S
C407   O444    1.296   .     A
C407   O441    1.292   .     A
C407   C416    1.444   .     S
C408   O443    1.292   .     A
C408   O442    1.296   .     A
C408   C415    1.444   .     S
C409   H437    1.080   .     S
C409   C434    1.400   .     A
C409   C957    1.388   1_554 S
C410   H438    1.080   .     S
C410   C433    1.400   .     A
C410   C958    1.387   .     S
C411   C416    1.408   .     A
C411   Br457   1.941   .     S
C412   C415    1.413   .     A
C412   Br458   1.946   .     S
C412   C472    1.380   .     S
C413   C415    1.408   .     A
C413   Br459   1.941   .     S
C413   C469    1.378   .     S
C414   C416    1.413   .     A
C414   Br460   1.946   .     S
C417   Br461   1.919   .     S
C417   N440    1.372   .     A
C418   Br462   1.923   .     S
C418   N439    1.372   .     A
C418   C71     1.421   1_565 S
C419   N440    1.372   .     A
C419   Br463   1.919   .     S
C420   N439    1.372   .     A
C420   Br464   1.923   .     S
C420   C69     1.421   1_565 S
C421   O445    1.291   .     A
C421   C426    1.429   .     S
C421   O448    1.287   .     A
C422   C425    1.429   .     S
C422   O446    1.287   .     A
C422   O447    1.291   .     A
C423   C425    1.399   .     A
C423   Br451   1.941   .     S
C423   C433    1.396   .     A
C424   C426    1.399   .     A
C424   Br452   1.941   .     S
C424   C434    1.396   .     A
C425   C427    1.400   .     A
C426   C428    1.400   .     A
C427   I453    2.140   .     S
C427   C429    1.400   .     A
C428   I454    2.140   .     S
C428   C430    1.400   .     A
C429   C431    1.417   .     A
C429   C435    1.413   .     A
C430   C436    1.413   .     A
C430   C432    1.417   .     A
C431   C433    1.414   .     A
C431   C954    1.402   .     S
C432   C434    1.414   .     A
C432   C953    1.402   1_554 S
C435   I455    2.133   .     S
C435   C931    1.388   .     S
C436   I456    2.133   .     S
C436   C932    1.387   1_554 S
N439   Zn449   2.021   .     S
N440   Zn450   2.021   .     S
O441   Zn449   2.007   .     S
O442   Zn450   2.007   .     S
O443   Zn449   2.007   .     S
O444   Zn450   2.007   .     S
O445   Zn449   2.004   .     S
O446   Zn450   2.004   .     S
O447   Zn449   2.004   .     S
O448   Zn450   2.004   .     S
C465   O502    1.296   .     A
C465   O499    1.292   .     A
C465   C474    1.444   .     S
C466   O501    1.292   .     A
C466   O500    1.296   .     A
C466   C473    1.444   .     S
C467   H495    1.080   .     S
C467   C492    1.400   .     A
C467   C1015   1.388   1_554 S
C468   H496    1.080   .     S
C468   C491    1.400   .     A
C468   C1016   1.387   .     S
C469   C474    1.408   .     A
C469   Br515   1.941   .     S
C470   C473    1.413   .     A
C470   Br516   1.946   .     S
C470   C356    1.380   1_655 S
C471   C473    1.408   .     A
C471   Br517   1.941   .     S
C471   C353    1.378   1_655 S
C472   C474    1.413   .     A
C472   Br518   1.946   .     S
C475   Br519   1.919   .     S
C475   N498    1.372   .     A
C476   Br520   1.923   .     S
C476   N497    1.372   .     A
C476   C129    1.421   1_565 S
C477   N498    1.372   .     A
C477   Br521   1.919   .     S
C478   N497    1.372   .     A
C478   Br522   1.923   .     S
C478   C127    1.421   1_565 S
C479   O503    1.291   .     A
C479   C484    1.429   .     S
C479   O506    1.287   .     A
C480   C483    1.429   .     S
C480   O504    1.287   .     A
C480   O505    1.291   .     A
C481   C483    1.399   .     A
C481   Br509   1.941   .     S
C481   C491    1.396   .     A
C482   C484    1.399   .     A
C482   Br510   1.941   .     S
C482   C492    1.396   .     A
C483   C485    1.400   .     A
C484   C486    1.400   .     A
C485   I511    2.140   .     S
C485   C487    1.400   .     A
C486   I512    2.140   .     S
C486   C488    1.400   .     A
C487   C489    1.417   .     A
C487   C493    1.413   .     A
C488   C494    1.413   .     A
C488   C490    1.417   .     A
C489   C491    1.414   .     A
C489   C1012   1.402   .     S
C490   C492    1.414   .     A
C490   C1011   1.402   1_554 S
C493   I513    2.133   .     S
C493   C989    1.388   .     S
C494   I514    2.133   .     S
C494   C990    1.387   1_554 S
N497   Zn507   2.021   .     S
N498   Zn508   2.021   .     S
O499   Zn507   2.007   .     S
O500   Zn508   2.007   .     S
O501   Zn507   2.007   .     S
O502   Zn508   2.007   .     S
O503   Zn507   2.004   .     S
O504   Zn508   2.004   .     S
O505   Zn507   2.004   .     S
O506   Zn508   2.004   .     S
C523   O560    1.296   .     A
C523   O557    1.292   .     A
C523   C532    1.444   .     S
C524   O559    1.292   .     A
C524   O558    1.296   .     A
C524   C531    1.444   .     S
C525   H553    1.080   .     S
C525   C550    1.400   .     A
C526   H554    1.080   .     S
C526   C549    1.400   .     A
C526   C30     1.387   1_556 S
C527   C532    1.408   .     A
C527   Br573   1.941   .     S
C527   C645    1.378   1_455 S
C528   C531    1.413   .     A
C528   Br574   1.946   .     S
C528   C588    1.380   .     S
C529   C531    1.408   .     A
C529   Br575   1.941   .     S
C529   C585    1.378   .     S
C530   C532    1.413   .     A
C530   Br576   1.946   .     S
C530   C644    1.380   1_455 S
C533   Br577   1.919   .     S
C533   N556    1.372   .     A
C533   C884    1.421   1_545 S
C534   Br578   1.923   .     S
C534   N555    1.372   .     A
C534   C709    1.421   .     S
C535   N556    1.372   .     A
C535   Br579   1.919   .     S
C535   C882    1.421   1_545 S
C536   N555    1.372   .     A
C536   Br580   1.923   .     S
C536   C707    1.421   .     S
C537   O561    1.291   .     A
C537   C542    1.429   .     S
C537   O564    1.287   .     A
C538   C541    1.429   .     S
C538   O562    1.287   .     A
C538   O563    1.291   .     A
C539   C541    1.399   .     A
C539   Br567   1.941   .     S
C539   C549    1.396   .     A
C540   C542    1.399   .     A
C540   Br568   1.941   .     S
C540   C550    1.396   .     A
C541   C543    1.400   .     A
C542   C544    1.400   .     A
C543   I569    2.140   .     S
C543   C545    1.400   .     A
C544   I570    2.140   .     S
C544   C546    1.400   .     A
C545   C547    1.417   .     A
C545   C551    1.413   .     A
C546   C552    1.413   .     A
C546   C548    1.417   .     A
C547   C549    1.414   .     A
C547   C26     1.402   1_556 S
C548   C550    1.414   .     A
C551   I571    2.133   .     S
C551   C3      1.388   1_556 S
C552   I572    2.133   .     S
N555   Zn565   2.021   .     S
N556   Zn566   2.021   .     S
O557   Zn565   2.007   .     S
O558   Zn566   2.007   .     S
O559   Zn565   2.007   .     S
O560   Zn566   2.007   .     S
O561   Zn565   2.004   .     S
O562   Zn566   2.004   .     S
O563   Zn565   2.004   .     S
O564   Zn566   2.004   .     S
C581   O618    1.296   .     A
C581   O615    1.292   .     A
C581   C590    1.444   .     S
C582   O617    1.292   .     A
C582   O616    1.296   .     A
C582   C589    1.444   .     S
C583   H611    1.080   .     S
C583   C608    1.400   .     A
C584   H612    1.080   .     S
C584   C607    1.400   .     A
C584   C88     1.387   1_556 S
C585   C590    1.408   .     A
C585   Br631   1.941   .     S
C586   C589    1.413   .     A
C586   Br632   1.946   .     S
C586   C646    1.380   .     S
C587   C589    1.408   .     A
C587   Br633   1.941   .     S
C587   C643    1.378   .     S
C588   C590    1.413   .     A
C588   Br634   1.946   .     S
C591   Br635   1.919   .     S
C591   N614    1.372   .     A
C591   C942    1.421   1_545 S
C592   Br636   1.923   .     S
C592   N613    1.372   .     A
C592   C767    1.421   .     S
C593   N614    1.372   .     A
C593   Br637   1.919   .     S
C593   C940    1.421   1_545 S
C594   N613    1.372   .     A
C594   Br638   1.923   .     S
C594   C765    1.421   .     S
C595   O619    1.291   .     A
C595   C600    1.429   .     S
C595   O622    1.287   .     A
C596   C599    1.429   .     S
C596   O620    1.287   .     A
C596   O621    1.291   .     A
C597   C599    1.399   .     A
C597   Br625   1.941   .     S
C597   C607    1.396   .     A
C598   C600    1.399   .     A
C598   Br626   1.941   .     S
C598   C608    1.396   .     A
C599   C601    1.400   .     A
C600   C602    1.400   .     A
C601   I627    2.140   .     S
C601   C603    1.400   .     A
C602   I628    2.140   .     S
C602   C604    1.400   .     A
C603   C605    1.417   .     A
C603   C609    1.413   .     A
C604   C610    1.413   .     A
C604   C606    1.417   .     A
C605   C607    1.414   .     A
C605   C84     1.402   1_556 S
C606   C608    1.414   .     A
C609   I629    2.133   .     S
C609   C61     1.388   1_556 S
C610   I630    2.133   .     S
N613   Zn623   2.021   .     S
N614   Zn624   2.021   .     S
O615   Zn623   2.007   .     S
O616   Zn624   2.007   .     S
O617   Zn623   2.007   .     S
O618   Zn624   2.007   .     S
O619   Zn623   2.004   .     S
O620   Zn624   2.004   .     S
O621   Zn623   2.004   .     S
O622   Zn624   2.004   .     S
C639   O676    1.296   .     A
C639   O673    1.292   .     A
C639   C648    1.444   .     S
C640   O675    1.292   .     A
C640   O674    1.296   .     A
C640   C647    1.444   .     S
C641   H669    1.080   .     S
C641   C666    1.400   .     A
C642   H670    1.080   .     S
C642   C665    1.400   .     A
C642   C146    1.387   1_556 S
C643   C648    1.408   .     A
C643   Br689   1.941   .     S
C644   C647    1.413   .     A
C644   Br690   1.946   .     S
C644   C530    1.380   1_655 S
C645   C647    1.408   .     A
C645   Br691   1.941   .     S
C645   C527    1.378   1_655 S
C646   C648    1.413   .     A
C646   Br692   1.946   .     S
C649   Br693   1.919   .     S
C649   N672    1.372   .     A
C649   C1000   1.421   1_545 S
C650   Br694   1.923   .     S
C650   N671    1.372   .     A
C650   C825    1.421   .     S
C651   N672    1.372   .     A
C651   Br695   1.919   .     S
C651   C998    1.421   1_545 S
C652   N671    1.372   .     A
C652   Br696   1.923   .     S
C652   C823    1.421   .     S
C653   O677    1.291   .     A
C653   C658    1.429   .     S
C653   O680    1.287   .     A
C654   C657    1.429   .     S
C654   O678    1.287   .     A
C654   O679    1.291   .     A
C655   C657    1.399   .     A
C655   Br683   1.941   .     S
C655   C665    1.396   .     A
C656   C658    1.399   .     A
C656   Br684   1.941   .     S
C656   C666    1.396   .     A
C657   C659    1.400   .     A
C658   C660    1.400   .     A
C659   I685    2.140   .     S
C659   C661    1.400   .     A
C660   I686    2.140   .     S
C660   C662    1.400   .     A
C661   C663    1.417   .     A
C661   C667    1.413   .     A
C662   C668    1.413   .     A
C662   C664    1.417   .     A
C663   C665    1.414   .     A
C663   C142    1.402   1_556 S
C664   C666    1.414   .     A
C667   I687    2.133   .     S
C667   C119    1.388   1_556 S
C668   I688    2.133   .     S
N671   Zn681   2.021   .     S
N672   Zn682   2.021   .     S
O673   Zn681   2.007   .     S
O674   Zn682   2.007   .     S
O675   Zn681   2.007   .     S
O676   Zn682   2.007   .     S
O677   Zn681   2.004   .     S
O678   Zn682   2.004   .     S
O679   Zn681   2.004   .     S
O680   Zn682   2.004   .     S
C697   O734    1.296   .     A
C697   O731    1.292   .     A
C697   C706    1.444   .     S
C698   O733    1.292   .     A
C698   O732    1.296   .     A
C698   C705    1.444   .     S
C699   H727    1.080   .     S
C699   C724    1.400   .     A
C700   H728    1.080   .     S
C700   C723    1.400   .     A
C700   C204    1.387   1_556 S
C701   C706    1.408   .     A
C701   Br747   1.941   .     S
C701   C819    1.378   1_455 S
C702   C705    1.413   .     A
C702   Br748   1.946   .     S
C702   C762    1.380   .     S
C703   C705    1.408   .     A
C703   Br749   1.941   .     S
C703   C759    1.378   .     S
C704   C706    1.413   .     A
C704   Br750   1.946   .     S
C704   C818    1.380   1_455 S
C707   Br751   1.919   .     S
C707   N730    1.372   .     A
C708   Br752   1.923   .     S
C708   N729    1.372   .     A
C708   C883    1.421   .     S
C709   N730    1.372   .     A
C709   Br753   1.919   .     S
C710   N729    1.372   .     A
C710   Br754   1.923   .     S
C710   C881    1.421   .     S
C711   O735    1.291   .     A
C711   C716    1.429   .     S
C711   O738    1.287   .     A
C712   C715    1.429   .     S
C712   O736    1.287   .     A
C712   O737    1.291   .     A
C713   C715    1.399   .     A
C713   Br741   1.941   .     S
C713   C723    1.396   .     A
C714   C716    1.399   .     A
C714   Br742   1.941   .     S
C714   C724    1.396   .     A
C715   C717    1.400   .     A
C716   C718    1.400   .     A
C717   I743    2.140   .     S
C717   C719    1.400   .     A
C718   I744    2.140   .     S
C718   C720    1.400   .     A
C719   C721    1.417   .     A
C719   C725    1.413   .     A
C720   C726    1.413   .     A
C720   C722    1.417   .     A
C721   C723    1.414   .     A
C721   C200    1.402   1_556 S
C722   C724    1.414   .     A
C725   I745    2.133   .     S
C725   C177    1.388   1_556 S
C726   I746    2.133   .     S
N729   Zn739   2.021   .     S
N730   Zn740   2.021   .     S
O731   Zn739   2.007   .     S
O732   Zn740   2.007   .     S
O733   Zn739   2.007   .     S
O734   Zn740   2.007   .     S
O735   Zn739   2.004   .     S
O736   Zn740   2.004   .     S
O737   Zn739   2.004   .     S
O738   Zn740   2.004   .     S
C755   O792    1.296   .     A
C755   O789    1.292   .     A
C755   C764    1.444   .     S
C756   O791    1.292   .     A
C756   O790    1.296   .     A
C756   C763    1.444   .     S
C757   H785    1.080   .     S
C757   C782    1.400   .     A
C758   H786    1.080   .     S
C758   C781    1.400   .     A
C758   C262    1.387   1_556 S
C759   C764    1.408   .     A
C759   Br805   1.941   .     S
C760   C763    1.413   .     A
C760   Br806   1.946   .     S
C760   C820    1.380   .     S
C761   C763    1.408   .     A
C761   Br807   1.941   .     S
C761   C817    1.378   .     S
C762   C764    1.413   .     A
C762   Br808   1.946   .     S
C765   Br809   1.919   .     S
C765   N788    1.372   .     A
C766   Br810   1.923   .     S
C766   N787    1.372   .     A
C766   C941    1.421   .     S
C767   N788    1.372   .     A
C767   Br811   1.919   .     S
C768   N787    1.372   .     A
C768   Br812   1.923   .     S
C768   C939    1.421   .     S
C769   O793    1.291   .     A
C769   C774    1.429   .     S
C769   O796    1.287   .     A
C770   C773    1.429   .     S
C770   O794    1.287   .     A
C770   O795    1.291   .     A
C771   C773    1.399   .     A
C771   Br799   1.941   .     S
C771   C781    1.396   .     A
C772   C774    1.399   .     A
C772   Br800   1.941   .     S
C772   C782    1.396   .     A
C773   C775    1.400   .     A
C774   C776    1.400   .     A
C775   I801    2.140   .     S
C775   C777    1.400   .     A
C776   I802    2.140   .     S
C776   C778    1.400   .     A
C777   C779    1.417   .     A
C777   C783    1.413   .     A
C778   C784    1.413   .     A
C778   C780    1.417   .     A
C779   C781    1.414   .     A
C779   C258    1.402   1_556 S
C780   C782    1.414   .     A
C783   I803    2.133   .     S
C783   C235    1.388   1_556 S
C784   I804    2.133   .     S
N787   Zn797   2.021   .     S
N788   Zn798   2.021   .     S
O789   Zn797   2.007   .     S
O790   Zn798   2.007   .     S
O791   Zn797   2.007   .     S
O792   Zn798   2.007   .     S
O793   Zn797   2.004   .     S
O794   Zn798   2.004   .     S
O795   Zn797   2.004   .     S
O796   Zn798   2.004   .     S
C813   O850    1.296   .     A
C813   O847    1.292   .     A
C813   C822    1.444   .     S
C814   O849    1.292   .     A
C814   O848    1.296   .     A
C814   C821    1.444   .     S
C815   H843    1.080   .     S
C815   C840    1.400   .     A
C816   H844    1.080   .     S
C816   C839    1.400   .     A
C816   C320    1.387   1_556 S
C817   C822    1.408   .     A
C817   Br863   1.941   .     S
C818   C821    1.413   .     A
C818   Br864   1.946   .     S
C818   C704    1.380   1_655 S
C819   C821    1.408   .     A
C819   Br865   1.941   .     S
C819   C701    1.378   1_655 S
C820   C822    1.413   .     A
C820   Br866   1.946   .     S
C823   Br867   1.919   .     S
C823   N846    1.372   .     A
C824   Br868   1.923   .     S
C824   N845    1.372   .     A
C824   C999    1.421   .     S
C825   N846    1.372   .     A
C825   Br869   1.919   .     S
C826   N845    1.372   .     A
C826   Br870   1.923   .     S
C826   C997    1.421   .     S
C827   O851    1.291   .     A
C827   C832    1.429   .     S
C827   O854    1.287   .     A
C828   C831    1.429   .     S
C828   O852    1.287   .     A
C828   O853    1.291   .     A
C829   C831    1.399   .     A
C829   Br857   1.941   .     S
C829   C839    1.396   .     A
C830   C832    1.399   .     A
C830   Br858   1.941   .     S
C830   C840    1.396   .     A
C831   C833    1.400   .     A
C832   C834    1.400   .     A
C833   I859    2.140   .     S
C833   C835    1.400   .     A
C834   I860    2.140   .     S
C834   C836    1.400   .     A
C835   C837    1.417   .     A
C835   C841    1.413   .     A
C836   C842    1.413   .     A
C836   C838    1.417   .     A
C837   C839    1.414   .     A
C837   C316    1.402   1_556 S
C838   C840    1.414   .     A
C841   I861    2.133   .     S
C841   C293    1.388   1_556 S
C842   I862    2.133   .     S
N845   Zn855   2.021   .     S
N846   Zn856   2.021   .     S
O847   Zn855   2.007   .     S
O848   Zn856   2.007   .     S
O849   Zn855   2.007   .     S
O850   Zn856   2.007   .     S
O851   Zn855   2.004   .     S
O852   Zn856   2.004   .     S
O853   Zn855   2.004   .     S
O854   Zn856   2.004   .     S
C871   O908    1.296   .     A
C871   O905    1.292   .     A
C871   C880    1.444   .     S
C872   O907    1.292   .     A
C872   O906    1.296   .     A
C872   C879    1.444   .     S
C873   H901    1.080   .     S
C873   C898    1.400   .     A
C874   H902    1.080   .     S
C874   C897    1.400   .     A
C874   C378    1.387   1_556 S
C875   C880    1.408   .     A
C875   Br921   1.941   .     S
C875   C993    1.378   1_455 S
C876   C879    1.413   .     A
C876   Br922   1.946   .     S
C876   C936    1.380   .     S
C877   C879    1.408   .     A
C877   Br923   1.941   .     S
C877   C933    1.378   .     S
C878   C880    1.413   .     A
C878   Br924   1.946   .     S
C878   C992    1.380   1_455 S
C881   Br925   1.919   .     S
C881   N904    1.372   .     A
C882   Br926   1.923   .     S
C882   N903    1.372   .     A
C882   C535    1.421   1_565 S
C883   N904    1.372   .     A
C883   Br927   1.919   .     S
C884   N903    1.372   .     A
C884   Br928   1.923   .     S
C884   C533    1.421   1_565 S
C885   O909    1.291   .     A
C885   C890    1.429   .     S
C885   O912    1.287   .     A
C886   C889    1.429   .     S
C886   O910    1.287   .     A
C886   O911    1.291   .     A
C887   C889    1.399   .     A
C887   Br915   1.941   .     S
C887   C897    1.396   .     A
C888   C890    1.399   .     A
C888   Br916   1.941   .     S
C888   C898    1.396   .     A
C889   C891    1.400   .     A
C890   C892    1.400   .     A
C891   I917    2.140   .     S
C891   C893    1.400   .     A
C892   I918    2.140   .     S
C892   C894    1.400   .     A
C893   C895    1.417   .     A
C893   C899    1.413   .     A
C894   C900    1.413   .     A
C894   C896    1.417   .     A
C895   C897    1.414   .     A
C895   C374    1.402   1_556 S
C896   C898    1.414   .     A
C899   I919    2.133   .     S
C899   C351    1.388   1_556 S
C900   I920    2.133   .     S
N903   Zn913   2.021   .     S
N904   Zn914   2.021   .     S
O905   Zn913   2.007   .     S
O906   Zn914   2.007   .     S
O907   Zn913   2.007   .     S
O908   Zn914   2.007   .     S
O909   Zn913   2.004   .     S
O910   Zn914   2.004   .     S
O911   Zn913   2.004   .     S
O912   Zn914   2.004   .     S
C929   O966    1.296   .     A
C929   O963    1.292   .     A
C929   C938    1.444   .     S
C930   O965    1.292   .     A
C930   O964    1.296   .     A
C930   C937    1.444   .     S
C931   H959    1.080   .     S
C931   C956    1.400   .     A
C932   H960    1.080   .     S
C932   C955    1.400   .     A
C932   C436    1.387   1_556 S
C933   C938    1.408   .     A
C933   Br979   1.941   .     S
C934   C937    1.413   .     A
C934   Br980   1.946   .     S
C934   C994    1.380   .     S
C935   C937    1.408   .     A
C935   Br981   1.941   .     S
C935   C991    1.378   .     S
C936   C938    1.413   .     A
C936   Br982   1.946   .     S
C939   Br983   1.919   .     S
C939   N962    1.372   .     A
C940   Br984   1.923   .     S
C940   N961    1.372   .     A
C940   C593    1.421   1_565 S
C941   N962    1.372   .     A
C941   Br985   1.919   .     S
C942   N961    1.372   .     A
C942   Br986   1.923   .     S
C942   C591    1.421   1_565 S
C943   O967    1.291   .     A
C943   C948    1.429   .     S
C943   O970    1.287   .     A
C944   C947    1.429   .     S
C944   O968    1.287   .     A
C944   O969    1.291   .     A
C945   C947    1.399   .     A
C945   Br973   1.941   .     S
C945   C955    1.396   .     A
C946   C948    1.399   .     A
C946   Br974   1.941   .     S
C946   C956    1.396   .     A
C947   C949    1.400   .     A
C948   C950    1.400   .     A
C949   I975    2.140   .     S
C949   C951    1.400   .     A
C950   I976    2.140   .     S
C950   C952    1.400   .     A
C951   C953    1.417   .     A
C951   C957    1.413   .     A
C952   C958    1.413   .     A
C952   C954    1.417   .     A
C953   C955    1.414   .     A
C953   C432    1.402   1_556 S
C954   C956    1.414   .     A
C957   I977    2.133   .     S
C957   C409    1.388   1_556 S
C958   I978    2.133   .     S
N961   Zn971   2.021   .     S
N962   Zn972   2.021   .     S
O963   Zn971   2.007   .     S
O964   Zn972   2.007   .     S
O965   Zn971   2.007   .     S
O966   Zn972   2.007   .     S
O967   Zn971   2.004   .     S
O968   Zn972   2.004   .     S
O969   Zn971   2.004   .     S
O970   Zn972   2.004   .     S
C987   O1024   1.296   .     A
C987   O1021   1.292   .     A
C987   C996    1.444   .     S
C988   O1023   1.292   .     A
C988   O1022   1.296   .     A
C988   C995    1.444   .     S
C989   H1017   1.080   .     S
C989   C1014   1.400   .     A
C990   H1018   1.080   .     S
C990   C1013   1.400   .     A
C990   C494    1.387   1_556 S
C991   C996    1.408   .     A
C991   Br1037  1.941   .     S
C992   C995    1.413   .     A
C992   Br1038  1.946   .     S
C992   C878    1.380   1_655 S
C993   C995    1.408   .     A
C993   Br1039  1.941   .     S
C993   C875    1.378   1_655 S
C994   C996    1.413   .     A
C994   Br1040  1.946   .     S
C997   Br1041  1.919   .     S
C997   N1020   1.372   .     A
C998   Br1042  1.923   .     S
C998   N1019   1.372   .     A
C998   C651    1.421   1_565 S
C999   N1020   1.372   .     A
C999   Br1043  1.919   .     S
C1000  N1019   1.372   .     A
C1000  Br1044  1.923   .     S
C1000  C649    1.421   1_565 S
C1001  O1025   1.291   .     A
C1001  C1006   1.429   .     S
C1001  O1028   1.287   .     A
C1002  C1005   1.429   .     S
C1002  O1026   1.287   .     A
C1002  O1027   1.291   .     A
C1003  C1005   1.399   .     A
C1003  Br1031  1.941   .     S
C1003  C1013   1.396   .     A
C1004  C1006   1.399   .     A
C1004  Br1032  1.941   .     S
C1004  C1014   1.396   .     A
C1005  C1007   1.400   .     A
C1006  C1008   1.400   .     A
C1007  I1033   2.140   .     S
C1007  C1009   1.400   .     A
C1008  I1034   2.140   .     S
C1008  C1010   1.400   .     A
C1009  C1011   1.417   .     A
C1009  C1015   1.413   .     A
C1010  C1016   1.413   .     A
C1010  C1012   1.417   .     A
C1011  C1013   1.414   .     A
C1011  C490    1.402   1_556 S
C1012  C1014   1.414   .     A
C1015  I1035   2.133   .     S
C1015  C467    1.388   1_556 S
C1016  I1036   2.133   .     S
N1019  Zn1029  2.021   .     S
N1020  Zn1030  2.021   .     S
O1021  Zn1029  2.007   .     S
O1022  Zn1030  2.007   .     S
O1023  Zn1029  2.007   .     S
O1024  Zn1030  2.007   .     S
O1025  Zn1029  2.004   .     S
O1026  Zn1030  2.004   .     S
O1027  Zn1029  2.004   .     S
O1028  Zn1030  2.004   .     S
