data_str_m3_o10_o17_pcu_sym.35
_audit_creation_date              2020-01-03
_audit_creation_method            'Materials Studio'
_symmetry_space_group_name_H-M    'P1'
_symmetry_Int_Tables_number       1
_symmetry_cell_setting            triclinic
loop_
_symmetry_equiv_pos_as_xyz
  x,y,z
_cell_length_a                    23.8955
_cell_length_b                    26.4255
_cell_length_c                    30.1239
_cell_angle_alpha                 95.3538
_cell_angle_beta                  84.4070
_cell_angle_gamma                 92.4179
loop_
_atom_site_label
_atom_site_type_symbol
_atom_site_fract_x
_atom_site_fract_y
_atom_site_fract_z
_atom_site_U_iso_or_equiv
_atom_site_adp_type
_atom_site_occupancy
C1     C     0.18126   0.26417   0.24796   0.00000  Uiso   1.00
C2     C     0.17315   0.20750   0.41358   0.00000  Uiso   1.00
C3     C     0.16846   0.16037   0.11502   0.00000  Uiso   1.00
C4     C     0.16474   0.16431   0.38481   0.00000  Uiso   1.00
C5     C     0.20332   0.19546   0.09247   0.00000  Uiso   1.00
C6     C     0.14702   0.11902   0.40324   0.00000  Uiso   1.00
C7     C     0.20430   0.19412   0.04579   0.00000  Uiso   1.00
C8     C     0.14893   0.11613   0.44960   0.00000  Uiso   1.00
C9     C     0.17541   0.15432   0.02176   0.00000  Uiso   1.00
C10    C     0.17351   0.15655   0.47542   0.00000  Uiso   1.00
C11    C     0.14552   0.11444   0.04403   0.00000  Uiso   1.00
C12    C     0.15238   0.06882   0.24887   0.00000  Uiso   1.00
C13    C     0.19108   0.20151   0.45539   0.00000  Uiso   1.00
C14    C     0.22899   0.23509   0.02344   0.00000  Uiso   1.00
C15    C     0.12615   0.07435   0.47043   0.00000  Uiso   1.00
C16    C     0.10230   0.08735   0.11769   0.00000  Uiso   1.00
C17    C     0.13438   0.24766   0.41347   0.00000  Uiso   1.00
C18    C     0.23114   0.23904   0.11787   0.00000  Uiso   1.00
C19    C     0.28987   0.24184   0.11747   0.00000  Uiso   1.00
C20    C     0.31688   0.28742   0.13200   0.00000  Uiso   1.00
C21    C     0.28566   0.33042   0.14635   0.00000  Uiso   1.00
C22    C     0.22731   0.32746   0.14770   0.00000  Uiso   1.00
C23    C     0.21978   0.24127   0.47943   0.00000  Uiso   1.00
C24    C     0.19994   0.28133   0.13567   0.00000  Uiso   1.00
C25    C     0.11508   0.08090   0.37618   0.00000  Uiso   1.00
C26    C     0.13682   0.03345   0.36153   0.00000  Uiso   1.00
C27    C     0.10445   0.33061   0.33794   0.00000  Uiso   1.00
C28    C     0.05222   0.00959   0.32609   0.00000  Uiso   1.00
C29    C     0.03216   0.05839   0.33810   0.00000  Uiso   1.00
C30    C     0.06196   0.09286   0.36516   0.00000  Uiso   1.00
C31    C     0.24020   0.28942   0.45958   0.00000  Uiso   1.00
C32    C     0.26015   0.28885   0.41409   0.00000  Uiso   1.00
C33    C     0.27134   0.00078   0.39453   0.00000  Uiso   1.00
C34    C     0.12125   0.07297   0.01703   0.00000  Uiso   1.00
C35    C     0.26968   0.04725   0.42069   0.00000  Uiso   1.00
C36    C     0.25650   0.04811   0.46670   0.00000  Uiso   1.00
C37    C     0.24054   0.00311   0.48597   0.00000  Uiso   1.00
C38    C     0.09299   0.02504   0.03222   0.00000  Uiso   1.00
C39    C     0.04549   0.00530   0.01115   0.00000  Uiso   1.00
C40    C     0.03064   0.28700   0.01003   0.00000  Uiso   1.00
C41    C     0.05830   0.25522   0.03392   0.00000  Uiso   1.00
C42    C     0.10127   0.27516   0.05871   0.00000  Uiso   1.00
C43    C     0.12011   0.32592   0.05697   0.00000  Uiso   1.00
C44    C     0.24521   0.00369   0.25733   0.00000  Uiso   1.00
C45    C     0.18922   0.31799   0.24872   0.00000  Uiso   1.00
C46    C     0.09486   0.32779   0.22447   0.00000  Uiso   1.00
C47    C     0.14648   0.01453   0.24194   0.00000  Uiso   1.00
C48    C     0.16649   0.16800   0.33664   0.00000  Uiso   1.00
C49    C     0.16663   0.16417   0.16359   0.00000  Uiso   1.00
C50    C     0.13947   0.12014   0.09161   0.00000  Uiso   1.00
H51    H     0.25237   0.26482   0.04124   0.00000  Uiso   1.00
H52    H     0.17752   0.02387   0.36967   0.00000  Uiso   1.00
H53    H     0.11990   0.29289   0.32909   0.00000  Uiso   1.00
H54    H     0.02773   0.31442   0.30763   0.00000  Uiso   1.00
H55    H     0.32563   0.06929   0.32860   0.00000  Uiso   1.00
H56    H     0.04429   0.12941   0.37665   0.00000  Uiso   1.00
H57    H     0.26518   0.25365   0.39296   0.00000  Uiso   1.00
H58    H     0.27862   0.33260   0.35863   0.00000  Uiso   1.00
H59    H     0.27803   0.08261   0.40547   0.00000  Uiso   1.00
H60    H     0.25730   0.08378   0.48738   0.00000  Uiso   1.00
H61    H     0.22900   0.00564   0.02149   0.00000  Uiso   1.00
H62    H     0.11105   0.04196   0.44993   0.00000  Uiso   1.00
H63    H     0.02424   0.02877   0.49107   0.00000  Uiso   1.00
H64    H     0.33310   0.27083   0.48886   0.00000  Uiso   1.00
H65    H     0.04644   0.21519   0.03330   0.00000  Uiso   1.00
H66    H     0.12007   0.25020   0.07833   0.00000  Uiso   1.00
H67    H     0.15646   0.00601   0.07384   0.00000  Uiso   1.00
H68    H     0.00403   0.12639   0.21530   0.00000  Uiso   1.00
H69    H     0.32931   0.20692   0.28473   0.00000  Uiso   1.00
H70    H     0.31460   0.20949   0.10421   0.00000  Uiso   1.00
H71    H     0.02878   0.28973   0.13100   0.00000  Uiso   1.00
H72    H     0.30614   0.03264   0.15715   0.00000  Uiso   1.00
H73    H     0.20323   0.02752   0.15861   0.00000  Uiso   1.00
H74    H     0.15458   0.27946   0.13912   0.00000  Uiso   1.00
N75    N     0.31678   0.15265   0.23783   0.00000  Uiso   1.00
N76    N     0.01656   0.18068   0.26217   0.00000  Uiso   1.00
N77    N     0.07303   0.06155   0.13938   0.00000  Uiso   1.00
N78    N     0.10150   0.27876   0.41564   0.00000  Uiso   1.00
N79    N     0.28997   0.01929   0.26304   0.00000  Uiso   1.00
N80    N     0.05383   0.31114   0.21081   0.00000  Uiso   1.00
O81    O     0.12975   0.24619   0.25298   0.00000  Uiso   1.00
O82    O     0.20358   0.08714   0.24702   0.00000  Uiso   1.00
O83    O     0.22613   0.23721   0.24519   0.00000  Uiso   1.00
O84    O     0.10720   0.09613   0.25482   0.00000  Uiso   1.00
O85    O     0.11847   0.17117   0.31997   0.00000  Uiso   1.00
O86    O     0.21486   0.16216   0.18003   0.00000  Uiso   1.00
O87    O     0.21485   0.16219   0.31218   0.00000  Uiso   1.00
O88    O     0.11848   0.17115   0.18782   0.00000  Uiso   1.00
Zn89   Zn    0.10231   0.17266   0.25521   0.00000  Uiso   1.00
Zn90   Zn    0.23102   0.16067   0.24479   0.00000  Uiso   1.00
C91    C     0.51459   0.26417   0.24796   0.00000  Uiso   1.00
C92    C     0.50648   0.20750   0.41358   0.00000  Uiso   1.00
C93    C     0.50179   0.16037   0.11502   0.00000  Uiso   1.00
C94    C     0.49807   0.16431   0.38481   0.00000  Uiso   1.00
C95    C     0.53666   0.19546   0.09247   0.00000  Uiso   1.00
C96    C     0.48035   0.11902   0.40324   0.00000  Uiso   1.00
C97    C     0.53764   0.19412   0.04579   0.00000  Uiso   1.00
C98    C     0.48226   0.11613   0.44960   0.00000  Uiso   1.00
C99    C     0.50874   0.15432   0.02176   0.00000  Uiso   1.00
C100   C     0.50684   0.15655   0.47542   0.00000  Uiso   1.00
C101   C     0.47885   0.11444   0.04403   0.00000  Uiso   1.00
C102   C     0.48571   0.06882   0.24887   0.00000  Uiso   1.00
C103   C     0.52441   0.20151   0.45539   0.00000  Uiso   1.00
C104   C     0.56233   0.23509   0.02344   0.00000  Uiso   1.00
C105   C     0.45948   0.07435   0.47043   0.00000  Uiso   1.00
C106   C     0.43563   0.08735   0.11769   0.00000  Uiso   1.00
C107   C     0.46771   0.24766   0.41347   0.00000  Uiso   1.00
C108   C     0.56448   0.23904   0.11787   0.00000  Uiso   1.00
C109   C     0.62320   0.24184   0.11747   0.00000  Uiso   1.00
C110   C     0.65022   0.28742   0.13200   0.00000  Uiso   1.00
C111   C     0.61900   0.33042   0.14635   0.00000  Uiso   1.00
C112   C     0.56065   0.32746   0.14770   0.00000  Uiso   1.00
C113   C     0.55311   0.24127   0.47943   0.00000  Uiso   1.00
C114   C     0.53327   0.28133   0.13567   0.00000  Uiso   1.00
C115   C     0.44841   0.08090   0.37618   0.00000  Uiso   1.00
C116   C     0.47015   0.03345   0.36153   0.00000  Uiso   1.00
C117   C     0.43778   0.33061   0.33794   0.00000  Uiso   1.00
C118   C     0.38555   0.00959   0.32609   0.00000  Uiso   1.00
C119   C     0.36549   0.05839   0.33810   0.00000  Uiso   1.00
C120   C     0.39529   0.09286   0.36516   0.00000  Uiso   1.00
C121   C     0.57353   0.28942   0.45958   0.00000  Uiso   1.00
C122   C     0.59348   0.28885   0.41409   0.00000  Uiso   1.00
C123   C     0.60467   0.00078   0.39453   0.00000  Uiso   1.00
C124   C     0.45458   0.07297   0.01703   0.00000  Uiso   1.00
C125   C     0.60302   0.04725   0.42069   0.00000  Uiso   1.00
C126   C     0.58983   0.04811   0.46670   0.00000  Uiso   1.00
C127   C     0.57388   0.00311   0.48597   0.00000  Uiso   1.00
C128   C     0.42633   0.02504   0.03222   0.00000  Uiso   1.00
C129   C     0.37883   0.00530   0.01115   0.00000  Uiso   1.00
C130   C     0.36397   0.28700   0.01003   0.00000  Uiso   1.00
C131   C     0.39163   0.25522   0.03392   0.00000  Uiso   1.00
C132   C     0.43460   0.27516   0.05871   0.00000  Uiso   1.00
C133   C     0.45345   0.32592   0.05697   0.00000  Uiso   1.00
C134   C     0.57855   0.00369   0.25733   0.00000  Uiso   1.00
C135   C     0.52255   0.31799   0.24872   0.00000  Uiso   1.00
C136   C     0.42820   0.32779   0.22447   0.00000  Uiso   1.00
C137   C     0.47982   0.01453   0.24194   0.00000  Uiso   1.00
C138   C     0.49982   0.16800   0.33664   0.00000  Uiso   1.00
C139   C     0.49996   0.16417   0.16359   0.00000  Uiso   1.00
C140   C     0.47280   0.12014   0.09161   0.00000  Uiso   1.00
H141   H     0.58570   0.26482   0.04124   0.00000  Uiso   1.00
H142   H     0.51085   0.02387   0.36967   0.00000  Uiso   1.00
H143   H     0.45323   0.29289   0.32909   0.00000  Uiso   1.00
H144   H     0.36106   0.31442   0.30763   0.00000  Uiso   1.00
H145   H     0.65896   0.06929   0.32860   0.00000  Uiso   1.00
H146   H     0.37762   0.12941   0.37665   0.00000  Uiso   1.00
H147   H     0.59851   0.25365   0.39296   0.00000  Uiso   1.00
H148   H     0.61195   0.33260   0.35863   0.00000  Uiso   1.00
H149   H     0.61136   0.08261   0.40547   0.00000  Uiso   1.00
H150   H     0.59063   0.08378   0.48738   0.00000  Uiso   1.00
H151   H     0.56234   0.00564   0.02149   0.00000  Uiso   1.00
H152   H     0.44438   0.04196   0.44993   0.00000  Uiso   1.00
H153   H     0.35757   0.02877   0.49107   0.00000  Uiso   1.00
H154   H     0.66644   0.27083   0.48886   0.00000  Uiso   1.00
H155   H     0.37977   0.21519   0.03330   0.00000  Uiso   1.00
H156   H     0.45340   0.25020   0.07833   0.00000  Uiso   1.00
H157   H     0.48979   0.00601   0.07384   0.00000  Uiso   1.00
H158   H     0.33736   0.12639   0.21530   0.00000  Uiso   1.00
H159   H     0.66264   0.20692   0.28473   0.00000  Uiso   1.00
H160   H     0.64793   0.20949   0.10421   0.00000  Uiso   1.00
H161   H     0.36212   0.28973   0.13100   0.00000  Uiso   1.00
H162   H     0.63947   0.03264   0.15715   0.00000  Uiso   1.00
H163   H     0.53657   0.02752   0.15861   0.00000  Uiso   1.00
H164   H     0.48792   0.27946   0.13912   0.00000  Uiso   1.00
N165   N     0.65011   0.15265   0.23783   0.00000  Uiso   1.00
N166   N     0.34989   0.18068   0.26217   0.00000  Uiso   1.00
N167   N     0.40636   0.06155   0.13938   0.00000  Uiso   1.00
N168   N     0.43483   0.27876   0.41564   0.00000  Uiso   1.00
N169   N     0.62330   0.01929   0.26304   0.00000  Uiso   1.00
N170   N     0.38717   0.31114   0.21081   0.00000  Uiso   1.00
O171   O     0.46308   0.24619   0.25298   0.00000  Uiso   1.00
O172   O     0.53692   0.08714   0.24702   0.00000  Uiso   1.00
O173   O     0.55946   0.23721   0.24519   0.00000  Uiso   1.00
O174   O     0.44054   0.09613   0.25482   0.00000  Uiso   1.00
O175   O     0.45181   0.17117   0.31997   0.00000  Uiso   1.00
O176   O     0.54819   0.16216   0.18003   0.00000  Uiso   1.00
O177   O     0.54819   0.16219   0.31218   0.00000  Uiso   1.00
O178   O     0.45181   0.17115   0.18782   0.00000  Uiso   1.00
Zn179  Zn    0.43565   0.17266   0.25521   0.00000  Uiso   1.00
Zn180  Zn    0.56435   0.16067   0.24479   0.00000  Uiso   1.00
C181   C     0.84793   0.26417   0.24796   0.00000  Uiso   1.00
C182   C     0.83982   0.20750   0.41358   0.00000  Uiso   1.00
C183   C     0.83513   0.16037   0.11502   0.00000  Uiso   1.00
C184   C     0.83140   0.16431   0.38481   0.00000  Uiso   1.00
C185   C     0.86999   0.19546   0.09247   0.00000  Uiso   1.00
C186   C     0.81368   0.11902   0.40324   0.00000  Uiso   1.00
C187   C     0.87097   0.19412   0.04579   0.00000  Uiso   1.00
C188   C     0.81560   0.11613   0.44960   0.00000  Uiso   1.00
C189   C     0.84207   0.15432   0.02176   0.00000  Uiso   1.00
C190   C     0.84017   0.15655   0.47542   0.00000  Uiso   1.00
C191   C     0.81219   0.11444   0.04403   0.00000  Uiso   1.00
C192   C     0.81904   0.06882   0.24887   0.00000  Uiso   1.00
C193   C     0.85774   0.20151   0.45539   0.00000  Uiso   1.00
C194   C     0.89566   0.23509   0.02344   0.00000  Uiso   1.00
C195   C     0.79282   0.07435   0.47043   0.00000  Uiso   1.00
C196   C     0.76896   0.08735   0.11769   0.00000  Uiso   1.00
C197   C     0.80105   0.24766   0.41347   0.00000  Uiso   1.00
C198   C     0.89781   0.23904   0.11787   0.00000  Uiso   1.00
C199   C     0.95654   0.24184   0.11747   0.00000  Uiso   1.00
C200   C     0.98355   0.28742   0.13200   0.00000  Uiso   1.00
C201   C     0.95233   0.33042   0.14635   0.00000  Uiso   1.00
C202   C     0.89398   0.32746   0.14770   0.00000  Uiso   1.00
C203   C     0.88645   0.24127   0.47943   0.00000  Uiso   1.00
C204   C     0.86661   0.28133   0.13567   0.00000  Uiso   1.00
C205   C     0.78174   0.08090   0.37618   0.00000  Uiso   1.00
C206   C     0.80348   0.03345   0.36153   0.00000  Uiso   1.00
C207   C     0.77111   0.33061   0.33794   0.00000  Uiso   1.00
C208   C     0.71888   0.00959   0.32609   0.00000  Uiso   1.00
C209   C     0.69883   0.05839   0.33810   0.00000  Uiso   1.00
C210   C     0.72863   0.09286   0.36516   0.00000  Uiso   1.00
C211   C     0.90687   0.28942   0.45958   0.00000  Uiso   1.00
C212   C     0.92682   0.28885   0.41409   0.00000  Uiso   1.00
C213   C     0.93800   0.00078   0.39453   0.00000  Uiso   1.00
C214   C     0.78791   0.07297   0.01703   0.00000  Uiso   1.00
C215   C     0.93635   0.04725   0.42069   0.00000  Uiso   1.00
C216   C     0.92316   0.04811   0.46670   0.00000  Uiso   1.00
C217   C     0.90721   0.00311   0.48597   0.00000  Uiso   1.00
C218   C     0.75966   0.02504   0.03222   0.00000  Uiso   1.00
C219   C     0.71216   0.00530   0.01115   0.00000  Uiso   1.00
C220   C     0.69731   0.28700   0.01003   0.00000  Uiso   1.00
C221   C     0.72497   0.25522   0.03392   0.00000  Uiso   1.00
C222   C     0.76794   0.27516   0.05871   0.00000  Uiso   1.00
C223   C     0.78678   0.32592   0.05697   0.00000  Uiso   1.00
C224   C     0.91188   0.00369   0.25733   0.00000  Uiso   1.00
C225   C     0.85588   0.31799   0.24872   0.00000  Uiso   1.00
C226   C     0.76153   0.32779   0.22447   0.00000  Uiso   1.00
C227   C     0.81315   0.01453   0.24194   0.00000  Uiso   1.00
C228   C     0.83315   0.16800   0.33664   0.00000  Uiso   1.00
C229   C     0.83330   0.16417   0.16359   0.00000  Uiso   1.00
C230   C     0.80613   0.12014   0.09161   0.00000  Uiso   1.00
H231   H     0.91903   0.26482   0.04124   0.00000  Uiso   1.00
H232   H     0.84419   0.02387   0.36967   0.00000  Uiso   1.00
H233   H     0.78656   0.29289   0.32909   0.00000  Uiso   1.00
H234   H     0.69439   0.31442   0.30763   0.00000  Uiso   1.00
H235   H     0.99229   0.06929   0.32860   0.00000  Uiso   1.00
H236   H     0.71096   0.12941   0.37665   0.00000  Uiso   1.00
H237   H     0.93184   0.25365   0.39296   0.00000  Uiso   1.00
H238   H     0.94529   0.33260   0.35863   0.00000  Uiso   1.00
H239   H     0.94470   0.08261   0.40547   0.00000  Uiso   1.00
H240   H     0.92397   0.08378   0.48738   0.00000  Uiso   1.00
H241   H     0.89567   0.00564   0.02149   0.00000  Uiso   1.00
H242   H     0.77772   0.04196   0.44993   0.00000  Uiso   1.00
H243   H     0.69090   0.02877   0.49107   0.00000  Uiso   1.00
H244   H     0.99977   0.27083   0.48886   0.00000  Uiso   1.00
H245   H     0.71311   0.21519   0.03330   0.00000  Uiso   1.00
H246   H     0.78674   0.25020   0.07833   0.00000  Uiso   1.00
H247   H     0.82313   0.00601   0.07384   0.00000  Uiso   1.00
H248   H     0.67070   0.12639   0.21530   0.00000  Uiso   1.00
H249   H     0.99597   0.20692   0.28473   0.00000  Uiso   1.00
H250   H     0.98126   0.20949   0.10421   0.00000  Uiso   1.00
H251   H     0.69545   0.28973   0.13100   0.00000  Uiso   1.00
H252   H     0.97280   0.03264   0.15715   0.00000  Uiso   1.00
H253   H     0.86990   0.02752   0.15861   0.00000  Uiso   1.00
H254   H     0.82125   0.27946   0.13912   0.00000  Uiso   1.00
N255   N     0.98344   0.15265   0.23783   0.00000  Uiso   1.00
N256   N     0.68322   0.18068   0.26217   0.00000  Uiso   1.00
N257   N     0.73969   0.06155   0.13938   0.00000  Uiso   1.00
N258   N     0.76816   0.27876   0.41564   0.00000  Uiso   1.00
N259   N     0.95664   0.01929   0.26304   0.00000  Uiso   1.00
N260   N     0.72050   0.31114   0.21081   0.00000  Uiso   1.00
O261   O     0.79642   0.24619   0.25298   0.00000  Uiso   1.00
O262   O     0.87025   0.08714   0.24702   0.00000  Uiso   1.00
O263   O     0.89280   0.23721   0.24519   0.00000  Uiso   1.00
O264   O     0.77387   0.09613   0.25482   0.00000  Uiso   1.00
O265   O     0.78514   0.17117   0.31997   0.00000  Uiso   1.00
O266   O     0.88153   0.16216   0.18003   0.00000  Uiso   1.00
O267   O     0.88152   0.16219   0.31218   0.00000  Uiso   1.00
O268   O     0.78515   0.17115   0.18782   0.00000  Uiso   1.00
Zn269  Zn    0.76898   0.17266   0.25521   0.00000  Uiso   1.00
Zn270  Zn    0.89769   0.16067   0.24479   0.00000  Uiso   1.00
C271   C     0.18126   0.59751   0.24796   0.00000  Uiso   1.00
C272   C     0.17315   0.54083   0.41358   0.00000  Uiso   1.00
C273   C     0.16846   0.49370   0.11502   0.00000  Uiso   1.00
C274   C     0.16474   0.49765   0.38481   0.00000  Uiso   1.00
C275   C     0.20332   0.52880   0.09247   0.00000  Uiso   1.00
C276   C     0.14702   0.45235   0.40324   0.00000  Uiso   1.00
C277   C     0.20430   0.52746   0.04579   0.00000  Uiso   1.00
C278   C     0.14893   0.44946   0.44960   0.00000  Uiso   1.00
C279   C     0.17541   0.48765   0.02176   0.00000  Uiso   1.00
C280   C     0.17351   0.48988   0.47542   0.00000  Uiso   1.00
C281   C     0.14552   0.44777   0.04403   0.00000  Uiso   1.00
C282   C     0.15238   0.40215   0.24887   0.00000  Uiso   1.00
C283   C     0.19108   0.53485   0.45539   0.00000  Uiso   1.00
C284   C     0.22899   0.56843   0.02344   0.00000  Uiso   1.00
C285   C     0.12615   0.40768   0.47043   0.00000  Uiso   1.00
C286   C     0.10230   0.42068   0.11769   0.00000  Uiso   1.00
C287   C     0.13438   0.58099   0.41347   0.00000  Uiso   1.00
C288   C     0.23114   0.57237   0.11787   0.00000  Uiso   1.00
C289   C     0.28987   0.57518   0.11747   0.00000  Uiso   1.00
C290   C     0.31688   0.62075   0.13200   0.00000  Uiso   1.00
C291   C     0.28566   0.66375   0.14635   0.00000  Uiso   1.00
C292   C     0.22731   0.66079   0.14770   0.00000  Uiso   1.00
C293   C     0.21978   0.57461   0.47943   0.00000  Uiso   1.00
C294   C     0.19994   0.61467   0.13567   0.00000  Uiso   1.00
C295   C     0.11508   0.41424   0.37618   0.00000  Uiso   1.00
C296   C     0.13682   0.36678   0.36153   0.00000  Uiso   1.00
C297   C     0.10445   0.66394   0.33794   0.00000  Uiso   1.00
C298   C     0.05222   0.34292   0.32609   0.00000  Uiso   1.00
C299   C     0.03216   0.39173   0.33810   0.00000  Uiso   1.00
C300   C     0.06196   0.42620   0.36516   0.00000  Uiso   1.00
C301   C     0.24020   0.62275   0.45958   0.00000  Uiso   1.00
C302   C     0.26015   0.62219   0.41409   0.00000  Uiso   1.00
C303   C     0.27134   0.33411   0.39453   0.00000  Uiso   1.00
C304   C     0.12125   0.40630   0.01703   0.00000  Uiso   1.00
C305   C     0.26968   0.38059   0.42069   0.00000  Uiso   1.00
C306   C     0.25650   0.38145   0.46670   0.00000  Uiso   1.00
C307   C     0.24054   0.33645   0.48597   0.00000  Uiso   1.00
C308   C     0.09299   0.35837   0.03222   0.00000  Uiso   1.00
C309   C     0.04549   0.33863   0.01115   0.00000  Uiso   1.00
C310   C     0.03064   0.62033   0.01003   0.00000  Uiso   1.00
C311   C     0.05830   0.58856   0.03392   0.00000  Uiso   1.00
C312   C     0.10127   0.60849   0.05871   0.00000  Uiso   1.00
C313   C     0.12011   0.65926   0.05697   0.00000  Uiso   1.00
C314   C     0.24521   0.33702   0.25733   0.00000  Uiso   1.00
C315   C     0.18922   0.65132   0.24872   0.00000  Uiso   1.00
C316   C     0.09486   0.66112   0.22447   0.00000  Uiso   1.00
C317   C     0.14648   0.34787   0.24194   0.00000  Uiso   1.00
C318   C     0.16649   0.50134   0.33664   0.00000  Uiso   1.00
C319   C     0.16663   0.49750   0.16359   0.00000  Uiso   1.00
C320   C     0.13947   0.45348   0.09161   0.00000  Uiso   1.00
H321   H     0.25237   0.59815   0.04124   0.00000  Uiso   1.00
H322   H     0.17752   0.35721   0.36967   0.00000  Uiso   1.00
H323   H     0.11990   0.62623   0.32909   0.00000  Uiso   1.00
H324   H     0.02773   0.64776   0.30763   0.00000  Uiso   1.00
H325   H     0.32563   0.40262   0.32860   0.00000  Uiso   1.00
H326   H     0.04429   0.46275   0.37665   0.00000  Uiso   1.00
H327   H     0.26518   0.58698   0.39296   0.00000  Uiso   1.00
H328   H     0.27862   0.66593   0.35863   0.00000  Uiso   1.00
H329   H     0.27803   0.41594   0.40547   0.00000  Uiso   1.00
H330   H     0.25730   0.41711   0.48738   0.00000  Uiso   1.00
H331   H     0.22900   0.33897   0.02149   0.00000  Uiso   1.00
H332   H     0.11105   0.37530   0.44993   0.00000  Uiso   1.00
H333   H     0.02424   0.36211   0.49107   0.00000  Uiso   1.00
H334   H     0.33310   0.60416   0.48886   0.00000  Uiso   1.00
H335   H     0.04644   0.54852   0.03330   0.00000  Uiso   1.00
H336   H     0.12007   0.58353   0.07833   0.00000  Uiso   1.00
H337   H     0.15646   0.33934   0.07384   0.00000  Uiso   1.00
H338   H     0.00403   0.45973   0.21530   0.00000  Uiso   1.00
H339   H     0.32931   0.54025   0.28473   0.00000  Uiso   1.00
H340   H     0.31460   0.54283   0.10421   0.00000  Uiso   1.00
H341   H     0.02878   0.62306   0.13100   0.00000  Uiso   1.00
H342   H     0.30614   0.36597   0.15715   0.00000  Uiso   1.00
H343   H     0.20323   0.36085   0.15861   0.00000  Uiso   1.00
H344   H     0.15458   0.61280   0.13912   0.00000  Uiso   1.00
N345   N     0.31678   0.48598   0.23783   0.00000  Uiso   1.00
N346   N     0.01656   0.51402   0.26217   0.00000  Uiso   1.00
N347   N     0.07303   0.39488   0.13938   0.00000  Uiso   1.00
N348   N     0.10150   0.61209   0.41564   0.00000  Uiso   1.00
N349   N     0.28997   0.35262   0.26304   0.00000  Uiso   1.00
N350   N     0.05383   0.64447   0.21081   0.00000  Uiso   1.00
O351   O     0.12975   0.57952   0.25298   0.00000  Uiso   1.00
O352   O     0.20358   0.42048   0.24702   0.00000  Uiso   1.00
O353   O     0.22613   0.57054   0.24519   0.00000  Uiso   1.00
O354   O     0.10720   0.42946   0.25482   0.00000  Uiso   1.00
O355   O     0.11847   0.50450   0.31997   0.00000  Uiso   1.00
O356   O     0.21486   0.49550   0.18003   0.00000  Uiso   1.00
O357   O     0.21485   0.49552   0.31218   0.00000  Uiso   1.00
O358   O     0.11848   0.50448   0.18782   0.00000  Uiso   1.00
Zn359  Zn    0.10231   0.50600   0.25521   0.00000  Uiso   1.00
Zn360  Zn    0.23102   0.49400   0.24479   0.00000  Uiso   1.00
C361   C     0.51459   0.59751   0.24796   0.00000  Uiso   1.00
C362   C     0.50648   0.54083   0.41358   0.00000  Uiso   1.00
C363   C     0.50179   0.49370   0.11502   0.00000  Uiso   1.00
C364   C     0.49807   0.49765   0.38481   0.00000  Uiso   1.00
C365   C     0.53666   0.52880   0.09247   0.00000  Uiso   1.00
C366   C     0.48035   0.45235   0.40324   0.00000  Uiso   1.00
C367   C     0.53764   0.52746   0.04579   0.00000  Uiso   1.00
C368   C     0.48226   0.44946   0.44960   0.00000  Uiso   1.00
C369   C     0.50874   0.48765   0.02176   0.00000  Uiso   1.00
C370   C     0.50684   0.48988   0.47542   0.00000  Uiso   1.00
C371   C     0.47885   0.44777   0.04403   0.00000  Uiso   1.00
C372   C     0.48571   0.40215   0.24887   0.00000  Uiso   1.00
C373   C     0.52441   0.53485   0.45539   0.00000  Uiso   1.00
C374   C     0.56233   0.56843   0.02344   0.00000  Uiso   1.00
C375   C     0.45948   0.40768   0.47043   0.00000  Uiso   1.00
C376   C     0.43563   0.42068   0.11769   0.00000  Uiso   1.00
C377   C     0.46771   0.58099   0.41347   0.00000  Uiso   1.00
C378   C     0.56448   0.57237   0.11787   0.00000  Uiso   1.00
C379   C     0.62320   0.57518   0.11747   0.00000  Uiso   1.00
C380   C     0.65022   0.62075   0.13200   0.00000  Uiso   1.00
C381   C     0.61900   0.66375   0.14635   0.00000  Uiso   1.00
C382   C     0.56065   0.66079   0.14770   0.00000  Uiso   1.00
C383   C     0.55311   0.57461   0.47943   0.00000  Uiso   1.00
C384   C     0.53327   0.61467   0.13567   0.00000  Uiso   1.00
C385   C     0.44841   0.41424   0.37618   0.00000  Uiso   1.00
C386   C     0.47015   0.36678   0.36153   0.00000  Uiso   1.00
C387   C     0.43778   0.66394   0.33794   0.00000  Uiso   1.00
C388   C     0.38555   0.34292   0.32609   0.00000  Uiso   1.00
C389   C     0.36549   0.39173   0.33810   0.00000  Uiso   1.00
C390   C     0.39529   0.42620   0.36516   0.00000  Uiso   1.00
C391   C     0.57353   0.62275   0.45958   0.00000  Uiso   1.00
C392   C     0.59348   0.62219   0.41409   0.00000  Uiso   1.00
C393   C     0.60467   0.33411   0.39453   0.00000  Uiso   1.00
C394   C     0.45458   0.40630   0.01703   0.00000  Uiso   1.00
C395   C     0.60302   0.38059   0.42069   0.00000  Uiso   1.00
C396   C     0.58983   0.38145   0.46670   0.00000  Uiso   1.00
C397   C     0.57388   0.33645   0.48597   0.00000  Uiso   1.00
C398   C     0.42633   0.35837   0.03222   0.00000  Uiso   1.00
C399   C     0.37883   0.33863   0.01115   0.00000  Uiso   1.00
C400   C     0.36397   0.62033   0.01003   0.00000  Uiso   1.00
C401   C     0.39163   0.58856   0.03392   0.00000  Uiso   1.00
C402   C     0.43460   0.60849   0.05871   0.00000  Uiso   1.00
C403   C     0.45345   0.65926   0.05697   0.00000  Uiso   1.00
C404   C     0.57855   0.33702   0.25733   0.00000  Uiso   1.00
C405   C     0.52255   0.65132   0.24872   0.00000  Uiso   1.00
C406   C     0.42820   0.66112   0.22447   0.00000  Uiso   1.00
C407   C     0.47982   0.34787   0.24194   0.00000  Uiso   1.00
C408   C     0.49982   0.50134   0.33664   0.00000  Uiso   1.00
C409   C     0.49996   0.49750   0.16359   0.00000  Uiso   1.00
C410   C     0.47280   0.45348   0.09161   0.00000  Uiso   1.00
H411   H     0.58570   0.59815   0.04124   0.00000  Uiso   1.00
H412   H     0.51085   0.35721   0.36967   0.00000  Uiso   1.00
H413   H     0.45323   0.62623   0.32909   0.00000  Uiso   1.00
H414   H     0.36106   0.64776   0.30763   0.00000  Uiso   1.00
H415   H     0.65896   0.40262   0.32860   0.00000  Uiso   1.00
H416   H     0.37762   0.46275   0.37665   0.00000  Uiso   1.00
H417   H     0.59851   0.58698   0.39296   0.00000  Uiso   1.00
H418   H     0.61195   0.66593   0.35863   0.00000  Uiso   1.00
H419   H     0.61136   0.41594   0.40547   0.00000  Uiso   1.00
H420   H     0.59063   0.41711   0.48738   0.00000  Uiso   1.00
H421   H     0.56234   0.33897   0.02149   0.00000  Uiso   1.00
H422   H     0.44438   0.37530   0.44993   0.00000  Uiso   1.00
H423   H     0.35757   0.36211   0.49107   0.00000  Uiso   1.00
H424   H     0.66644   0.60416   0.48886   0.00000  Uiso   1.00
H425   H     0.37977   0.54852   0.03330   0.00000  Uiso   1.00
H426   H     0.45340   0.58353   0.07833   0.00000  Uiso   1.00
H427   H     0.48979   0.33934   0.07384   0.00000  Uiso   1.00
H428   H     0.33736   0.45973   0.21530   0.00000  Uiso   1.00
H429   H     0.66264   0.54025   0.28473   0.00000  Uiso   1.00
H430   H     0.64793   0.54283   0.10421   0.00000  Uiso   1.00
H431   H     0.36212   0.62306   0.13100   0.00000  Uiso   1.00
H432   H     0.63947   0.36597   0.15715   0.00000  Uiso   1.00
H433   H     0.53657   0.36085   0.15861   0.00000  Uiso   1.00
H434   H     0.48792   0.61280   0.13912   0.00000  Uiso   1.00
N435   N     0.65011   0.48598   0.23783   0.00000  Uiso   1.00
N436   N     0.34989   0.51402   0.26217   0.00000  Uiso   1.00
N437   N     0.40636   0.39488   0.13938   0.00000  Uiso   1.00
N438   N     0.43483   0.61209   0.41564   0.00000  Uiso   1.00
N439   N     0.62330   0.35262   0.26304   0.00000  Uiso   1.00
N440   N     0.38717   0.64447   0.21081   0.00000  Uiso   1.00
O441   O     0.46308   0.57952   0.25298   0.00000  Uiso   1.00
O442   O     0.53692   0.42048   0.24702   0.00000  Uiso   1.00
O443   O     0.55946   0.57054   0.24519   0.00000  Uiso   1.00
O444   O     0.44054   0.42946   0.25482   0.00000  Uiso   1.00
O445   O     0.45181   0.50450   0.31997   0.00000  Uiso   1.00
O446   O     0.54819   0.49550   0.18003   0.00000  Uiso   1.00
O447   O     0.54819   0.49552   0.31218   0.00000  Uiso   1.00
O448   O     0.45181   0.50448   0.18782   0.00000  Uiso   1.00
Zn449  Zn    0.43565   0.50600   0.25521   0.00000  Uiso   1.00
Zn450  Zn    0.56435   0.49400   0.24479   0.00000  Uiso   1.00
C451   C     0.84793   0.59751   0.24796   0.00000  Uiso   1.00
C452   C     0.83982   0.54083   0.41358   0.00000  Uiso   1.00
C453   C     0.83513   0.49370   0.11502   0.00000  Uiso   1.00
C454   C     0.83140   0.49765   0.38481   0.00000  Uiso   1.00
C455   C     0.86999   0.52880   0.09247   0.00000  Uiso   1.00
C456   C     0.81368   0.45235   0.40324   0.00000  Uiso   1.00
C457   C     0.87097   0.52746   0.04579   0.00000  Uiso   1.00
C458   C     0.81560   0.44946   0.44960   0.00000  Uiso   1.00
C459   C     0.84207   0.48765   0.02176   0.00000  Uiso   1.00
C460   C     0.84017   0.48988   0.47542   0.00000  Uiso   1.00
C461   C     0.81219   0.44777   0.04403   0.00000  Uiso   1.00
C462   C     0.81904   0.40215   0.24887   0.00000  Uiso   1.00
C463   C     0.85774   0.53485   0.45539   0.00000  Uiso   1.00
C464   C     0.89566   0.56843   0.02344   0.00000  Uiso   1.00
C465   C     0.79282   0.40768   0.47043   0.00000  Uiso   1.00
C466   C     0.76896   0.42068   0.11769   0.00000  Uiso   1.00
C467   C     0.80105   0.58099   0.41347   0.00000  Uiso   1.00
C468   C     0.89781   0.57237   0.11787   0.00000  Uiso   1.00
C469   C     0.95654   0.57518   0.11747   0.00000  Uiso   1.00
C470   C     0.98355   0.62075   0.13200   0.00000  Uiso   1.00
C471   C     0.95233   0.66375   0.14635   0.00000  Uiso   1.00
C472   C     0.89398   0.66079   0.14770   0.00000  Uiso   1.00
C473   C     0.88645   0.57461   0.47943   0.00000  Uiso   1.00
C474   C     0.86661   0.61467   0.13567   0.00000  Uiso   1.00
C475   C     0.78174   0.41424   0.37618   0.00000  Uiso   1.00
C476   C     0.80348   0.36678   0.36153   0.00000  Uiso   1.00
C477   C     0.77111   0.66394   0.33794   0.00000  Uiso   1.00
C478   C     0.71888   0.34292   0.32609   0.00000  Uiso   1.00
C479   C     0.69883   0.39173   0.33810   0.00000  Uiso   1.00
C480   C     0.72863   0.42620   0.36516   0.00000  Uiso   1.00
C481   C     0.90687   0.62275   0.45958   0.00000  Uiso   1.00
C482   C     0.92682   0.62219   0.41409   0.00000  Uiso   1.00
C483   C     0.93800   0.33411   0.39453   0.00000  Uiso   1.00
C484   C     0.78791   0.40630   0.01703   0.00000  Uiso   1.00
C485   C     0.93635   0.38059   0.42069   0.00000  Uiso   1.00
C486   C     0.92316   0.38145   0.46670   0.00000  Uiso   1.00
C487   C     0.90721   0.33645   0.48597   0.00000  Uiso   1.00
C488   C     0.75966   0.35837   0.03222   0.00000  Uiso   1.00
C489   C     0.71216   0.33863   0.01115   0.00000  Uiso   1.00
C490   C     0.69731   0.62033   0.01003   0.00000  Uiso   1.00
C491   C     0.72497   0.58856   0.03392   0.00000  Uiso   1.00
C492   C     0.76794   0.60849   0.05871   0.00000  Uiso   1.00
C493   C     0.78678   0.65926   0.05697   0.00000  Uiso   1.00
C494   C     0.91188   0.33702   0.25733   0.00000  Uiso   1.00
C495   C     0.85588   0.65132   0.24872   0.00000  Uiso   1.00
C496   C     0.76153   0.66112   0.22447   0.00000  Uiso   1.00
C497   C     0.81315   0.34787   0.24194   0.00000  Uiso   1.00
C498   C     0.83315   0.50134   0.33664   0.00000  Uiso   1.00
C499   C     0.83330   0.49750   0.16359   0.00000  Uiso   1.00
C500   C     0.80613   0.45348   0.09161   0.00000  Uiso   1.00
H501   H     0.91903   0.59815   0.04124   0.00000  Uiso   1.00
H502   H     0.84419   0.35721   0.36967   0.00000  Uiso   1.00
H503   H     0.78656   0.62623   0.32909   0.00000  Uiso   1.00
H504   H     0.69439   0.64776   0.30763   0.00000  Uiso   1.00
H505   H     0.99229   0.40262   0.32860   0.00000  Uiso   1.00
H506   H     0.71096   0.46275   0.37665   0.00000  Uiso   1.00
H507   H     0.93184   0.58698   0.39296   0.00000  Uiso   1.00
H508   H     0.94529   0.66593   0.35863   0.00000  Uiso   1.00
H509   H     0.94470   0.41594   0.40547   0.00000  Uiso   1.00
H510   H     0.92397   0.41711   0.48738   0.00000  Uiso   1.00
H511   H     0.89567   0.33897   0.02149   0.00000  Uiso   1.00
H512   H     0.77772   0.37530   0.44993   0.00000  Uiso   1.00
H513   H     0.69090   0.36211   0.49107   0.00000  Uiso   1.00
H514   H     0.99977   0.60416   0.48886   0.00000  Uiso   1.00
H515   H     0.71311   0.54852   0.03330   0.00000  Uiso   1.00
H516   H     0.78674   0.58353   0.07833   0.00000  Uiso   1.00
H517   H     0.82313   0.33934   0.07384   0.00000  Uiso   1.00
H518   H     0.67070   0.45973   0.21530   0.00000  Uiso   1.00
H519   H     0.99597   0.54025   0.28473   0.00000  Uiso   1.00
H520   H     0.98126   0.54283   0.10421   0.00000  Uiso   1.00
H521   H     0.69545   0.62306   0.13100   0.00000  Uiso   1.00
H522   H     0.97280   0.36597   0.15715   0.00000  Uiso   1.00
H523   H     0.86990   0.36085   0.15861   0.00000  Uiso   1.00
H524   H     0.82125   0.61280   0.13912   0.00000  Uiso   1.00
N525   N     0.98344   0.48598   0.23783   0.00000  Uiso   1.00
N526   N     0.68322   0.51402   0.26217   0.00000  Uiso   1.00
N527   N     0.73969   0.39488   0.13938   0.00000  Uiso   1.00
N528   N     0.76816   0.61209   0.41564   0.00000  Uiso   1.00
N529   N     0.95664   0.35262   0.26304   0.00000  Uiso   1.00
N530   N     0.72050   0.64447   0.21081   0.00000  Uiso   1.00
O531   O     0.79642   0.57952   0.25298   0.00000  Uiso   1.00
O532   O     0.87025   0.42048   0.24702   0.00000  Uiso   1.00
O533   O     0.89280   0.57054   0.24519   0.00000  Uiso   1.00
O534   O     0.77387   0.42946   0.25482   0.00000  Uiso   1.00
O535   O     0.78514   0.50450   0.31997   0.00000  Uiso   1.00
O536   O     0.88153   0.49550   0.18003   0.00000  Uiso   1.00
O537   O     0.88152   0.49552   0.31218   0.00000  Uiso   1.00
O538   O     0.78515   0.50448   0.18782   0.00000  Uiso   1.00
Zn539  Zn    0.76898   0.50600   0.25521   0.00000  Uiso   1.00
Zn540  Zn    0.89769   0.49400   0.24479   0.00000  Uiso   1.00
C541   C     0.18126   0.93084   0.24796   0.00000  Uiso   1.00
C542   C     0.17315   0.87416   0.41358   0.00000  Uiso   1.00
C543   C     0.16846   0.82704   0.11502   0.00000  Uiso   1.00
C544   C     0.16474   0.83098   0.38481   0.00000  Uiso   1.00
C545   C     0.20332   0.86213   0.09247   0.00000  Uiso   1.00
C546   C     0.14702   0.78568   0.40324   0.00000  Uiso   1.00
C547   C     0.20430   0.86079   0.04579   0.00000  Uiso   1.00
C548   C     0.14893   0.78279   0.44960   0.00000  Uiso   1.00
C549   C     0.17541   0.82099   0.02176   0.00000  Uiso   1.00
C550   C     0.17351   0.82321   0.47542   0.00000  Uiso   1.00
C551   C     0.14552   0.78111   0.04403   0.00000  Uiso   1.00
C552   C     0.15238   0.73548   0.24887   0.00000  Uiso   1.00
C553   C     0.19108   0.86818   0.45539   0.00000  Uiso   1.00
C554   C     0.22899   0.90176   0.02344   0.00000  Uiso   1.00
C555   C     0.12615   0.74102   0.47043   0.00000  Uiso   1.00
C556   C     0.10230   0.75401   0.11769   0.00000  Uiso   1.00
C557   C     0.13438   0.91432   0.41347   0.00000  Uiso   1.00
C558   C     0.23114   0.90571   0.11787   0.00000  Uiso   1.00
C559   C     0.28987   0.90851   0.11747   0.00000  Uiso   1.00
C560   C     0.31688   0.95408   0.13200   0.00000  Uiso   1.00
C561   C     0.28566   0.99708   0.14635   0.00000  Uiso   1.00
C562   C     0.22731   0.99412   0.14770   0.00000  Uiso   1.00
C563   C     0.21978   0.90794   0.47943   0.00000  Uiso   1.00
C564   C     0.19994   0.94800   0.13567   0.00000  Uiso   1.00
C565   C     0.11508   0.74757   0.37618   0.00000  Uiso   1.00
C566   C     0.13682   0.70012   0.36153   0.00000  Uiso   1.00
C567   C     0.10445   0.99727   0.33794   0.00000  Uiso   1.00
C568   C     0.05222   0.67625   0.32609   0.00000  Uiso   1.00
C569   C     0.03216   0.72506   0.33810   0.00000  Uiso   1.00
C570   C     0.06196   0.75953   0.36516   0.00000  Uiso   1.00
C571   C     0.24020   0.95608   0.45958   0.00000  Uiso   1.00
C572   C     0.26015   0.95552   0.41409   0.00000  Uiso   1.00
C573   C     0.27134   0.66745   0.39453   0.00000  Uiso   1.00
C574   C     0.12125   0.73963   0.01703   0.00000  Uiso   1.00
C575   C     0.26968   0.71392   0.42069   0.00000  Uiso   1.00
C576   C     0.25650   0.71478   0.46670   0.00000  Uiso   1.00
C577   C     0.24054   0.66978   0.48597   0.00000  Uiso   1.00
C578   C     0.09299   0.69171   0.03222   0.00000  Uiso   1.00
C579   C     0.04549   0.67197   0.01115   0.00000  Uiso   1.00
C580   C     0.03064   0.95366   0.01003   0.00000  Uiso   1.00
C581   C     0.05830   0.92189   0.03392   0.00000  Uiso   1.00
C582   C     0.10127   0.94183   0.05871   0.00000  Uiso   1.00
C583   C     0.12011   0.99259   0.05697   0.00000  Uiso   1.00
C584   C     0.24521   0.67035   0.25733   0.00000  Uiso   1.00
C585   C     0.18922   0.98466   0.24872   0.00000  Uiso   1.00
C586   C     0.09486   0.99446   0.22447   0.00000  Uiso   1.00
C587   C     0.14648   0.68120   0.24194   0.00000  Uiso   1.00
C588   C     0.16649   0.83467   0.33664   0.00000  Uiso   1.00
C589   C     0.16663   0.83083   0.16359   0.00000  Uiso   1.00
C590   C     0.13947   0.78681   0.09161   0.00000  Uiso   1.00
H591   H     0.25237   0.93148   0.04124   0.00000  Uiso   1.00
H592   H     0.17752   0.69054   0.36967   0.00000  Uiso   1.00
H593   H     0.11990   0.95956   0.32909   0.00000  Uiso   1.00
H594   H     0.02773   0.98109   0.30763   0.00000  Uiso   1.00
H595   H     0.32563   0.73595   0.32860   0.00000  Uiso   1.00
H596   H     0.04429   0.79608   0.37665   0.00000  Uiso   1.00
H597   H     0.26518   0.92031   0.39296   0.00000  Uiso   1.00
H598   H     0.27862   0.99926   0.35863   0.00000  Uiso   1.00
H599   H     0.27803   0.74927   0.40547   0.00000  Uiso   1.00
H600   H     0.25730   0.75045   0.48738   0.00000  Uiso   1.00
H601   H     0.22900   0.67230   0.02149   0.00000  Uiso   1.00
H602   H     0.11105   0.70863   0.44993   0.00000  Uiso   1.00
H603   H     0.02424   0.69544   0.49107   0.00000  Uiso   1.00
H604   H     0.33310   0.93749   0.48886   0.00000  Uiso   1.00
H605   H     0.04644   0.88185   0.03330   0.00000  Uiso   1.00
H606   H     0.12007   0.91686   0.07833   0.00000  Uiso   1.00
H607   H     0.15646   0.67268   0.07384   0.00000  Uiso   1.00
H608   H     0.00403   0.79306   0.21530   0.00000  Uiso   1.00
H609   H     0.32931   0.87358   0.28473   0.00000  Uiso   1.00
H610   H     0.31460   0.87616   0.10421   0.00000  Uiso   1.00
H611   H     0.02878   0.95640   0.13100   0.00000  Uiso   1.00
H612   H     0.30614   0.69930   0.15715   0.00000  Uiso   1.00
H613   H     0.20323   0.69418   0.15861   0.00000  Uiso   1.00
H614   H     0.15458   0.94613   0.13912   0.00000  Uiso   1.00
N615   N     0.31678   0.81932   0.23783   0.00000  Uiso   1.00
N616   N     0.01656   0.84735   0.26217   0.00000  Uiso   1.00
N617   N     0.07303   0.72822   0.13938   0.00000  Uiso   1.00
N618   N     0.10150   0.94542   0.41564   0.00000  Uiso   1.00
N619   N     0.28997   0.68595   0.26304   0.00000  Uiso   1.00
N620   N     0.05383   0.97780   0.21081   0.00000  Uiso   1.00
O621   O     0.12975   0.91286   0.25298   0.00000  Uiso   1.00
O622   O     0.20358   0.75381   0.24702   0.00000  Uiso   1.00
O623   O     0.22613   0.90387   0.24519   0.00000  Uiso   1.00
O624   O     0.10720   0.76279   0.25482   0.00000  Uiso   1.00
O625   O     0.11847   0.83784   0.31997   0.00000  Uiso   1.00
O626   O     0.21486   0.82883   0.18003   0.00000  Uiso   1.00
O627   O     0.21485   0.82885   0.31218   0.00000  Uiso   1.00
O628   O     0.11848   0.83781   0.18782   0.00000  Uiso   1.00
Zn629  Zn    0.10231   0.83933   0.25521   0.00000  Uiso   1.00
Zn630  Zn    0.23102   0.82734   0.24479   0.00000  Uiso   1.00
C631   C     0.51459   0.93084   0.24796   0.00000  Uiso   1.00
C632   C     0.50648   0.87416   0.41358   0.00000  Uiso   1.00
C633   C     0.50179   0.82704   0.11502   0.00000  Uiso   1.00
C634   C     0.49807   0.83098   0.38481   0.00000  Uiso   1.00
C635   C     0.53666   0.86213   0.09247   0.00000  Uiso   1.00
C636   C     0.48035   0.78568   0.40324   0.00000  Uiso   1.00
C637   C     0.53764   0.86079   0.04579   0.00000  Uiso   1.00
C638   C     0.48226   0.78279   0.44960   0.00000  Uiso   1.00
C639   C     0.50874   0.82099   0.02176   0.00000  Uiso   1.00
C640   C     0.50684   0.82321   0.47542   0.00000  Uiso   1.00
C641   C     0.47885   0.78111   0.04403   0.00000  Uiso   1.00
C642   C     0.48571   0.73548   0.24887   0.00000  Uiso   1.00
C643   C     0.52441   0.86818   0.45539   0.00000  Uiso   1.00
C644   C     0.56233   0.90176   0.02344   0.00000  Uiso   1.00
C645   C     0.45948   0.74102   0.47043   0.00000  Uiso   1.00
C646   C     0.43563   0.75401   0.11769   0.00000  Uiso   1.00
C647   C     0.46771   0.91432   0.41347   0.00000  Uiso   1.00
C648   C     0.56448   0.90571   0.11787   0.00000  Uiso   1.00
C649   C     0.62320   0.90851   0.11747   0.00000  Uiso   1.00
C650   C     0.65022   0.95408   0.13200   0.00000  Uiso   1.00
C651   C     0.61900   0.99708   0.14635   0.00000  Uiso   1.00
C652   C     0.56065   0.99412   0.14770   0.00000  Uiso   1.00
C653   C     0.55311   0.90794   0.47943   0.00000  Uiso   1.00
C654   C     0.53327   0.94800   0.13567   0.00000  Uiso   1.00
C655   C     0.44841   0.74757   0.37618   0.00000  Uiso   1.00
C656   C     0.47015   0.70012   0.36153   0.00000  Uiso   1.00
C657   C     0.43778   0.99727   0.33794   0.00000  Uiso   1.00
C658   C     0.38555   0.67625   0.32609   0.00000  Uiso   1.00
C659   C     0.36549   0.72506   0.33810   0.00000  Uiso   1.00
C660   C     0.39529   0.75953   0.36516   0.00000  Uiso   1.00
C661   C     0.57353   0.95608   0.45958   0.00000  Uiso   1.00
C662   C     0.59348   0.95552   0.41409   0.00000  Uiso   1.00
C663   C     0.60467   0.66745   0.39453   0.00000  Uiso   1.00
C664   C     0.45458   0.73963   0.01703   0.00000  Uiso   1.00
C665   C     0.60302   0.71392   0.42069   0.00000  Uiso   1.00
C666   C     0.58983   0.71478   0.46670   0.00000  Uiso   1.00
C667   C     0.57388   0.66978   0.48597   0.00000  Uiso   1.00
C668   C     0.42633   0.69171   0.03222   0.00000  Uiso   1.00
C669   C     0.37883   0.67197   0.01115   0.00000  Uiso   1.00
C670   C     0.36397   0.95366   0.01003   0.00000  Uiso   1.00
C671   C     0.39163   0.92189   0.03392   0.00000  Uiso   1.00
C672   C     0.43460   0.94183   0.05871   0.00000  Uiso   1.00
C673   C     0.45345   0.99259   0.05697   0.00000  Uiso   1.00
C674   C     0.57855   0.67035   0.25733   0.00000  Uiso   1.00
C675   C     0.52255   0.98466   0.24872   0.00000  Uiso   1.00
C676   C     0.42820   0.99446   0.22447   0.00000  Uiso   1.00
C677   C     0.47982   0.68120   0.24194   0.00000  Uiso   1.00
C678   C     0.49982   0.83467   0.33664   0.00000  Uiso   1.00
C679   C     0.49996   0.83083   0.16359   0.00000  Uiso   1.00
C680   C     0.47280   0.78681   0.09161   0.00000  Uiso   1.00
H681   H     0.58570   0.93148   0.04124   0.00000  Uiso   1.00
H682   H     0.51085   0.69054   0.36967   0.00000  Uiso   1.00
H683   H     0.45323   0.95956   0.32909   0.00000  Uiso   1.00
H684   H     0.36106   0.98109   0.30763   0.00000  Uiso   1.00
H685   H     0.65896   0.73595   0.32860   0.00000  Uiso   1.00
H686   H     0.37762   0.79608   0.37665   0.00000  Uiso   1.00
H687   H     0.59851   0.92031   0.39296   0.00000  Uiso   1.00
H688   H     0.61195   0.99926   0.35863   0.00000  Uiso   1.00
H689   H     0.61136   0.74927   0.40547   0.00000  Uiso   1.00
H690   H     0.59063   0.75045   0.48738   0.00000  Uiso   1.00
H691   H     0.56234   0.67230   0.02149   0.00000  Uiso   1.00
H692   H     0.44438   0.70863   0.44993   0.00000  Uiso   1.00
H693   H     0.35757   0.69544   0.49107   0.00000  Uiso   1.00
H694   H     0.66644   0.93749   0.48886   0.00000  Uiso   1.00
H695   H     0.37977   0.88185   0.03330   0.00000  Uiso   1.00
H696   H     0.45340   0.91686   0.07833   0.00000  Uiso   1.00
H697   H     0.48979   0.67268   0.07384   0.00000  Uiso   1.00
H698   H     0.33736   0.79306   0.21530   0.00000  Uiso   1.00
H699   H     0.66264   0.87358   0.28473   0.00000  Uiso   1.00
H700   H     0.64793   0.87616   0.10421   0.00000  Uiso   1.00
H701   H     0.36212   0.95640   0.13100   0.00000  Uiso   1.00
H702   H     0.63947   0.69930   0.15715   0.00000  Uiso   1.00
H703   H     0.53657   0.69418   0.15861   0.00000  Uiso   1.00
H704   H     0.48792   0.94613   0.13912   0.00000  Uiso   1.00
N705   N     0.65011   0.81932   0.23783   0.00000  Uiso   1.00
N706   N     0.34989   0.84735   0.26217   0.00000  Uiso   1.00
N707   N     0.40636   0.72822   0.13938   0.00000  Uiso   1.00
N708   N     0.43483   0.94542   0.41564   0.00000  Uiso   1.00
N709   N     0.62330   0.68595   0.26304   0.00000  Uiso   1.00
N710   N     0.38717   0.97780   0.21081   0.00000  Uiso   1.00
O711   O     0.46308   0.91286   0.25298   0.00000  Uiso   1.00
O712   O     0.53692   0.75381   0.24702   0.00000  Uiso   1.00
O713   O     0.55946   0.90387   0.24519   0.00000  Uiso   1.00
O714   O     0.44054   0.76279   0.25482   0.00000  Uiso   1.00
O715   O     0.45181   0.83784   0.31997   0.00000  Uiso   1.00
O716   O     0.54819   0.82883   0.18003   0.00000  Uiso   1.00
O717   O     0.54819   0.82885   0.31218   0.00000  Uiso   1.00
O718   O     0.45181   0.83781   0.18782   0.00000  Uiso   1.00
Zn719  Zn    0.43565   0.83933   0.25521   0.00000  Uiso   1.00
Zn720  Zn    0.56435   0.82734   0.24479   0.00000  Uiso   1.00
C721   C     0.84793   0.93084   0.24796   0.00000  Uiso   1.00
C722   C     0.83982   0.87416   0.41358   0.00000  Uiso   1.00
C723   C     0.83513   0.82704   0.11502   0.00000  Uiso   1.00
C724   C     0.83140   0.83098   0.38481   0.00000  Uiso   1.00
C725   C     0.86999   0.86213   0.09247   0.00000  Uiso   1.00
C726   C     0.81368   0.78568   0.40324   0.00000  Uiso   1.00
C727   C     0.87097   0.86079   0.04579   0.00000  Uiso   1.00
C728   C     0.81560   0.78279   0.44960   0.00000  Uiso   1.00
C729   C     0.84207   0.82099   0.02176   0.00000  Uiso   1.00
C730   C     0.84017   0.82321   0.47542   0.00000  Uiso   1.00
C731   C     0.81219   0.78111   0.04403   0.00000  Uiso   1.00
C732   C     0.81904   0.73548   0.24887   0.00000  Uiso   1.00
C733   C     0.85774   0.86818   0.45539   0.00000  Uiso   1.00
C734   C     0.89566   0.90176   0.02344   0.00000  Uiso   1.00
C735   C     0.79282   0.74102   0.47043   0.00000  Uiso   1.00
C736   C     0.76896   0.75401   0.11769   0.00000  Uiso   1.00
C737   C     0.80105   0.91432   0.41347   0.00000  Uiso   1.00
C738   C     0.89781   0.90571   0.11787   0.00000  Uiso   1.00
C739   C     0.95654   0.90851   0.11747   0.00000  Uiso   1.00
C740   C     0.98355   0.95408   0.13200   0.00000  Uiso   1.00
C741   C     0.95233   0.99708   0.14635   0.00000  Uiso   1.00
C742   C     0.89398   0.99412   0.14770   0.00000  Uiso   1.00
C743   C     0.88645   0.90794   0.47943   0.00000  Uiso   1.00
C744   C     0.86661   0.94800   0.13567   0.00000  Uiso   1.00
C745   C     0.78174   0.74757   0.37618   0.00000  Uiso   1.00
C746   C     0.80348   0.70012   0.36153   0.00000  Uiso   1.00
C747   C     0.77111   0.99727   0.33794   0.00000  Uiso   1.00
C748   C     0.71888   0.67625   0.32609   0.00000  Uiso   1.00
C749   C     0.69883   0.72506   0.33810   0.00000  Uiso   1.00
C750   C     0.72863   0.75953   0.36516   0.00000  Uiso   1.00
C751   C     0.90687   0.95608   0.45958   0.00000  Uiso   1.00
C752   C     0.92682   0.95552   0.41409   0.00000  Uiso   1.00
C753   C     0.93800   0.66745   0.39453   0.00000  Uiso   1.00
C754   C     0.78791   0.73963   0.01703   0.00000  Uiso   1.00
C755   C     0.93635   0.71392   0.42069   0.00000  Uiso   1.00
C756   C     0.92316   0.71478   0.46670   0.00000  Uiso   1.00
C757   C     0.90721   0.66978   0.48597   0.00000  Uiso   1.00
C758   C     0.75966   0.69171   0.03222   0.00000  Uiso   1.00
C759   C     0.71216   0.67197   0.01115   0.00000  Uiso   1.00
C760   C     0.69731   0.95366   0.01003   0.00000  Uiso   1.00
C761   C     0.72497   0.92189   0.03392   0.00000  Uiso   1.00
C762   C     0.76794   0.94183   0.05871   0.00000  Uiso   1.00
C763   C     0.78678   0.99259   0.05697   0.00000  Uiso   1.00
C764   C     0.91188   0.67035   0.25733   0.00000  Uiso   1.00
C765   C     0.85588   0.98466   0.24872   0.00000  Uiso   1.00
C766   C     0.76153   0.99446   0.22447   0.00000  Uiso   1.00
C767   C     0.81315   0.68120   0.24194   0.00000  Uiso   1.00
C768   C     0.83315   0.83467   0.33664   0.00000  Uiso   1.00
C769   C     0.83330   0.83083   0.16359   0.00000  Uiso   1.00
C770   C     0.80613   0.78681   0.09161   0.00000  Uiso   1.00
H771   H     0.91903   0.93148   0.04124   0.00000  Uiso   1.00
H772   H     0.84419   0.69054   0.36967   0.00000  Uiso   1.00
H773   H     0.78656   0.95956   0.32909   0.00000  Uiso   1.00
H774   H     0.69439   0.98109   0.30763   0.00000  Uiso   1.00
H775   H     0.99229   0.73595   0.32860   0.00000  Uiso   1.00
H776   H     0.71096   0.79608   0.37665   0.00000  Uiso   1.00
H777   H     0.93184   0.92031   0.39296   0.00000  Uiso   1.00
H778   H     0.94529   0.99926   0.35863   0.00000  Uiso   1.00
H779   H     0.94470   0.74927   0.40547   0.00000  Uiso   1.00
H780   H     0.92397   0.75045   0.48738   0.00000  Uiso   1.00
H781   H     0.89567   0.67230   0.02149   0.00000  Uiso   1.00
H782   H     0.77772   0.70863   0.44993   0.00000  Uiso   1.00
H783   H     0.69090   0.69544   0.49107   0.00000  Uiso   1.00
H784   H     0.99977   0.93749   0.48886   0.00000  Uiso   1.00
H785   H     0.71311   0.88185   0.03330   0.00000  Uiso   1.00
H786   H     0.78674   0.91686   0.07833   0.00000  Uiso   1.00
H787   H     0.82313   0.67268   0.07384   0.00000  Uiso   1.00
H788   H     0.67070   0.79306   0.21530   0.00000  Uiso   1.00
H789   H     0.99597   0.87358   0.28473   0.00000  Uiso   1.00
H790   H     0.98126   0.87616   0.10421   0.00000  Uiso   1.00
H791   H     0.69545   0.95640   0.13100   0.00000  Uiso   1.00
H792   H     0.97280   0.69930   0.15715   0.00000  Uiso   1.00
H793   H     0.86990   0.69418   0.15861   0.00000  Uiso   1.00
H794   H     0.82125   0.94613   0.13912   0.00000  Uiso   1.00
N795   N     0.98344   0.81932   0.23783   0.00000  Uiso   1.00
N796   N     0.68322   0.84735   0.26217   0.00000  Uiso   1.00
N797   N     0.73969   0.72822   0.13938   0.00000  Uiso   1.00
N798   N     0.76816   0.94542   0.41564   0.00000  Uiso   1.00
N799   N     0.95664   0.68595   0.26304   0.00000  Uiso   1.00
N800   N     0.72050   0.97780   0.21081   0.00000  Uiso   1.00
O801   O     0.79642   0.91286   0.25298   0.00000  Uiso   1.00
O802   O     0.87025   0.75381   0.24702   0.00000  Uiso   1.00
O803   O     0.89280   0.90387   0.24519   0.00000  Uiso   1.00
O804   O     0.77387   0.76279   0.25482   0.00000  Uiso   1.00
O805   O     0.78514   0.83784   0.31997   0.00000  Uiso   1.00
O806   O     0.88153   0.82883   0.18003   0.00000  Uiso   1.00
O807   O     0.88152   0.82885   0.31218   0.00000  Uiso   1.00
O808   O     0.78515   0.83781   0.18782   0.00000  Uiso   1.00
Zn809  Zn    0.76898   0.83933   0.25521   0.00000  Uiso   1.00
Zn810  Zn    0.89769   0.82734   0.24479   0.00000  Uiso   1.00
C811   C     0.18126   0.26417   0.74796   0.00000  Uiso   1.00
C812   C     0.17315   0.20750   0.91358   0.00000  Uiso   1.00
C813   C     0.16846   0.16037   0.61502   0.00000  Uiso   1.00
C814   C     0.16474   0.16431   0.88481   0.00000  Uiso   1.00
C815   C     0.20332   0.19546   0.59247   0.00000  Uiso   1.00
C816   C     0.14702   0.11902   0.90324   0.00000  Uiso   1.00
C817   C     0.20430   0.19412   0.54579   0.00000  Uiso   1.00
C818   C     0.14893   0.11613   0.94960   0.00000  Uiso   1.00
C819   C     0.17541   0.15432   0.52176   0.00000  Uiso   1.00
C820   C     0.17351   0.15655   0.97542   0.00000  Uiso   1.00
C821   C     0.14552   0.11444   0.54403   0.00000  Uiso   1.00
C822   C     0.15238   0.06882   0.74887   0.00000  Uiso   1.00
C823   C     0.19108   0.20151   0.95539   0.00000  Uiso   1.00
C824   C     0.22899   0.23509   0.52344   0.00000  Uiso   1.00
C825   C     0.12615   0.07435   0.97043   0.00000  Uiso   1.00
C826   C     0.10230   0.08735   0.61769   0.00000  Uiso   1.00
C827   C     0.13438   0.24766   0.91347   0.00000  Uiso   1.00
C828   C     0.23114   0.23904   0.61787   0.00000  Uiso   1.00
C829   C     0.28987   0.24184   0.61747   0.00000  Uiso   1.00
C830   C     0.31688   0.28742   0.63200   0.00000  Uiso   1.00
C831   C     0.28566   0.33042   0.64635   0.00000  Uiso   1.00
C832   C     0.22731   0.32746   0.64770   0.00000  Uiso   1.00
C833   C     0.21978   0.24127   0.97943   0.00000  Uiso   1.00
C834   C     0.19994   0.28133   0.63567   0.00000  Uiso   1.00
C835   C     0.11508   0.08090   0.87618   0.00000  Uiso   1.00
C836   C     0.13682   0.03345   0.86153   0.00000  Uiso   1.00
C837   C     0.10445   0.33061   0.83794   0.00000  Uiso   1.00
C838   C     0.05222   0.00959   0.82609   0.00000  Uiso   1.00
C839   C     0.03216   0.05839   0.83810   0.00000  Uiso   1.00
C840   C     0.06196   0.09286   0.86516   0.00000  Uiso   1.00
C841   C     0.24020   0.28942   0.95958   0.00000  Uiso   1.00
C842   C     0.26015   0.28885   0.91409   0.00000  Uiso   1.00
C843   C     0.27134   0.00078   0.89453   0.00000  Uiso   1.00
C844   C     0.12125   0.07297   0.51703   0.00000  Uiso   1.00
C845   C     0.26968   0.04725   0.92069   0.00000  Uiso   1.00
C846   C     0.25650   0.04811   0.96670   0.00000  Uiso   1.00
C847   C     0.24054   0.00311   0.98597   0.00000  Uiso   1.00
C848   C     0.09299   0.02504   0.53222   0.00000  Uiso   1.00
C849   C     0.04549   0.00530   0.51115   0.00000  Uiso   1.00
C850   C     0.03064   0.28700   0.51003   0.00000  Uiso   1.00
C851   C     0.05830   0.25522   0.53392   0.00000  Uiso   1.00
C852   C     0.10127   0.27516   0.55871   0.00000  Uiso   1.00
C853   C     0.12011   0.32592   0.55697   0.00000  Uiso   1.00
C854   C     0.24521   0.00369   0.75733   0.00000  Uiso   1.00
C855   C     0.18922   0.31799   0.74872   0.00000  Uiso   1.00
C856   C     0.09486   0.32779   0.72447   0.00000  Uiso   1.00
C857   C     0.14648   0.01453   0.74194   0.00000  Uiso   1.00
C858   C     0.16649   0.16800   0.83664   0.00000  Uiso   1.00
C859   C     0.16663   0.16417   0.66359   0.00000  Uiso   1.00
C860   C     0.13947   0.12014   0.59161   0.00000  Uiso   1.00
H861   H     0.25237   0.26482   0.54124   0.00000  Uiso   1.00
H862   H     0.17752   0.02387   0.86967   0.00000  Uiso   1.00
H863   H     0.11990   0.29289   0.82909   0.00000  Uiso   1.00
H864   H     0.02773   0.31442   0.80763   0.00000  Uiso   1.00
H865   H     0.32563   0.06929   0.82860   0.00000  Uiso   1.00
H866   H     0.04429   0.12941   0.87665   0.00000  Uiso   1.00
H867   H     0.26518   0.25365   0.89296   0.00000  Uiso   1.00
H868   H     0.27862   0.33260   0.85863   0.00000  Uiso   1.00
H869   H     0.27803   0.08261   0.90547   0.00000  Uiso   1.00
H870   H     0.25730   0.08378   0.98738   0.00000  Uiso   1.00
H871   H     0.22900   0.00564   0.52149   0.00000  Uiso   1.00
H872   H     0.11105   0.04196   0.94993   0.00000  Uiso   1.00
H873   H     0.02424   0.02877   0.99107   0.00000  Uiso   1.00
H874   H     0.33310   0.27083   0.98886   0.00000  Uiso   1.00
H875   H     0.04644   0.21519   0.53330   0.00000  Uiso   1.00
H876   H     0.12007   0.25020   0.57833   0.00000  Uiso   1.00
H877   H     0.15646   0.00601   0.57384   0.00000  Uiso   1.00
H878   H     0.00403   0.12639   0.71530   0.00000  Uiso   1.00
H879   H     0.32931   0.20692   0.78473   0.00000  Uiso   1.00
H880   H     0.31460   0.20949   0.60421   0.00000  Uiso   1.00
H881   H     0.02878   0.28973   0.63100   0.00000  Uiso   1.00
H882   H     0.30614   0.03264   0.65715   0.00000  Uiso   1.00
H883   H     0.20323   0.02752   0.65861   0.00000  Uiso   1.00
H884   H     0.15458   0.27946   0.63912   0.00000  Uiso   1.00
N885   N     0.31678   0.15265   0.73783   0.00000  Uiso   1.00
N886   N     0.01656   0.18068   0.76217   0.00000  Uiso   1.00
N887   N     0.07303   0.06155   0.63938   0.00000  Uiso   1.00
N888   N     0.10150   0.27876   0.91564   0.00000  Uiso   1.00
N889   N     0.28997   0.01929   0.76304   0.00000  Uiso   1.00
N890   N     0.05383   0.31114   0.71081   0.00000  Uiso   1.00
O891   O     0.12975   0.24619   0.75298   0.00000  Uiso   1.00
O892   O     0.20358   0.08714   0.74702   0.00000  Uiso   1.00
O893   O     0.22613   0.23721   0.74519   0.00000  Uiso   1.00
O894   O     0.10720   0.09613   0.75482   0.00000  Uiso   1.00
O895   O     0.11847   0.17117   0.81997   0.00000  Uiso   1.00
O896   O     0.21486   0.16216   0.68003   0.00000  Uiso   1.00
O897   O     0.21485   0.16219   0.81218   0.00000  Uiso   1.00
O898   O     0.11848   0.17115   0.68782   0.00000  Uiso   1.00
Zn899  Zn    0.10231   0.17266   0.75521   0.00000  Uiso   1.00
Zn900  Zn    0.23102   0.16067   0.74479   0.00000  Uiso   1.00
C901   C     0.51459   0.26417   0.74796   0.00000  Uiso   1.00
C902   C     0.50648   0.20750   0.91358   0.00000  Uiso   1.00
C903   C     0.50179   0.16037   0.61502   0.00000  Uiso   1.00
C904   C     0.49807   0.16431   0.88481   0.00000  Uiso   1.00
C905   C     0.53666   0.19546   0.59247   0.00000  Uiso   1.00
C906   C     0.48035   0.11902   0.90324   0.00000  Uiso   1.00
C907   C     0.53764   0.19412   0.54579   0.00000  Uiso   1.00
C908   C     0.48226   0.11613   0.94960   0.00000  Uiso   1.00
C909   C     0.50874   0.15432   0.52176   0.00000  Uiso   1.00
C910   C     0.50684   0.15655   0.97542   0.00000  Uiso   1.00
C911   C     0.47885   0.11444   0.54403   0.00000  Uiso   1.00
C912   C     0.48571   0.06882   0.74887   0.00000  Uiso   1.00
C913   C     0.52441   0.20151   0.95539   0.00000  Uiso   1.00
C914   C     0.56233   0.23509   0.52344   0.00000  Uiso   1.00
C915   C     0.45948   0.07435   0.97043   0.00000  Uiso   1.00
C916   C     0.43563   0.08735   0.61769   0.00000  Uiso   1.00
C917   C     0.46771   0.24766   0.91347   0.00000  Uiso   1.00
C918   C     0.56448   0.23904   0.61787   0.00000  Uiso   1.00
C919   C     0.62320   0.24184   0.61747   0.00000  Uiso   1.00
C920   C     0.65022   0.28742   0.63200   0.00000  Uiso   1.00
C921   C     0.61900   0.33042   0.64635   0.00000  Uiso   1.00
C922   C     0.56065   0.32746   0.64770   0.00000  Uiso   1.00
C923   C     0.55311   0.24127   0.97943   0.00000  Uiso   1.00
C924   C     0.53327   0.28133   0.63567   0.00000  Uiso   1.00
C925   C     0.44841   0.08090   0.87618   0.00000  Uiso   1.00
C926   C     0.47015   0.03345   0.86153   0.00000  Uiso   1.00
C927   C     0.43778   0.33061   0.83794   0.00000  Uiso   1.00
C928   C     0.38555   0.00959   0.82609   0.00000  Uiso   1.00
C929   C     0.36549   0.05839   0.83810   0.00000  Uiso   1.00
C930   C     0.39529   0.09286   0.86516   0.00000  Uiso   1.00
C931   C     0.57353   0.28942   0.95958   0.00000  Uiso   1.00
C932   C     0.59348   0.28885   0.91409   0.00000  Uiso   1.00
C933   C     0.60467   0.00078   0.89453   0.00000  Uiso   1.00
C934   C     0.45458   0.07297   0.51703   0.00000  Uiso   1.00
C935   C     0.60302   0.04725   0.92069   0.00000  Uiso   1.00
C936   C     0.58983   0.04811   0.96670   0.00000  Uiso   1.00
C937   C     0.57388   0.00311   0.98597   0.00000  Uiso   1.00
C938   C     0.42633   0.02504   0.53222   0.00000  Uiso   1.00
C939   C     0.37883   0.00530   0.51115   0.00000  Uiso   1.00
C940   C     0.36397   0.28700   0.51003   0.00000  Uiso   1.00
C941   C     0.39163   0.25522   0.53392   0.00000  Uiso   1.00
C942   C     0.43460   0.27516   0.55871   0.00000  Uiso   1.00
C943   C     0.45345   0.32592   0.55697   0.00000  Uiso   1.00
C944   C     0.57855   0.00369   0.75733   0.00000  Uiso   1.00
C945   C     0.52255   0.31799   0.74872   0.00000  Uiso   1.00
C946   C     0.42820   0.32779   0.72447   0.00000  Uiso   1.00
C947   C     0.47982   0.01453   0.74194   0.00000  Uiso   1.00
C948   C     0.49982   0.16800   0.83664   0.00000  Uiso   1.00
C949   C     0.49996   0.16417   0.66359   0.00000  Uiso   1.00
C950   C     0.47280   0.12014   0.59161   0.00000  Uiso   1.00
H951   H     0.58570   0.26482   0.54124   0.00000  Uiso   1.00
H952   H     0.51085   0.02387   0.86967   0.00000  Uiso   1.00
H953   H     0.45323   0.29289   0.82909   0.00000  Uiso   1.00
H954   H     0.36106   0.31442   0.80763   0.00000  Uiso   1.00
H955   H     0.65896   0.06929   0.82860   0.00000  Uiso   1.00
H956   H     0.37762   0.12941   0.87665   0.00000  Uiso   1.00
H957   H     0.59851   0.25365   0.89296   0.00000  Uiso   1.00
H958   H     0.61195   0.33260   0.85863   0.00000  Uiso   1.00
H959   H     0.61136   0.08261   0.90547   0.00000  Uiso   1.00
H960   H     0.59063   0.08378   0.98738   0.00000  Uiso   1.00
H961   H     0.56234   0.00564   0.52149   0.00000  Uiso   1.00
H962   H     0.44438   0.04196   0.94993   0.00000  Uiso   1.00
H963   H     0.35757   0.02877   0.99107   0.00000  Uiso   1.00
H964   H     0.66644   0.27083   0.98886   0.00000  Uiso   1.00
H965   H     0.37977   0.21519   0.53330   0.00000  Uiso   1.00
H966   H     0.45340   0.25020   0.57833   0.00000  Uiso   1.00
H967   H     0.48979   0.00601   0.57384   0.00000  Uiso   1.00
H968   H     0.33736   0.12639   0.71530   0.00000  Uiso   1.00
H969   H     0.66264   0.20692   0.78473   0.00000  Uiso   1.00
H970   H     0.64793   0.20949   0.60421   0.00000  Uiso   1.00
H971   H     0.36212   0.28973   0.63100   0.00000  Uiso   1.00
H972   H     0.63947   0.03264   0.65715   0.00000  Uiso   1.00
H973   H     0.53657   0.02752   0.65861   0.00000  Uiso   1.00
H974   H     0.48792   0.27946   0.63912   0.00000  Uiso   1.00
N975   N     0.65011   0.15265   0.73783   0.00000  Uiso   1.00
N976   N     0.34989   0.18068   0.76217   0.00000  Uiso   1.00
N977   N     0.40636   0.06155   0.63938   0.00000  Uiso   1.00
N978   N     0.43483   0.27876   0.91564   0.00000  Uiso   1.00
N979   N     0.62330   0.01929   0.76304   0.00000  Uiso   1.00
N980   N     0.38717   0.31114   0.71081   0.00000  Uiso   1.00
O981   O     0.46308   0.24619   0.75298   0.00000  Uiso   1.00
O982   O     0.53692   0.08714   0.74702   0.00000  Uiso   1.00
O983   O     0.55946   0.23721   0.74519   0.00000  Uiso   1.00
O984   O     0.44054   0.09613   0.75482   0.00000  Uiso   1.00
O985   O     0.45181   0.17117   0.81997   0.00000  Uiso   1.00
O986   O     0.54819   0.16216   0.68003   0.00000  Uiso   1.00
O987   O     0.54819   0.16219   0.81218   0.00000  Uiso   1.00
O988   O     0.45181   0.17115   0.68782   0.00000  Uiso   1.00
Zn989  Zn    0.43565   0.17266   0.75521   0.00000  Uiso   1.00
Zn990  Zn    0.56435   0.16067   0.74479   0.00000  Uiso   1.00
C991   C     0.84793   0.26417   0.74796   0.00000  Uiso   1.00
C992   C     0.83982   0.20750   0.91358   0.00000  Uiso   1.00
C993   C     0.83513   0.16037   0.61502   0.00000  Uiso   1.00
C994   C     0.83140   0.16431   0.88481   0.00000  Uiso   1.00
C995   C     0.86999   0.19546   0.59247   0.00000  Uiso   1.00
C996   C     0.81368   0.11902   0.90324   0.00000  Uiso   1.00
C997   C     0.87097   0.19412   0.54579   0.00000  Uiso   1.00
C998   C     0.81560   0.11613   0.94960   0.00000  Uiso   1.00
C999   C     0.84207   0.15432   0.52176   0.00000  Uiso   1.00
C1000  C     0.84017   0.15655   0.97542   0.00000  Uiso   1.00
C1001  C     0.81219   0.11444   0.54403   0.00000  Uiso   1.00
C1002  C     0.81904   0.06882   0.74887   0.00000  Uiso   1.00
C1003  C     0.85774   0.20151   0.95539   0.00000  Uiso   1.00
C1004  C     0.89566   0.23509   0.52344   0.00000  Uiso   1.00
C1005  C     0.79282   0.07435   0.97043   0.00000  Uiso   1.00
C1006  C     0.76896   0.08735   0.61769   0.00000  Uiso   1.00
C1007  C     0.80105   0.24766   0.91347   0.00000  Uiso   1.00
C1008  C     0.89781   0.23904   0.61787   0.00000  Uiso   1.00
C1009  C     0.95654   0.24184   0.61747   0.00000  Uiso   1.00
C1010  C     0.98355   0.28742   0.63200   0.00000  Uiso   1.00
C1011  C     0.95233   0.33042   0.64635   0.00000  Uiso   1.00
C1012  C     0.89398   0.32746   0.64770   0.00000  Uiso   1.00
C1013  C     0.88645   0.24127   0.97943   0.00000  Uiso   1.00
C1014  C     0.86661   0.28133   0.63567   0.00000  Uiso   1.00
C1015  C     0.78174   0.08090   0.87618   0.00000  Uiso   1.00
C1016  C     0.80348   0.03345   0.86153   0.00000  Uiso   1.00
C1017  C     0.77111   0.33061   0.83794   0.00000  Uiso   1.00
C1018  C     0.71888   0.00959   0.82609   0.00000  Uiso   1.00
C1019  C     0.69883   0.05839   0.83810   0.00000  Uiso   1.00
C1020  C     0.72863   0.09286   0.86516   0.00000  Uiso   1.00
C1021  C     0.90687   0.28942   0.95958   0.00000  Uiso   1.00
C1022  C     0.92682   0.28885   0.91409   0.00000  Uiso   1.00
C1023  C     0.93800   0.00078   0.89453   0.00000  Uiso   1.00
C1024  C     0.78791   0.07297   0.51703   0.00000  Uiso   1.00
C1025  C     0.93635   0.04725   0.92069   0.00000  Uiso   1.00
C1026  C     0.92316   0.04811   0.96670   0.00000  Uiso   1.00
C1027  C     0.90721   0.00311   0.98597   0.00000  Uiso   1.00
C1028  C     0.75966   0.02504   0.53222   0.00000  Uiso   1.00
C1029  C     0.71216   0.00530   0.51115   0.00000  Uiso   1.00
C1030  C     0.69731   0.28700   0.51003   0.00000  Uiso   1.00
C1031  C     0.72497   0.25522   0.53392   0.00000  Uiso   1.00
C1032  C     0.76794   0.27516   0.55871   0.00000  Uiso   1.00
C1033  C     0.78678   0.32592   0.55697   0.00000  Uiso   1.00
C1034  C     0.91188   0.00369   0.75733   0.00000  Uiso   1.00
C1035  C     0.85588   0.31799   0.74872   0.00000  Uiso   1.00
C1036  C     0.76153   0.32779   0.72447   0.00000  Uiso   1.00
C1037  C     0.81315   0.01453   0.74194   0.00000  Uiso   1.00
C1038  C     0.83315   0.16800   0.83664   0.00000  Uiso   1.00
C1039  C     0.83330   0.16417   0.66359   0.00000  Uiso   1.00
C1040  C     0.80613   0.12014   0.59161   0.00000  Uiso   1.00
H1041  H     0.91903   0.26482   0.54124   0.00000  Uiso   1.00
H1042  H     0.84419   0.02387   0.86967   0.00000  Uiso   1.00
H1043  H     0.78656   0.29289   0.82909   0.00000  Uiso   1.00
H1044  H     0.69439   0.31442   0.80763   0.00000  Uiso   1.00
H1045  H     0.99229   0.06929   0.82860   0.00000  Uiso   1.00
H1046  H     0.71096   0.12941   0.87665   0.00000  Uiso   1.00
H1047  H     0.93184   0.25365   0.89296   0.00000  Uiso   1.00
H1048  H     0.94529   0.33260   0.85863   0.00000  Uiso   1.00
H1049  H     0.94470   0.08261   0.90547   0.00000  Uiso   1.00
H1050  H     0.92397   0.08378   0.98738   0.00000  Uiso   1.00
H1051  H     0.89567   0.00564   0.52149   0.00000  Uiso   1.00
H1052  H     0.77772   0.04196   0.94993   0.00000  Uiso   1.00
H1053  H     0.69090   0.02877   0.99107   0.00000  Uiso   1.00
H1054  H     0.99977   0.27083   0.98886   0.00000  Uiso   1.00
H1055  H     0.71311   0.21519   0.53330   0.00000  Uiso   1.00
H1056  H     0.78674   0.25020   0.57833   0.00000  Uiso   1.00
H1057  H     0.82313   0.00601   0.57384   0.00000  Uiso   1.00
H1058  H     0.67070   0.12639   0.71530   0.00000  Uiso   1.00
H1059  H     0.99597   0.20692   0.78473   0.00000  Uiso   1.00
H1060  H     0.98126   0.20949   0.60421   0.00000  Uiso   1.00
H1061  H     0.69545   0.28973   0.63100   0.00000  Uiso   1.00
H1062  H     0.97280   0.03264   0.65715   0.00000  Uiso   1.00
H1063  H     0.86990   0.02752   0.65861   0.00000  Uiso   1.00
H1064  H     0.82125   0.27946   0.63912   0.00000  Uiso   1.00
N1065  N     0.98344   0.15265   0.73783   0.00000  Uiso   1.00
N1066  N     0.68322   0.18068   0.76217   0.00000  Uiso   1.00
N1067  N     0.73969   0.06155   0.63938   0.00000  Uiso   1.00
N1068  N     0.76816   0.27876   0.91564   0.00000  Uiso   1.00
N1069  N     0.95664   0.01929   0.76304   0.00000  Uiso   1.00
N1070  N     0.72050   0.31114   0.71081   0.00000  Uiso   1.00
O1071  O     0.79642   0.24619   0.75298   0.00000  Uiso   1.00
O1072  O     0.87025   0.08714   0.74702   0.00000  Uiso   1.00
O1073  O     0.89280   0.23721   0.74519   0.00000  Uiso   1.00
O1074  O     0.77387   0.09613   0.75482   0.00000  Uiso   1.00
O1075  O     0.78514   0.17117   0.81997   0.00000  Uiso   1.00
O1076  O     0.88153   0.16216   0.68003   0.00000  Uiso   1.00
O1077  O     0.88152   0.16219   0.81218   0.00000  Uiso   1.00
O1078  O     0.78515   0.17115   0.68782   0.00000  Uiso   1.00
Zn1079 Zn    0.76898   0.17266   0.75521   0.00000  Uiso   1.00
Zn1080 Zn    0.89769   0.16067   0.74479   0.00000  Uiso   1.00
C1081  C     0.18126   0.59751   0.74796   0.00000  Uiso   1.00
C1082  C     0.17315   0.54083   0.91358   0.00000  Uiso   1.00
C1083  C     0.16846   0.49370   0.61502   0.00000  Uiso   1.00
C1084  C     0.16474   0.49765   0.88481   0.00000  Uiso   1.00
C1085  C     0.20332   0.52880   0.59247   0.00000  Uiso   1.00
C1086  C     0.14702   0.45235   0.90324   0.00000  Uiso   1.00
C1087  C     0.20430   0.52746   0.54579   0.00000  Uiso   1.00
C1088  C     0.14893   0.44946   0.94960   0.00000  Uiso   1.00
C1089  C     0.17541   0.48765   0.52176   0.00000  Uiso   1.00
C1090  C     0.17351   0.48988   0.97542   0.00000  Uiso   1.00
C1091  C     0.14552   0.44777   0.54403   0.00000  Uiso   1.00
C1092  C     0.15238   0.40215   0.74887   0.00000  Uiso   1.00
C1093  C     0.19108   0.53485   0.95539   0.00000  Uiso   1.00
C1094  C     0.22899   0.56843   0.52344   0.00000  Uiso   1.00
C1095  C     0.12615   0.40768   0.97043   0.00000  Uiso   1.00
C1096  C     0.10230   0.42068   0.61769   0.00000  Uiso   1.00
C1097  C     0.13438   0.58099   0.91347   0.00000  Uiso   1.00
C1098  C     0.23114   0.57237   0.61787   0.00000  Uiso   1.00
C1099  C     0.28987   0.57518   0.61747   0.00000  Uiso   1.00
C1100  C     0.31688   0.62075   0.63200   0.00000  Uiso   1.00
C1101  C     0.28566   0.66375   0.64635   0.00000  Uiso   1.00
C1102  C     0.22731   0.66079   0.64770   0.00000  Uiso   1.00
C1103  C     0.21978   0.57461   0.97943   0.00000  Uiso   1.00
C1104  C     0.19994   0.61467   0.63567   0.00000  Uiso   1.00
C1105  C     0.11508   0.41424   0.87618   0.00000  Uiso   1.00
C1106  C     0.13682   0.36678   0.86153   0.00000  Uiso   1.00
C1107  C     0.10445   0.66394   0.83794   0.00000  Uiso   1.00
C1108  C     0.05222   0.34292   0.82609   0.00000  Uiso   1.00
C1109  C     0.03216   0.39173   0.83810   0.00000  Uiso   1.00
C1110  C     0.06196   0.42620   0.86516   0.00000  Uiso   1.00
C1111  C     0.24020   0.62275   0.95958   0.00000  Uiso   1.00
C1112  C     0.26015   0.62219   0.91409   0.00000  Uiso   1.00
C1113  C     0.27134   0.33411   0.89453   0.00000  Uiso   1.00
C1114  C     0.12125   0.40630   0.51703   0.00000  Uiso   1.00
C1115  C     0.26968   0.38059   0.92069   0.00000  Uiso   1.00
C1116  C     0.25650   0.38145   0.96670   0.00000  Uiso   1.00
C1117  C     0.24054   0.33645   0.98597   0.00000  Uiso   1.00
C1118  C     0.09299   0.35837   0.53222   0.00000  Uiso   1.00
C1119  C     0.04549   0.33863   0.51115   0.00000  Uiso   1.00
C1120  C     0.03064   0.62033   0.51003   0.00000  Uiso   1.00
C1121  C     0.05830   0.58856   0.53392   0.00000  Uiso   1.00
C1122  C     0.10127   0.60849   0.55871   0.00000  Uiso   1.00
C1123  C     0.12011   0.65926   0.55697   0.00000  Uiso   1.00
C1124  C     0.24521   0.33702   0.75733   0.00000  Uiso   1.00
C1125  C     0.18922   0.65132   0.74872   0.00000  Uiso   1.00
C1126  C     0.09486   0.66112   0.72447   0.00000  Uiso   1.00
C1127  C     0.14648   0.34787   0.74194   0.00000  Uiso   1.00
C1128  C     0.16649   0.50134   0.83664   0.00000  Uiso   1.00
C1129  C     0.16663   0.49750   0.66359   0.00000  Uiso   1.00
C1130  C     0.13947   0.45348   0.59161   0.00000  Uiso   1.00
H1131  H     0.25237   0.59815   0.54124   0.00000  Uiso   1.00
H1132  H     0.17752   0.35721   0.86967   0.00000  Uiso   1.00
H1133  H     0.11990   0.62623   0.82909   0.00000  Uiso   1.00
H1134  H     0.02773   0.64776   0.80763   0.00000  Uiso   1.00
H1135  H     0.32563   0.40262   0.82860   0.00000  Uiso   1.00
H1136  H     0.04429   0.46275   0.87665   0.00000  Uiso   1.00
H1137  H     0.26518   0.58698   0.89296   0.00000  Uiso   1.00
H1138  H     0.27862   0.66593   0.85863   0.00000  Uiso   1.00
H1139  H     0.27803   0.41594   0.90547   0.00000  Uiso   1.00
H1140  H     0.25730   0.41711   0.98738   0.00000  Uiso   1.00
H1141  H     0.22900   0.33897   0.52149   0.00000  Uiso   1.00
H1142  H     0.11105   0.37530   0.94993   0.00000  Uiso   1.00
H1143  H     0.02424   0.36211   0.99107   0.00000  Uiso   1.00
H1144  H     0.33310   0.60416   0.98886   0.00000  Uiso   1.00
H1145  H     0.04644   0.54852   0.53330   0.00000  Uiso   1.00
H1146  H     0.12007   0.58353   0.57833   0.00000  Uiso   1.00
H1147  H     0.15646   0.33934   0.57384   0.00000  Uiso   1.00
H1148  H     0.00403   0.45973   0.71530   0.00000  Uiso   1.00
H1149  H     0.32931   0.54025   0.78473   0.00000  Uiso   1.00
H1150  H     0.31460   0.54283   0.60421   0.00000  Uiso   1.00
H1151  H     0.02878   0.62306   0.63100   0.00000  Uiso   1.00
H1152  H     0.30614   0.36597   0.65715   0.00000  Uiso   1.00
H1153  H     0.20323   0.36085   0.65861   0.00000  Uiso   1.00
H1154  H     0.15458   0.61280   0.63912   0.00000  Uiso   1.00
N1155  N     0.31678   0.48598   0.73783   0.00000  Uiso   1.00
N1156  N     0.01656   0.51402   0.76217   0.00000  Uiso   1.00
N1157  N     0.07303   0.39488   0.63938   0.00000  Uiso   1.00
N1158  N     0.10150   0.61209   0.91564   0.00000  Uiso   1.00
N1159  N     0.28997   0.35262   0.76304   0.00000  Uiso   1.00
N1160  N     0.05383   0.64447   0.71081   0.00000  Uiso   1.00
O1161  O     0.12975   0.57952   0.75298   0.00000  Uiso   1.00
O1162  O     0.20358   0.42048   0.74702   0.00000  Uiso   1.00
O1163  O     0.22613   0.57054   0.74519   0.00000  Uiso   1.00
O1164  O     0.10720   0.42946   0.75482   0.00000  Uiso   1.00
O1165  O     0.11847   0.50450   0.81997   0.00000  Uiso   1.00
O1166  O     0.21486   0.49550   0.68003   0.00000  Uiso   1.00
O1167  O     0.21485   0.49552   0.81218   0.00000  Uiso   1.00
O1168  O     0.11848   0.50448   0.68782   0.00000  Uiso   1.00
Zn1169 Zn    0.10231   0.50600   0.75521   0.00000  Uiso   1.00
Zn1170 Zn    0.23102   0.49400   0.74479   0.00000  Uiso   1.00
C1171  C     0.51459   0.59751   0.74796   0.00000  Uiso   1.00
C1172  C     0.50648   0.54083   0.91358   0.00000  Uiso   1.00
C1173  C     0.50179   0.49370   0.61502   0.00000  Uiso   1.00
C1174  C     0.49807   0.49765   0.88481   0.00000  Uiso   1.00
C1175  C     0.53666   0.52880   0.59247   0.00000  Uiso   1.00
C1176  C     0.48035   0.45235   0.90324   0.00000  Uiso   1.00
C1177  C     0.53764   0.52746   0.54579   0.00000  Uiso   1.00
C1178  C     0.48226   0.44946   0.94960   0.00000  Uiso   1.00
C1179  C     0.50874   0.48765   0.52176   0.00000  Uiso   1.00
C1180  C     0.50684   0.48988   0.97542   0.00000  Uiso   1.00
C1181  C     0.47885   0.44777   0.54403   0.00000  Uiso   1.00
C1182  C     0.48571   0.40215   0.74887   0.00000  Uiso   1.00
C1183  C     0.52441   0.53485   0.95539   0.00000  Uiso   1.00
C1184  C     0.56233   0.56843   0.52344   0.00000  Uiso   1.00
C1185  C     0.45948   0.40768   0.97043   0.00000  Uiso   1.00
C1186  C     0.43563   0.42068   0.61769   0.00000  Uiso   1.00
C1187  C     0.46771   0.58099   0.91347   0.00000  Uiso   1.00
C1188  C     0.56448   0.57237   0.61787   0.00000  Uiso   1.00
C1189  C     0.62320   0.57518   0.61747   0.00000  Uiso   1.00
C1190  C     0.65022   0.62075   0.63200   0.00000  Uiso   1.00
C1191  C     0.61900   0.66375   0.64635   0.00000  Uiso   1.00
C1192  C     0.56065   0.66079   0.64770   0.00000  Uiso   1.00
C1193  C     0.55311   0.57461   0.97943   0.00000  Uiso   1.00
C1194  C     0.53327   0.61467   0.63567   0.00000  Uiso   1.00
C1195  C     0.44841   0.41424   0.87618   0.00000  Uiso   1.00
C1196  C     0.47015   0.36678   0.86153   0.00000  Uiso   1.00
C1197  C     0.43778   0.66394   0.83794   0.00000  Uiso   1.00
C1198  C     0.38555   0.34292   0.82609   0.00000  Uiso   1.00
C1199  C     0.36549   0.39173   0.83810   0.00000  Uiso   1.00
C1200  C     0.39529   0.42620   0.86516   0.00000  Uiso   1.00
C1201  C     0.57353   0.62275   0.95958   0.00000  Uiso   1.00
C1202  C     0.59348   0.62219   0.91409   0.00000  Uiso   1.00
C1203  C     0.60467   0.33411   0.89453   0.00000  Uiso   1.00
C1204  C     0.45458   0.40630   0.51703   0.00000  Uiso   1.00
C1205  C     0.60302   0.38059   0.92069   0.00000  Uiso   1.00
C1206  C     0.58983   0.38145   0.96670   0.00000  Uiso   1.00
C1207  C     0.57388   0.33645   0.98597   0.00000  Uiso   1.00
C1208  C     0.42633   0.35837   0.53222   0.00000  Uiso   1.00
C1209  C     0.37883   0.33863   0.51115   0.00000  Uiso   1.00
C1210  C     0.36397   0.62033   0.51003   0.00000  Uiso   1.00
C1211  C     0.39163   0.58856   0.53392   0.00000  Uiso   1.00
C1212  C     0.43460   0.60849   0.55871   0.00000  Uiso   1.00
C1213  C     0.45345   0.65926   0.55697   0.00000  Uiso   1.00
C1214  C     0.57855   0.33702   0.75733   0.00000  Uiso   1.00
C1215  C     0.52255   0.65132   0.74872   0.00000  Uiso   1.00
C1216  C     0.42820   0.66112   0.72447   0.00000  Uiso   1.00
C1217  C     0.47982   0.34787   0.74194   0.00000  Uiso   1.00
C1218  C     0.49982   0.50134   0.83664   0.00000  Uiso   1.00
C1219  C     0.49996   0.49750   0.66359   0.00000  Uiso   1.00
C1220  C     0.47280   0.45348   0.59161   0.00000  Uiso   1.00
H1221  H     0.58570   0.59815   0.54124   0.00000  Uiso   1.00
H1222  H     0.51085   0.35721   0.86967   0.00000  Uiso   1.00
H1223  H     0.45323   0.62623   0.82909   0.00000  Uiso   1.00
H1224  H     0.36106   0.64776   0.80763   0.00000  Uiso   1.00
H1225  H     0.65896   0.40262   0.82860   0.00000  Uiso   1.00
H1226  H     0.37762   0.46275   0.87665   0.00000  Uiso   1.00
H1227  H     0.59851   0.58698   0.89296   0.00000  Uiso   1.00
H1228  H     0.61195   0.66593   0.85863   0.00000  Uiso   1.00
H1229  H     0.61136   0.41594   0.90547   0.00000  Uiso   1.00
H1230  H     0.59063   0.41711   0.98738   0.00000  Uiso   1.00
H1231  H     0.56234   0.33897   0.52149   0.00000  Uiso   1.00
H1232  H     0.44438   0.37530   0.94993   0.00000  Uiso   1.00
H1233  H     0.35757   0.36211   0.99107   0.00000  Uiso   1.00
H1234  H     0.66644   0.60416   0.98886   0.00000  Uiso   1.00
H1235  H     0.37977   0.54852   0.53330   0.00000  Uiso   1.00
H1236  H     0.45340   0.58353   0.57833   0.00000  Uiso   1.00
H1237  H     0.48979   0.33934   0.57384   0.00000  Uiso   1.00
H1238  H     0.33736   0.45973   0.71530   0.00000  Uiso   1.00
H1239  H     0.66264   0.54025   0.78473   0.00000  Uiso   1.00
H1240  H     0.64793   0.54283   0.60421   0.00000  Uiso   1.00
H1241  H     0.36212   0.62306   0.63100   0.00000  Uiso   1.00
H1242  H     0.63947   0.36597   0.65715   0.00000  Uiso   1.00
H1243  H     0.53657   0.36085   0.65861   0.00000  Uiso   1.00
H1244  H     0.48792   0.61280   0.63912   0.00000  Uiso   1.00
N1245  N     0.65011   0.48598   0.73783   0.00000  Uiso   1.00
N1246  N     0.34989   0.51402   0.76217   0.00000  Uiso   1.00
N1247  N     0.40636   0.39488   0.63938   0.00000  Uiso   1.00
N1248  N     0.43483   0.61209   0.91564   0.00000  Uiso   1.00
N1249  N     0.62330   0.35262   0.76304   0.00000  Uiso   1.00
N1250  N     0.38717   0.64447   0.71081   0.00000  Uiso   1.00
O1251  O     0.46308   0.57952   0.75298   0.00000  Uiso   1.00
O1252  O     0.53692   0.42048   0.74702   0.00000  Uiso   1.00
O1253  O     0.55946   0.57054   0.74519   0.00000  Uiso   1.00
O1254  O     0.44054   0.42946   0.75482   0.00000  Uiso   1.00
O1255  O     0.45181   0.50450   0.81997   0.00000  Uiso   1.00
O1256  O     0.54819   0.49550   0.68003   0.00000  Uiso   1.00
O1257  O     0.54819   0.49552   0.81218   0.00000  Uiso   1.00
O1258  O     0.45181   0.50448   0.68782   0.00000  Uiso   1.00
Zn1259 Zn    0.43565   0.50600   0.75521   0.00000  Uiso   1.00
Zn1260 Zn    0.56435   0.49400   0.74479   0.00000  Uiso   1.00
C1261  C     0.84793   0.59751   0.74796   0.00000  Uiso   1.00
C1262  C     0.83982   0.54083   0.91358   0.00000  Uiso   1.00
C1263  C     0.83513   0.49370   0.61502   0.00000  Uiso   1.00
C1264  C     0.83140   0.49765   0.88481   0.00000  Uiso   1.00
C1265  C     0.86999   0.52880   0.59247   0.00000  Uiso   1.00
C1266  C     0.81368   0.45235   0.90324   0.00000  Uiso   1.00
C1267  C     0.87097   0.52746   0.54579   0.00000  Uiso   1.00
C1268  C     0.81560   0.44946   0.94960   0.00000  Uiso   1.00
C1269  C     0.84207   0.48765   0.52176   0.00000  Uiso   1.00
C1270  C     0.84017   0.48988   0.97542   0.00000  Uiso   1.00
C1271  C     0.81219   0.44777   0.54403   0.00000  Uiso   1.00
C1272  C     0.81904   0.40215   0.74887   0.00000  Uiso   1.00
C1273  C     0.85774   0.53485   0.95539   0.00000  Uiso   1.00
C1274  C     0.89566   0.56843   0.52344   0.00000  Uiso   1.00
C1275  C     0.79282   0.40768   0.97043   0.00000  Uiso   1.00
C1276  C     0.76896   0.42068   0.61769   0.00000  Uiso   1.00
C1277  C     0.80105   0.58099   0.91347   0.00000  Uiso   1.00
C1278  C     0.89781   0.57237   0.61787   0.00000  Uiso   1.00
C1279  C     0.95654   0.57518   0.61747   0.00000  Uiso   1.00
C1280  C     0.98355   0.62075   0.63200   0.00000  Uiso   1.00
C1281  C     0.95233   0.66375   0.64635   0.00000  Uiso   1.00
C1282  C     0.89398   0.66079   0.64770   0.00000  Uiso   1.00
C1283  C     0.88645   0.57461   0.97943   0.00000  Uiso   1.00
C1284  C     0.86661   0.61467   0.63567   0.00000  Uiso   1.00
C1285  C     0.78174   0.41424   0.87618   0.00000  Uiso   1.00
C1286  C     0.80348   0.36678   0.86153   0.00000  Uiso   1.00
C1287  C     0.77111   0.66394   0.83794   0.00000  Uiso   1.00
C1288  C     0.71888   0.34292   0.82609   0.00000  Uiso   1.00
C1289  C     0.69883   0.39173   0.83810   0.00000  Uiso   1.00
C1290  C     0.72863   0.42620   0.86516   0.00000  Uiso   1.00
C1291  C     0.90687   0.62275   0.95958   0.00000  Uiso   1.00
C1292  C     0.92682   0.62219   0.91409   0.00000  Uiso   1.00
C1293  C     0.93800   0.33411   0.89453   0.00000  Uiso   1.00
C1294  C     0.78791   0.40630   0.51703   0.00000  Uiso   1.00
C1295  C     0.93635   0.38059   0.92069   0.00000  Uiso   1.00
C1296  C     0.92316   0.38145   0.96670   0.00000  Uiso   1.00
C1297  C     0.90721   0.33645   0.98597   0.00000  Uiso   1.00
C1298  C     0.75966   0.35837   0.53222   0.00000  Uiso   1.00
C1299  C     0.71216   0.33863   0.51115   0.00000  Uiso   1.00
C1300  C     0.69731   0.62033   0.51003   0.00000  Uiso   1.00
C1301  C     0.72497   0.58856   0.53392   0.00000  Uiso   1.00
C1302  C     0.76794   0.60849   0.55871   0.00000  Uiso   1.00
C1303  C     0.78678   0.65926   0.55697   0.00000  Uiso   1.00
C1304  C     0.91188   0.33702   0.75733   0.00000  Uiso   1.00
C1305  C     0.85588   0.65132   0.74872   0.00000  Uiso   1.00
C1306  C     0.76153   0.66112   0.72447   0.00000  Uiso   1.00
C1307  C     0.81315   0.34787   0.74194   0.00000  Uiso   1.00
C1308  C     0.83315   0.50134   0.83664   0.00000  Uiso   1.00
C1309  C     0.83330   0.49750   0.66359   0.00000  Uiso   1.00
C1310  C     0.80613   0.45348   0.59161   0.00000  Uiso   1.00
H1311  H     0.91903   0.59815   0.54124   0.00000  Uiso   1.00
H1312  H     0.84419   0.35721   0.86967   0.00000  Uiso   1.00
H1313  H     0.78656   0.62623   0.82909   0.00000  Uiso   1.00
H1314  H     0.69439   0.64776   0.80763   0.00000  Uiso   1.00
H1315  H     0.99229   0.40262   0.82860   0.00000  Uiso   1.00
H1316  H     0.71096   0.46275   0.87665   0.00000  Uiso   1.00
H1317  H     0.93184   0.58698   0.89296   0.00000  Uiso   1.00
H1318  H     0.94529   0.66593   0.85863   0.00000  Uiso   1.00
H1319  H     0.94470   0.41594   0.90547   0.00000  Uiso   1.00
H1320  H     0.92397   0.41711   0.98738   0.00000  Uiso   1.00
H1321  H     0.89567   0.33897   0.52149   0.00000  Uiso   1.00
H1322  H     0.77772   0.37530   0.94993   0.00000  Uiso   1.00
H1323  H     0.69090   0.36211   0.99107   0.00000  Uiso   1.00
H1324  H     0.99977   0.60416   0.98886   0.00000  Uiso   1.00
H1325  H     0.71311   0.54852   0.53330   0.00000  Uiso   1.00
H1326  H     0.78674   0.58353   0.57833   0.00000  Uiso   1.00
H1327  H     0.82313   0.33934   0.57384   0.00000  Uiso   1.00
H1328  H     0.67070   0.45973   0.71530   0.00000  Uiso   1.00
H1329  H     0.99597   0.54025   0.78473   0.00000  Uiso   1.00
H1330  H     0.98126   0.54283   0.60421   0.00000  Uiso   1.00
H1331  H     0.69545   0.62306   0.63100   0.00000  Uiso   1.00
H1332  H     0.97280   0.36597   0.65715   0.00000  Uiso   1.00
H1333  H     0.86990   0.36085   0.65861   0.00000  Uiso   1.00
H1334  H     0.82125   0.61280   0.63912   0.00000  Uiso   1.00
N1335  N     0.98344   0.48598   0.73783   0.00000  Uiso   1.00
N1336  N     0.68322   0.51402   0.76217   0.00000  Uiso   1.00
N1337  N     0.73969   0.39488   0.63938   0.00000  Uiso   1.00
N1338  N     0.76816   0.61209   0.91564   0.00000  Uiso   1.00
N1339  N     0.95664   0.35262   0.76304   0.00000  Uiso   1.00
N1340  N     0.72050   0.64447   0.71081   0.00000  Uiso   1.00
O1341  O     0.79642   0.57952   0.75298   0.00000  Uiso   1.00
O1342  O     0.87025   0.42048   0.74702   0.00000  Uiso   1.00
O1343  O     0.89280   0.57054   0.74519   0.00000  Uiso   1.00
O1344  O     0.77387   0.42946   0.75482   0.00000  Uiso   1.00
O1345  O     0.78514   0.50450   0.81997   0.00000  Uiso   1.00
O1346  O     0.88153   0.49550   0.68003   0.00000  Uiso   1.00
O1347  O     0.88152   0.49552   0.81218   0.00000  Uiso   1.00
O1348  O     0.78515   0.50448   0.68782   0.00000  Uiso   1.00
Zn1349 Zn    0.76898   0.50600   0.75521   0.00000  Uiso   1.00
Zn1350 Zn    0.89769   0.49400   0.74479   0.00000  Uiso   1.00
C1351  C     0.18126   0.93084   0.74796   0.00000  Uiso   1.00
C1352  C     0.17315   0.87416   0.91358   0.00000  Uiso   1.00
C1353  C     0.16846   0.82704   0.61502   0.00000  Uiso   1.00
C1354  C     0.16474   0.83098   0.88481   0.00000  Uiso   1.00
C1355  C     0.20332   0.86213   0.59247   0.00000  Uiso   1.00
C1356  C     0.14702   0.78568   0.90324   0.00000  Uiso   1.00
C1357  C     0.20430   0.86079   0.54579   0.00000  Uiso   1.00
C1358  C     0.14893   0.78279   0.94960   0.00000  Uiso   1.00
C1359  C     0.17541   0.82099   0.52176   0.00000  Uiso   1.00
C1360  C     0.17351   0.82321   0.97542   0.00000  Uiso   1.00
C1361  C     0.14552   0.78111   0.54403   0.00000  Uiso   1.00
C1362  C     0.15238   0.73548   0.74887   0.00000  Uiso   1.00
C1363  C     0.19108   0.86818   0.95539   0.00000  Uiso   1.00
C1364  C     0.22899   0.90176   0.52344   0.00000  Uiso   1.00
C1365  C     0.12615   0.74102   0.97043   0.00000  Uiso   1.00
C1366  C     0.10230   0.75401   0.61769   0.00000  Uiso   1.00
C1367  C     0.13438   0.91432   0.91347   0.00000  Uiso   1.00
C1368  C     0.23114   0.90571   0.61787   0.00000  Uiso   1.00
C1369  C     0.28987   0.90851   0.61747   0.00000  Uiso   1.00
C1370  C     0.31688   0.95408   0.63200   0.00000  Uiso   1.00
C1371  C     0.28566   0.99708   0.64635   0.00000  Uiso   1.00
C1372  C     0.22731   0.99412   0.64770   0.00000  Uiso   1.00
C1373  C     0.21978   0.90794   0.97943   0.00000  Uiso   1.00
C1374  C     0.19994   0.94800   0.63567   0.00000  Uiso   1.00
C1375  C     0.11508   0.74757   0.87618   0.00000  Uiso   1.00
C1376  C     0.13682   0.70012   0.86153   0.00000  Uiso   1.00
C1377  C     0.10445   0.99727   0.83794   0.00000  Uiso   1.00
C1378  C     0.05222   0.67625   0.82609   0.00000  Uiso   1.00
C1379  C     0.03216   0.72506   0.83810   0.00000  Uiso   1.00
C1380  C     0.06196   0.75953   0.86516   0.00000  Uiso   1.00
C1381  C     0.24020   0.95608   0.95958   0.00000  Uiso   1.00
C1382  C     0.26015   0.95552   0.91409   0.00000  Uiso   1.00
C1383  C     0.27134   0.66745   0.89453   0.00000  Uiso   1.00
C1384  C     0.12125   0.73963   0.51703   0.00000  Uiso   1.00
C1385  C     0.26968   0.71392   0.92069   0.00000  Uiso   1.00
C1386  C     0.25650   0.71478   0.96670   0.00000  Uiso   1.00
C1387  C     0.24054   0.66978   0.98597   0.00000  Uiso   1.00
C1388  C     0.09299   0.69171   0.53222   0.00000  Uiso   1.00
C1389  C     0.04549   0.67197   0.51115   0.00000  Uiso   1.00
C1390  C     0.03064   0.95366   0.51003   0.00000  Uiso   1.00
C1391  C     0.05830   0.92189   0.53392   0.00000  Uiso   1.00
C1392  C     0.10127   0.94183   0.55871   0.00000  Uiso   1.00
C1393  C     0.12011   0.99259   0.55697   0.00000  Uiso   1.00
C1394  C     0.24521   0.67035   0.75733   0.00000  Uiso   1.00
C1395  C     0.18922   0.98466   0.74872   0.00000  Uiso   1.00
C1396  C     0.09486   0.99446   0.72447   0.00000  Uiso   1.00
C1397  C     0.14648   0.68120   0.74194   0.00000  Uiso   1.00
C1398  C     0.16649   0.83467   0.83664   0.00000  Uiso   1.00
C1399  C     0.16663   0.83083   0.66359   0.00000  Uiso   1.00
C1400  C     0.13947   0.78681   0.59161   0.00000  Uiso   1.00
H1401  H     0.25237   0.93148   0.54124   0.00000  Uiso   1.00
H1402  H     0.17752   0.69054   0.86967   0.00000  Uiso   1.00
H1403  H     0.11990   0.95956   0.82909   0.00000  Uiso   1.00
H1404  H     0.02773   0.98109   0.80763   0.00000  Uiso   1.00
H1405  H     0.32563   0.73595   0.82860   0.00000  Uiso   1.00
H1406  H     0.04429   0.79608   0.87665   0.00000  Uiso   1.00
H1407  H     0.26518   0.92031   0.89296   0.00000  Uiso   1.00
H1408  H     0.27862   0.99926   0.85863   0.00000  Uiso   1.00
H1409  H     0.27803   0.74927   0.90547   0.00000  Uiso   1.00
H1410  H     0.25730   0.75045   0.98738   0.00000  Uiso   1.00
H1411  H     0.22900   0.67230   0.52149   0.00000  Uiso   1.00
H1412  H     0.11105   0.70863   0.94993   0.00000  Uiso   1.00
H1413  H     0.02424   0.69544   0.99107   0.00000  Uiso   1.00
H1414  H     0.33310   0.93749   0.98886   0.00000  Uiso   1.00
H1415  H     0.04644   0.88185   0.53330   0.00000  Uiso   1.00
H1416  H     0.12007   0.91686   0.57833   0.00000  Uiso   1.00
H1417  H     0.15646   0.67268   0.57384   0.00000  Uiso   1.00
H1418  H     0.00403   0.79306   0.71530   0.00000  Uiso   1.00
H1419  H     0.32931   0.87358   0.78473   0.00000  Uiso   1.00
H1420  H     0.31460   0.87616   0.60421   0.00000  Uiso   1.00
H1421  H     0.02878   0.95640   0.63100   0.00000  Uiso   1.00
H1422  H     0.30614   0.69930   0.65715   0.00000  Uiso   1.00
H1423  H     0.20323   0.69418   0.65861   0.00000  Uiso   1.00
H1424  H     0.15458   0.94613   0.63912   0.00000  Uiso   1.00
N1425  N     0.31678   0.81932   0.73783   0.00000  Uiso   1.00
N1426  N     0.01656   0.84735   0.76217   0.00000  Uiso   1.00
N1427  N     0.07303   0.72822   0.63938   0.00000  Uiso   1.00
N1428  N     0.10150   0.94542   0.91564   0.00000  Uiso   1.00
N1429  N     0.28997   0.68595   0.76304   0.00000  Uiso   1.00
N1430  N     0.05383   0.97780   0.71081   0.00000  Uiso   1.00
O1431  O     0.12975   0.91286   0.75298   0.00000  Uiso   1.00
O1432  O     0.20358   0.75381   0.74702   0.00000  Uiso   1.00
O1433  O     0.22613   0.90387   0.74519   0.00000  Uiso   1.00
O1434  O     0.10720   0.76279   0.75482   0.00000  Uiso   1.00
O1435  O     0.11847   0.83784   0.81997   0.00000  Uiso   1.00
O1436  O     0.21486   0.82883   0.68003   0.00000  Uiso   1.00
O1437  O     0.21485   0.82885   0.81218   0.00000  Uiso   1.00
O1438  O     0.11848   0.83781   0.68782   0.00000  Uiso   1.00
Zn1439 Zn    0.10231   0.83933   0.75521   0.00000  Uiso   1.00
Zn1440 Zn    0.23102   0.82734   0.74479   0.00000  Uiso   1.00
C1441  C     0.51459   0.93084   0.74796   0.00000  Uiso   1.00
C1442  C     0.50648   0.87416   0.91358   0.00000  Uiso   1.00
C1443  C     0.50179   0.82704   0.61502   0.00000  Uiso   1.00
C1444  C     0.49807   0.83098   0.88481   0.00000  Uiso   1.00
C1445  C     0.53666   0.86213   0.59247   0.00000  Uiso   1.00
C1446  C     0.48035   0.78568   0.90324   0.00000  Uiso   1.00
C1447  C     0.53764   0.86079   0.54579   0.00000  Uiso   1.00
C1448  C     0.48226   0.78279   0.94960   0.00000  Uiso   1.00
C1449  C     0.50874   0.82099   0.52176   0.00000  Uiso   1.00
C1450  C     0.50684   0.82321   0.97542   0.00000  Uiso   1.00
C1451  C     0.47885   0.78111   0.54403   0.00000  Uiso   1.00
C1452  C     0.48571   0.73548   0.74887   0.00000  Uiso   1.00
C1453  C     0.52441   0.86818   0.95539   0.00000  Uiso   1.00
C1454  C     0.56233   0.90176   0.52344   0.00000  Uiso   1.00
C1455  C     0.45948   0.74102   0.97043   0.00000  Uiso   1.00
C1456  C     0.43563   0.75401   0.61769   0.00000  Uiso   1.00
C1457  C     0.46771   0.91432   0.91347   0.00000  Uiso   1.00
C1458  C     0.56448   0.90571   0.61787   0.00000  Uiso   1.00
C1459  C     0.62320   0.90851   0.61747   0.00000  Uiso   1.00
C1460  C     0.65022   0.95408   0.63200   0.00000  Uiso   1.00
C1461  C     0.61900   0.99708   0.64635   0.00000  Uiso   1.00
C1462  C     0.56065   0.99412   0.64770   0.00000  Uiso   1.00
C1463  C     0.55311   0.90794   0.97943   0.00000  Uiso   1.00
C1464  C     0.53327   0.94800   0.63567   0.00000  Uiso   1.00
C1465  C     0.44841   0.74757   0.87618   0.00000  Uiso   1.00
C1466  C     0.47015   0.70012   0.86153   0.00000  Uiso   1.00
C1467  C     0.43778   0.99727   0.83794   0.00000  Uiso   1.00
C1468  C     0.38555   0.67625   0.82609   0.00000  Uiso   1.00
C1469  C     0.36549   0.72506   0.83810   0.00000  Uiso   1.00
C1470  C     0.39529   0.75953   0.86516   0.00000  Uiso   1.00
C1471  C     0.57353   0.95608   0.95958   0.00000  Uiso   1.00
C1472  C     0.59348   0.95552   0.91409   0.00000  Uiso   1.00
C1473  C     0.60467   0.66745   0.89453   0.00000  Uiso   1.00
C1474  C     0.45458   0.73963   0.51703   0.00000  Uiso   1.00
C1475  C     0.60302   0.71392   0.92069   0.00000  Uiso   1.00
C1476  C     0.58983   0.71478   0.96670   0.00000  Uiso   1.00
C1477  C     0.57388   0.66978   0.98597   0.00000  Uiso   1.00
C1478  C     0.42633   0.69171   0.53222   0.00000  Uiso   1.00
C1479  C     0.37883   0.67197   0.51115   0.00000  Uiso   1.00
C1480  C     0.36397   0.95366   0.51003   0.00000  Uiso   1.00
C1481  C     0.39163   0.92189   0.53392   0.00000  Uiso   1.00
C1482  C     0.43460   0.94183   0.55871   0.00000  Uiso   1.00
C1483  C     0.45345   0.99259   0.55697   0.00000  Uiso   1.00
C1484  C     0.57855   0.67035   0.75733   0.00000  Uiso   1.00
C1485  C     0.52255   0.98466   0.74872   0.00000  Uiso   1.00
C1486  C     0.42820   0.99446   0.72447   0.00000  Uiso   1.00
C1487  C     0.47982   0.68120   0.74194   0.00000  Uiso   1.00
C1488  C     0.49982   0.83467   0.83664   0.00000  Uiso   1.00
C1489  C     0.49996   0.83083   0.66359   0.00000  Uiso   1.00
C1490  C     0.47280   0.78681   0.59161   0.00000  Uiso   1.00
H1491  H     0.58570   0.93148   0.54124   0.00000  Uiso   1.00
H1492  H     0.51085   0.69054   0.86967   0.00000  Uiso   1.00
H1493  H     0.45323   0.95956   0.82909   0.00000  Uiso   1.00
H1494  H     0.36106   0.98109   0.80763   0.00000  Uiso   1.00
H1495  H     0.65896   0.73595   0.82860   0.00000  Uiso   1.00
H1496  H     0.37762   0.79608   0.87665   0.00000  Uiso   1.00
H1497  H     0.59851   0.92031   0.89296   0.00000  Uiso   1.00
H1498  H     0.61195   0.99926   0.85863   0.00000  Uiso   1.00
H1499  H     0.61136   0.74927   0.90547   0.00000  Uiso   1.00
H1500  H     0.59063   0.75045   0.98738   0.00000  Uiso   1.00
H1501  H     0.56234   0.67230   0.52149   0.00000  Uiso   1.00
H1502  H     0.44438   0.70863   0.94993   0.00000  Uiso   1.00
H1503  H     0.35757   0.69544   0.99107   0.00000  Uiso   1.00
H1504  H     0.66644   0.93749   0.98886   0.00000  Uiso   1.00
H1505  H     0.37977   0.88185   0.53330   0.00000  Uiso   1.00
H1506  H     0.45340   0.91686   0.57833   0.00000  Uiso   1.00
H1507  H     0.48979   0.67268   0.57384   0.00000  Uiso   1.00
H1508  H     0.33736   0.79306   0.71530   0.00000  Uiso   1.00
H1509  H     0.66264   0.87358   0.78473   0.00000  Uiso   1.00
H1510  H     0.64793   0.87616   0.60421   0.00000  Uiso   1.00
H1511  H     0.36212   0.95640   0.63100   0.00000  Uiso   1.00
H1512  H     0.63947   0.69930   0.65715   0.00000  Uiso   1.00
H1513  H     0.53657   0.69418   0.65861   0.00000  Uiso   1.00
H1514  H     0.48792   0.94613   0.63912   0.00000  Uiso   1.00
N1515  N     0.65011   0.81932   0.73783   0.00000  Uiso   1.00
N1516  N     0.34989   0.84735   0.76217   0.00000  Uiso   1.00
N1517  N     0.40636   0.72822   0.63938   0.00000  Uiso   1.00
N1518  N     0.43483   0.94542   0.91564   0.00000  Uiso   1.00
N1519  N     0.62330   0.68595   0.76304   0.00000  Uiso   1.00
N1520  N     0.38717   0.97780   0.71081   0.00000  Uiso   1.00
O1521  O     0.46308   0.91286   0.75298   0.00000  Uiso   1.00
O1522  O     0.53692   0.75381   0.74702   0.00000  Uiso   1.00
O1523  O     0.55946   0.90387   0.74519   0.00000  Uiso   1.00
O1524  O     0.44054   0.76279   0.75482   0.00000  Uiso   1.00
O1525  O     0.45181   0.83784   0.81997   0.00000  Uiso   1.00
O1526  O     0.54819   0.82883   0.68003   0.00000  Uiso   1.00
O1527  O     0.54819   0.82885   0.81218   0.00000  Uiso   1.00
O1528  O     0.45181   0.83781   0.68782   0.00000  Uiso   1.00
Zn1529 Zn    0.43565   0.83933   0.75521   0.00000  Uiso   1.00
Zn1530 Zn    0.56435   0.82734   0.74479   0.00000  Uiso   1.00
C1531  C     0.84793   0.93084   0.74796   0.00000  Uiso   1.00
C1532  C     0.83982   0.87416   0.91358   0.00000  Uiso   1.00
C1533  C     0.83513   0.82704   0.61502   0.00000  Uiso   1.00
C1534  C     0.83140   0.83098   0.88481   0.00000  Uiso   1.00
C1535  C     0.86999   0.86213   0.59247   0.00000  Uiso   1.00
C1536  C     0.81368   0.78568   0.90324   0.00000  Uiso   1.00
C1537  C     0.87097   0.86079   0.54579   0.00000  Uiso   1.00
C1538  C     0.81560   0.78279   0.94960   0.00000  Uiso   1.00
C1539  C     0.84207   0.82099   0.52176   0.00000  Uiso   1.00
C1540  C     0.84017   0.82321   0.97542   0.00000  Uiso   1.00
C1541  C     0.81219   0.78111   0.54403   0.00000  Uiso   1.00
C1542  C     0.81904   0.73548   0.74887   0.00000  Uiso   1.00
C1543  C     0.85774   0.86818   0.95539   0.00000  Uiso   1.00
C1544  C     0.89566   0.90176   0.52344   0.00000  Uiso   1.00
C1545  C     0.79282   0.74102   0.97043   0.00000  Uiso   1.00
C1546  C     0.76896   0.75401   0.61769   0.00000  Uiso   1.00
C1547  C     0.80105   0.91432   0.91347   0.00000  Uiso   1.00
C1548  C     0.89781   0.90571   0.61787   0.00000  Uiso   1.00
C1549  C     0.95654   0.90851   0.61747   0.00000  Uiso   1.00
C1550  C     0.98355   0.95408   0.63200   0.00000  Uiso   1.00
C1551  C     0.95233   0.99708   0.64635   0.00000  Uiso   1.00
C1552  C     0.89398   0.99412   0.64770   0.00000  Uiso   1.00
C1553  C     0.88645   0.90794   0.97943   0.00000  Uiso   1.00
C1554  C     0.86661   0.94800   0.63567   0.00000  Uiso   1.00
C1555  C     0.78174   0.74757   0.87618   0.00000  Uiso   1.00
C1556  C     0.80348   0.70012   0.86153   0.00000  Uiso   1.00
C1557  C     0.77111   0.99727   0.83794   0.00000  Uiso   1.00
C1558  C     0.71888   0.67625   0.82609   0.00000  Uiso   1.00
C1559  C     0.69883   0.72506   0.83810   0.00000  Uiso   1.00
C1560  C     0.72863   0.75953   0.86516   0.00000  Uiso   1.00
C1561  C     0.90687   0.95608   0.95958   0.00000  Uiso   1.00
C1562  C     0.92682   0.95552   0.91409   0.00000  Uiso   1.00
C1563  C     0.93800   0.66745   0.89453   0.00000  Uiso   1.00
C1564  C     0.78791   0.73963   0.51703   0.00000  Uiso   1.00
C1565  C     0.93635   0.71392   0.92069   0.00000  Uiso   1.00
C1566  C     0.92316   0.71478   0.96670   0.00000  Uiso   1.00
C1567  C     0.90721   0.66978   0.98597   0.00000  Uiso   1.00
C1568  C     0.75966   0.69171   0.53222   0.00000  Uiso   1.00
C1569  C     0.71216   0.67197   0.51115   0.00000  Uiso   1.00
C1570  C     0.69731   0.95366   0.51003   0.00000  Uiso   1.00
C1571  C     0.72497   0.92189   0.53392   0.00000  Uiso   1.00
C1572  C     0.76794   0.94183   0.55871   0.00000  Uiso   1.00
C1573  C     0.78678   0.99259   0.55697   0.00000  Uiso   1.00
C1574  C     0.91188   0.67035   0.75733   0.00000  Uiso   1.00
C1575  C     0.85588   0.98466   0.74872   0.00000  Uiso   1.00
C1576  C     0.76153   0.99446   0.72447   0.00000  Uiso   1.00
C1577  C     0.81315   0.68120   0.74194   0.00000  Uiso   1.00
C1578  C     0.83315   0.83467   0.83664   0.00000  Uiso   1.00
C1579  C     0.83330   0.83083   0.66359   0.00000  Uiso   1.00
C1580  C     0.80613   0.78681   0.59161   0.00000  Uiso   1.00
H1581  H     0.91903   0.93148   0.54124   0.00000  Uiso   1.00
H1582  H     0.84419   0.69054   0.86967   0.00000  Uiso   1.00
H1583  H     0.78656   0.95956   0.82909   0.00000  Uiso   1.00
H1584  H     0.69439   0.98109   0.80763   0.00000  Uiso   1.00
H1585  H     0.99229   0.73595   0.82860   0.00000  Uiso   1.00
H1586  H     0.71096   0.79608   0.87665   0.00000  Uiso   1.00
H1587  H     0.93184   0.92031   0.89296   0.00000  Uiso   1.00
H1588  H     0.94529   0.99926   0.85863   0.00000  Uiso   1.00
H1589  H     0.94470   0.74927   0.90547   0.00000  Uiso   1.00
H1590  H     0.92397   0.75045   0.98738   0.00000  Uiso   1.00
H1591  H     0.89567   0.67230   0.52149   0.00000  Uiso   1.00
H1592  H     0.77772   0.70863   0.94993   0.00000  Uiso   1.00
H1593  H     0.69090   0.69544   0.99107   0.00000  Uiso   1.00
H1594  H     0.99977   0.93749   0.98886   0.00000  Uiso   1.00
H1595  H     0.71311   0.88185   0.53330   0.00000  Uiso   1.00
H1596  H     0.78674   0.91686   0.57833   0.00000  Uiso   1.00
H1597  H     0.82313   0.67268   0.57384   0.00000  Uiso   1.00
H1598  H     0.67070   0.79306   0.71530   0.00000  Uiso   1.00
H1599  H     0.99597   0.87358   0.78473   0.00000  Uiso   1.00
H1600  H     0.98126   0.87616   0.60421   0.00000  Uiso   1.00
H1601  H     0.69545   0.95640   0.63100   0.00000  Uiso   1.00
H1602  H     0.97280   0.69930   0.65715   0.00000  Uiso   1.00
H1603  H     0.86990   0.69418   0.65861   0.00000  Uiso   1.00
H1604  H     0.82125   0.94613   0.63912   0.00000  Uiso   1.00
N1605  N     0.98344   0.81932   0.73783   0.00000  Uiso   1.00
N1606  N     0.68322   0.84735   0.76217   0.00000  Uiso   1.00
N1607  N     0.73969   0.72822   0.63938   0.00000  Uiso   1.00
N1608  N     0.76816   0.94542   0.91564   0.00000  Uiso   1.00
N1609  N     0.95664   0.68595   0.76304   0.00000  Uiso   1.00
N1610  N     0.72050   0.97780   0.71081   0.00000  Uiso   1.00
O1611  O     0.79642   0.91286   0.75298   0.00000  Uiso   1.00
O1612  O     0.87025   0.75381   0.74702   0.00000  Uiso   1.00
O1613  O     0.89280   0.90387   0.74519   0.00000  Uiso   1.00
O1614  O     0.77387   0.76279   0.75482   0.00000  Uiso   1.00
O1615  O     0.78514   0.83784   0.81997   0.00000  Uiso   1.00
O1616  O     0.88153   0.82883   0.68003   0.00000  Uiso   1.00
O1617  O     0.88152   0.82885   0.81218   0.00000  Uiso   1.00
O1618  O     0.78515   0.83781   0.68782   0.00000  Uiso   1.00
Zn1619 Zn    0.76898   0.83933   0.75521   0.00000  Uiso   1.00
Zn1620 Zn    0.89769   0.82734   0.74479   0.00000  Uiso   1.00
loop_
_geom_bond_atom_site_label_1
_geom_bond_atom_site_label_2
_geom_bond_distance
_geom_bond_site_symmetry_2
_ccdc_geom_bond_type
C1     O81     1.301   .     A
C1     O83     1.304   .     A
C1     C45     1.425   .     S
C2     C13     1.394   .     A
C2     C17     1.438   .     S
C2     C4      1.387   .     A
C3     C49     1.454   .     S
C3     C50     1.414   .     A
C3     C5      1.399   .     A
C4     C6      1.399   .     A
C4     C48     1.460   .     S
C5     C7      1.401   .     A
C5     C18     1.491   .     S
C6     C25     1.471   .     S
C6     C8      1.411   .     A
C7     C14     1.406   .     A
C7     C9      1.415   .     A
C8     C10     1.404   .     A
C8     C15     1.386   .     A
C9     C11     1.430   .     A
C9     C820    1.408   1_554 S
C10    C13     1.412   .     A
C10    C819    1.408   .     S
C11    C34     1.439   .     A
C11    C50     1.421   .     A
C12    O84     1.312   .     A
C12    C47     1.433   .     S
C12    O82     1.295   .     A
C13    C23     1.412   .     A
C14    H51     1.077   .     S
C14    C833    1.390   1_554 S
C15    H62     1.078   .     S
C15    C844    1.401   .     S
C16    C50     1.443   .     S
C16    N77     1.155   .     T
C17    N78     1.154   .     T
C18    C24     1.405   .     A
C18    C19     1.401   .     A
C19    C20     1.396   .     A
C19    H70     1.083   .     S
C20    C21     1.397   .     A
C20    H161    1.078   .     S
C21    C22     1.390   .     A
C21    H342    1.078   .     S
C22    C24     1.393   .     A
C22    H343    1.081   .     S
C23    C31     1.499   .     S
C23    C824    1.390   .     S
C24    H74     1.078   .     S
C25    C26     1.394   .     A
C25    C30     1.399   .     A
C26    H52     1.072   .     S
C26    C567    1.391   1_545 S
C27    H53     1.078   .     S
C27    C296    1.391   .     S
C27    C298    1.391   .     S
C28    C29     1.398   .     A
C28    C567    1.391   1_545 S
C28    H594    1.080   1_545 S
C29    C30     1.386   .     A
C29    H235    1.079   1_455 S
C30    H56     1.084   .     S
C31    C32     1.405   .     A
C31    C307    1.412   .     S
C32    H57     1.081   .     S
C32    C303    1.387   .     S
C33    C35     1.396   .     A
C33    C572    1.387   1_545 S
C33    H598    1.076   1_545 S
C34    C38     1.498   .     S
C34    C825    1.401   1_554 S
C35    C36     1.390   .     A
C35    H59     1.081   .     S
C36    C37     1.394   .     A
C36    H60     1.081   .     S
C37    C571    1.412   1_545 S
C37    H871    1.075   .     S
C38    C39     1.411   .     A
C38    C583    1.404   1_545 S
C39    C580    1.394   1_545 S
C39    H873    1.080   1_554 S
C40    C41     1.383   .     A
C40    C309    1.394   .     S
C40    H1054   1.071   1_454 S
C41    C42     1.386   .     A
C41    H65     1.083   .     S
C42    C43     1.401   .     A
C42    H66     1.066   .     S
C43    C308    1.404   .     S
C43    H337    1.079   .     S
C44    N79     1.153   .     T
C44    C585    1.448   1_545 S
C45    C314    1.448   .     S
C45    C317    1.359   .     S
C46    N80     1.154   .     T
C46    C317    1.449   .     S
C47    C585    1.359   1_545 S
C47    C586    1.449   1_545 S
C48    O87     1.315   .     A
C48    O85     1.305   .     A
C49    O88     1.311   .     A
C49    O86     1.303   .     A
H54    C298    1.080   .     S
H55    C119    1.079   .     S
H58    C303    1.076   .     S
H61    C847    1.075   1_554 S
H63    C849    1.080   .     S
H64    C940    1.071   .     S
H67    C583    1.079   1_545 S
H68    N255    1.029   1_455 S
H69    N166    1.030   .     S
H71    C200    1.078   1_455 S
H72    C561    1.078   1_545 S
H73    C562    1.081   1_545 S
N75    Zn90    2.057   .     S
N75    H158    1.029   .     S
N75    N166    1.294   .     S
N76    Zn89    2.057   .     S
N76    H249    1.030   1_455 S
N76    N255    1.294   1_455 S
O81    Zn89    2.029   .     S
O82    Zn90    2.029   .     S
O83    Zn90    2.030   .     S
O84    Zn89    2.030   .     S
O85    Zn89    2.030   .     S
O86    Zn90    2.030   .     S
O87    Zn90    2.026   .     S
O88    Zn89    2.026   .     S
C91    O171    1.301   .     A
C91    O173    1.304   .     A
C91    C135    1.425   .     S
C92    C103    1.394   .     A
C92    C107    1.438   .     S
C92    C94     1.387   .     A
C93    C139    1.454   .     S
C93    C140    1.414   .     A
C93    C95     1.399   .     A
C94    C96     1.399   .     A
C94    C138    1.460   .     S
C95    C97     1.401   .     A
C95    C108    1.491   .     S
C96    C115    1.471   .     S
C96    C98     1.411   .     A
C97    C104    1.406   .     A
C97    C99     1.415   .     A
C98    C100    1.404   .     A
C98    C105    1.386   .     A
C99    C101    1.430   .     A
C99    C910    1.408   1_554 S
C100   C103    1.412   .     A
C100   C909    1.408   .     S
C101   C124    1.439   .     A
C101   C140    1.421   .     A
C102   O174    1.312   .     A
C102   C137    1.433   .     S
C102   O172    1.295   .     A
C103   C113    1.412   .     A
C104   H141    1.077   .     S
C104   C923    1.390   1_554 S
C105   H152    1.078   .     S
C105   C934    1.401   .     S
C106   C140    1.443   .     S
C106   N167    1.155   .     T
C107   N168    1.154   .     T
C108   C114    1.405   .     A
C108   C109    1.401   .     A
C109   C110    1.396   .     A
C109   H160    1.083   .     S
C110   C111    1.397   .     A
C110   H251    1.078   .     S
C111   C112    1.390   .     A
C111   H432    1.078   .     S
C112   C114    1.393   .     A
C112   H433    1.081   .     S
C113   C121    1.499   .     S
C113   C914    1.390   .     S
C114   H164    1.078   .     S
C115   C116    1.394   .     A
C115   C120    1.399   .     A
C116   H142    1.072   .     S
C116   C657    1.391   1_545 S
C117   H143    1.078   .     S
C117   C386    1.391   .     S
C117   C388    1.391   .     S
C118   C119    1.398   .     A
C118   C657    1.391   1_545 S
C118   H684    1.080   1_545 S
C119   C120    1.386   .     A
C120   H146    1.084   .     S
C121   C122    1.405   .     A
C121   C397    1.412   .     S
C122   H147    1.081   .     S
C122   C393    1.387   .     S
C123   C125    1.396   .     A
C123   C662    1.387   1_545 S
C123   H688    1.076   1_545 S
C124   C128    1.498   .     S
C124   C915    1.401   1_554 S
C125   C126    1.390   .     A
C125   H149    1.081   .     S
C126   C127    1.394   .     A
C126   H150    1.081   .     S
C127   C661    1.412   1_545 S
C127   H961    1.075   .     S
C128   C129    1.411   .     A
C128   C673    1.404   1_545 S
C129   C670    1.394   1_545 S
C129   H963    1.080   1_554 S
C130   C131    1.383   .     A
C130   C399    1.394   .     S
C130   H874    1.071   1_554 S
C131   C132    1.386   .     A
C131   H155    1.083   .     S
C132   C133    1.401   .     A
C132   H156    1.066   .     S
C133   C398    1.404   .     S
C133   H427    1.079   .     S
C134   N169    1.153   .     T
C134   C675    1.448   1_545 S
C135   C404    1.448   .     S
C135   C407    1.359   .     S
C136   N170    1.154   .     T
C136   C407    1.449   .     S
C137   C675    1.359   1_545 S
C137   C676    1.449   1_545 S
C138   O177    1.315   .     A
C138   O175    1.305   .     A
C139   O178    1.311   .     A
C139   O176    1.303   .     A
H144   C388    1.080   .     S
H145   C209    1.079   .     S
H148   C393    1.076   .     S
H151   C937    1.075   1_554 S
H153   C939    1.080   .     S
H154   C1030   1.071   .     S
H157   C673    1.079   1_545 S
H159   N256    1.030   .     S
H162   C651    1.078   1_545 S
H163   C652    1.081   1_545 S
N165   Zn180   2.057   .     S
N165   H248    1.029   .     S
N165   N256    1.294   .     S
N166   Zn179   2.057   .     S
O171   Zn179   2.029   .     S
O172   Zn180   2.029   .     S
O173   Zn180   2.030   .     S
O174   Zn179   2.030   .     S
O175   Zn179   2.030   .     S
O176   Zn180   2.030   .     S
O177   Zn180   2.026   .     S
O178   Zn179   2.026   .     S
C181   O261    1.301   .     A
C181   O263    1.304   .     A
C181   C225    1.425   .     S
C182   C193    1.394   .     A
C182   C197    1.438   .     S
C182   C184    1.387   .     A
C183   C229    1.454   .     S
C183   C230    1.414   .     A
C183   C185    1.399   .     A
C184   C186    1.399   .     A
C184   C228    1.460   .     S
C185   C187    1.401   .     A
C185   C198    1.491   .     S
C186   C205    1.471   .     S
C186   C188    1.411   .     A
C187   C194    1.406   .     A
C187   C189    1.415   .     A
C188   C190    1.404   .     A
C188   C195    1.386   .     A
C189   C191    1.430   .     A
C189   C1000   1.408   1_554 S
C190   C193    1.412   .     A
C190   C999    1.408   .     S
C191   C214    1.439   .     A
C191   C230    1.421   .     A
C192   O264    1.312   .     A
C192   C227    1.433   .     S
C192   O262    1.295   .     A
C193   C203    1.412   .     A
C194   H231    1.077   .     S
C194   C1013   1.390   1_554 S
C195   H242    1.078   .     S
C195   C1024   1.401   .     S
C196   C230    1.443   .     S
C196   N257    1.155   .     T
C197   N258    1.154   .     T
C198   C204    1.405   .     A
C198   C199    1.401   .     A
C199   C200    1.396   .     A
C199   H250    1.083   .     S
C200   C201    1.397   .     A
C200   H71     1.078   1_655 S
C201   C202    1.390   .     A
C201   H522    1.078   .     S
C202   C204    1.393   .     A
C202   H523    1.081   .     S
C203   C211    1.499   .     S
C203   C1004   1.390   .     S
C204   H254    1.078   .     S
C205   C206    1.394   .     A
C205   C210    1.399   .     A
C206   H232    1.072   .     S
C206   C747    1.391   1_545 S
C207   H233    1.078   .     S
C207   C476    1.391   .     S
C207   C478    1.391   .     S
C208   C209    1.398   .     A
C208   C747    1.391   1_545 S
C208   H774    1.080   1_545 S
C209   C210    1.386   .     A
C210   H236    1.084   .     S
C211   C212    1.405   .     A
C211   C487    1.412   .     S
C212   H237    1.081   .     S
C212   C483    1.387   .     S
C213   C215    1.396   .     A
C213   C752    1.387   1_545 S
C213   H778    1.076   1_545 S
C214   C218    1.498   .     S
C214   C1005   1.401   1_554 S
C215   C216    1.390   .     A
C215   H239    1.081   .     S
C216   C217    1.394   .     A
C216   H240    1.081   .     S
C217   C751    1.412   1_545 S
C217   H1051   1.075   .     S
C218   C219    1.411   .     A
C218   C763    1.404   1_545 S
C219   C760    1.394   1_545 S
C219   H1053   1.080   1_554 S
C220   C221    1.383   .     A
C220   C489    1.394   .     S
C220   H964    1.071   1_554 S
C221   C222    1.386   .     A
C221   H245    1.083   .     S
C222   C223    1.401   .     A
C222   H246    1.066   .     S
C223   C488    1.404   .     S
C223   H517    1.079   .     S
C224   N259    1.153   .     T
C224   C765    1.448   1_545 S
C225   C494    1.448   .     S
C225   C497    1.359   .     S
C226   N260    1.154   .     T
C226   C497    1.449   .     S
C227   C765    1.359   1_545 S
C227   C766    1.449   1_545 S
C228   O267    1.315   .     A
C228   O265    1.305   .     A
C229   O268    1.311   .     A
C229   O266    1.303   .     A
H234   C478    1.080   .     S
H235   C29     1.079   1_655 S
H238   C483    1.076   .     S
H241   C1027   1.075   1_554 S
H243   C1029   1.080   .     S
H244   C850    1.071   1_655 S
H247   C763    1.079   1_545 S
H249   N76     1.030   1_655 S
H252   C741    1.078   1_545 S
H253   C742    1.081   1_545 S
N255   Zn270   2.057   .     S
N255   H68     1.029   1_655 S
N255   N76     1.294   1_655 S
N256   Zn269   2.057   .     S
O261   Zn269   2.029   .     S
O262   Zn270   2.029   .     S
O263   Zn270   2.030   .     S
O264   Zn269   2.030   .     S
O265   Zn269   2.030   .     S
O266   Zn270   2.030   .     S
O267   Zn270   2.026   .     S
O268   Zn269   2.026   .     S
C271   O351    1.301   .     A
C271   O353    1.304   .     A
C271   C315    1.425   .     S
C272   C283    1.394   .     A
C272   C287    1.438   .     S
C272   C274    1.387   .     A
C273   C319    1.454   .     S
C273   C320    1.414   .     A
C273   C275    1.399   .     A
C274   C276    1.399   .     A
C274   C318    1.460   .     S
C275   C277    1.401   .     A
C275   C288    1.491   .     S
C276   C295    1.471   .     S
C276   C278    1.411   .     A
C277   C284    1.406   .     A
C277   C279    1.415   .     A
C278   C280    1.404   .     A
C278   C285    1.386   .     A
C279   C281    1.430   .     A
C279   C1090   1.408   1_554 S
C280   C283    1.412   .     A
C280   C1089   1.408   .     S
C281   C304    1.439   .     A
C281   C320    1.421   .     A
C282   O354    1.312   .     A
C282   C317    1.433   .     S
C282   O352    1.295   .     A
C283   C293    1.412   .     A
C284   H321    1.077   .     S
C284   C1103   1.390   1_554 S
C285   H332    1.078   .     S
C285   C1114   1.401   .     S
C286   C320    1.443   .     S
C286   N347    1.155   .     T
C287   N348    1.154   .     T
C288   C294    1.405   .     A
C288   C289    1.401   .     A
C289   C290    1.396   .     A
C289   H340    1.083   .     S
C290   C291    1.397   .     A
C290   H431    1.078   .     S
C291   C292    1.390   .     A
C291   H612    1.078   .     S
C292   C294    1.393   .     A
C292   H613    1.081   .     S
C293   C301    1.499   .     S
C293   C1094   1.390   .     S
C294   H344    1.078   .     S
C295   C296    1.394   .     A
C295   C300    1.399   .     A
C296   H322    1.072   .     S
C297   H323    1.078   .     S
C297   C566    1.391   .     S
C297   C568    1.391   .     S
C298   C299    1.398   .     A
C299   C300    1.386   .     A
C299   H505    1.079   1_455 S
C300   H326    1.084   .     S
C301   C302    1.405   .     A
C301   C577    1.412   .     S
C302   H327    1.081   .     S
C302   C573    1.387   .     S
C303   C305    1.396   .     A
C304   C308    1.498   .     S
C304   C1095   1.401   1_554 S
C305   C306    1.390   .     A
C305   H329    1.081   .     S
C306   C307    1.394   .     A
C306   H330    1.081   .     S
C307   H1141   1.075   .     S
C308   C309    1.411   .     A
C309   H1143   1.080   1_554 S
C310   C311    1.383   .     A
C310   C579    1.394   .     S
C310   H1324   1.071   1_454 S
C311   C312    1.386   .     A
C311   H335    1.083   .     S
C312   C313    1.401   .     A
C312   H336    1.066   .     S
C313   C578    1.404   .     S
C313   H607    1.079   .     S
C314   N349    1.153   .     T
C315   C584    1.448   .     S
C315   C587    1.359   .     S
C316   N350    1.154   .     T
C316   C587    1.449   .     S
C318   O357    1.315   .     A
C318   O355    1.305   .     A
C319   O358    1.311   .     A
C319   O356    1.303   .     A
H324   C568    1.080   .     S
H325   C389    1.079   .     S
H328   C573    1.076   .     S
H331   C1117   1.075   1_554 S
H333   C1119   1.080   .     S
H334   C1210   1.071   .     S
H338   N525    1.029   1_455 S
H339   N436    1.030   .     S
H341   C470    1.078   1_455 S
N345   Zn360   2.057   .     S
N345   H428    1.029   .     S
N345   N436    1.294   .     S
N346   Zn359   2.057   .     S
N346   H519    1.030   1_455 S
N346   N525    1.294   1_455 S
O351   Zn359   2.029   .     S
O352   Zn360   2.029   .     S
O353   Zn360   2.030   .     S
O354   Zn359   2.030   .     S
O355   Zn359   2.030   .     S
O356   Zn360   2.030   .     S
O357   Zn360   2.026   .     S
O358   Zn359   2.026   .     S
C361   O441    1.301   .     A
C361   O443    1.304   .     A
C361   C405    1.425   .     S
C362   C373    1.394   .     A
C362   C377    1.438   .     S
C362   C364    1.387   .     A
C363   C409    1.454   .     S
C363   C410    1.414   .     A
C363   C365    1.399   .     A
C364   C366    1.399   .     A
C364   C408    1.460   .     S
C365   C367    1.401   .     A
C365   C378    1.491   .     S
C366   C385    1.471   .     S
C366   C368    1.411   .     A
C367   C374    1.406   .     A
C367   C369    1.415   .     A
C368   C370    1.404   .     A
C368   C375    1.386   .     A
C369   C371    1.430   .     A
C369   C1180   1.408   1_554 S
C370   C373    1.412   .     A
C370   C1179   1.408   .     S
C371   C394    1.439   .     A
C371   C410    1.421   .     A
C372   O444    1.312   .     A
C372   C407    1.433   .     S
C372   O442    1.295   .     A
C373   C383    1.412   .     A
C374   H411    1.077   .     S
C374   C1193   1.390   1_554 S
C375   H422    1.078   .     S
C375   C1204   1.401   .     S
C376   C410    1.443   .     S
C376   N437    1.155   .     T
C377   N438    1.154   .     T
C378   C384    1.405   .     A
C378   C379    1.401   .     A
C379   C380    1.396   .     A
C379   H430    1.083   .     S
C380   C381    1.397   .     A
C380   H521    1.078   .     S
C381   C382    1.390   .     A
C381   H702    1.078   .     S
C382   C384    1.393   .     A
C382   H703    1.081   .     S
C383   C391    1.499   .     S
C383   C1184   1.390   .     S
C384   H434    1.078   .     S
C385   C386    1.394   .     A
C385   C390    1.399   .     A
C386   H412    1.072   .     S
C387   H413    1.078   .     S
C387   C656    1.391   .     S
C387   C658    1.391   .     S
C388   C389    1.398   .     A
C389   C390    1.386   .     A
C390   H416    1.084   .     S
C391   C392    1.405   .     A
C391   C667    1.412   .     S
C392   H417    1.081   .     S
C392   C663    1.387   .     S
C393   C395    1.396   .     A
C394   C398    1.498   .     S
C394   C1185   1.401   1_554 S
C395   C396    1.390   .     A
C395   H419    1.081   .     S
C396   C397    1.394   .     A
C396   H420    1.081   .     S
C397   H1231   1.075   .     S
C398   C399    1.411   .     A
C399   H1233   1.080   1_554 S
C400   C401    1.383   .     A
C400   C669    1.394   .     S
C400   H1144   1.071   1_554 S
C401   C402    1.386   .     A
C401   H425    1.083   .     S
C402   C403    1.401   .     A
C402   H426    1.066   .     S
C403   C668    1.404   .     S
C403   H697    1.079   .     S
C404   N439    1.153   .     T
C405   C674    1.448   .     S
C405   C677    1.359   .     S
C406   N440    1.154   .     T
C406   C677    1.449   .     S
C408   O447    1.315   .     A
C408   O445    1.305   .     A
C409   O448    1.311   .     A
C409   O446    1.303   .     A
H414   C658    1.080   .     S
H415   C479    1.079   .     S
H418   C663    1.076   .     S
H421   C1207   1.075   1_554 S
H423   C1209   1.080   .     S
H424   C1300   1.071   .     S
H429   N526    1.030   .     S
N435   Zn450   2.057   .     S
N435   H518    1.029   .     S
N435   N526    1.294   .     S
N436   Zn449   2.057   .     S
O441   Zn449   2.029   .     S
O442   Zn450   2.029   .     S
O443   Zn450   2.030   .     S
O444   Zn449   2.030   .     S
O445   Zn449   2.030   .     S
O446   Zn450   2.030   .     S
O447   Zn450   2.026   .     S
O448   Zn449   2.026   .     S
C451   O531    1.301   .     A
C451   O533    1.304   .     A
C451   C495    1.425   .     S
C452   C463    1.394   .     A
C452   C467    1.438   .     S
C452   C454    1.387   .     A
C453   C499    1.454   .     S
C453   C500    1.414   .     A
C453   C455    1.399   .     A
C454   C456    1.399   .     A
C454   C498    1.460   .     S
C455   C457    1.401   .     A
C455   C468    1.491   .     S
C456   C475    1.471   .     S
C456   C458    1.411   .     A
C457   C464    1.406   .     A
C457   C459    1.415   .     A
C458   C460    1.404   .     A
C458   C465    1.386   .     A
C459   C461    1.430   .     A
C459   C1270   1.408   1_554 S
C460   C463    1.412   .     A
C460   C1269   1.408   .     S
C461   C484    1.439   .     A
C461   C500    1.421   .     A
C462   O534    1.312   .     A
C462   C497    1.433   .     S
C462   O532    1.295   .     A
C463   C473    1.412   .     A
C464   H501    1.077   .     S
C464   C1283   1.390   1_554 S
C465   H512    1.078   .     S
C465   C1294   1.401   .     S
C466   C500    1.443   .     S
C466   N527    1.155   .     T
C467   N528    1.154   .     T
C468   C474    1.405   .     A
C468   C469    1.401   .     A
C469   C470    1.396   .     A
C469   H520    1.083   .     S
C470   C471    1.397   .     A
C470   H341    1.078   1_655 S
C471   C472    1.390   .     A
C471   H792    1.078   .     S
C472   C474    1.393   .     A
C472   H793    1.081   .     S
C473   C481    1.499   .     S
C473   C1274   1.390   .     S
C474   H524    1.078   .     S
C475   C476    1.394   .     A
C475   C480    1.399   .     A
C476   H502    1.072   .     S
C477   H503    1.078   .     S
C477   C746    1.391   .     S
C477   C748    1.391   .     S
C478   C479    1.398   .     A
C479   C480    1.386   .     A
C480   H506    1.084   .     S
C481   C482    1.405   .     A
C481   C757    1.412   .     S
C482   H507    1.081   .     S
C482   C753    1.387   .     S
C483   C485    1.396   .     A
C484   C488    1.498   .     S
C484   C1275   1.401   1_554 S
C485   C486    1.390   .     A
C485   H509    1.081   .     S
C486   C487    1.394   .     A
C486   H510    1.081   .     S
C487   H1321   1.075   .     S
C488   C489    1.411   .     A
C489   H1323   1.080   1_554 S
C490   C491    1.383   .     A
C490   C759    1.394   .     S
C490   H1234   1.071   1_554 S
C491   C492    1.386   .     A
C491   H515    1.083   .     S
C492   C493    1.401   .     A
C492   H516    1.066   .     S
C493   C758    1.404   .     S
C493   H787    1.079   .     S
C494   N529    1.153   .     T
C495   C764    1.448   .     S
C495   C767    1.359   .     S
C496   N530    1.154   .     T
C496   C767    1.449   .     S
C498   O537    1.315   .     A
C498   O535    1.305   .     A
C499   O538    1.311   .     A
C499   O536    1.303   .     A
H504   C748    1.080   .     S
H505   C299    1.079   1_655 S
H508   C753    1.076   .     S
H511   C1297   1.075   1_554 S
H513   C1299   1.080   .     S
H514   C1120   1.071   1_655 S
H519   N346    1.030   1_655 S
N525   Zn540   2.057   .     S
N525   H338    1.029   1_655 S
N525   N346    1.294   1_655 S
N526   Zn539   2.057   .     S
O531   Zn539   2.029   .     S
O532   Zn540   2.029   .     S
O533   Zn540   2.030   .     S
O534   Zn539   2.030   .     S
O535   Zn539   2.030   .     S
O536   Zn540   2.030   .     S
O537   Zn540   2.026   .     S
O538   Zn539   2.026   .     S
C541   O621    1.301   .     A
C541   O623    1.304   .     A
C541   C585    1.425   .     S
C542   C553    1.394   .     A
C542   C557    1.438   .     S
C542   C544    1.387   .     A
C543   C589    1.454   .     S
C543   C590    1.414   .     A
C543   C545    1.399   .     A
C544   C546    1.399   .     A
C544   C588    1.460   .     S
C545   C547    1.401   .     A
C545   C558    1.491   .     S
C546   C565    1.471   .     S
C546   C548    1.411   .     A
C547   C554    1.406   .     A
C547   C549    1.415   .     A
C548   C550    1.404   .     A
C548   C555    1.386   .     A
C549   C551    1.430   .     A
C549   C1360   1.408   1_554 S
C550   C553    1.412   .     A
C550   C1359   1.408   .     S
C551   C574    1.439   .     A
C551   C590    1.421   .     A
C552   O624    1.312   .     A
C552   C587    1.433   .     S
C552   O622    1.295   .     A
C553   C563    1.412   .     A
C554   H591    1.077   .     S
C554   C1373   1.390   1_554 S
C555   H602    1.078   .     S
C555   C1384   1.401   .     S
C556   C590    1.443   .     S
C556   N617    1.155   .     T
C557   N618    1.154   .     T
C558   C564    1.405   .     A
C558   C559    1.401   .     A
C559   C560    1.396   .     A
C559   H610    1.083   .     S
C560   C561    1.397   .     A
C560   H701    1.078   .     S
C561   C562    1.390   .     A
C561   H72     1.078   1_565 S
C562   C564    1.393   .     A
C562   H73     1.081   1_565 S
C563   C571    1.499   .     S
C563   C1364   1.390   .     S
C564   H614    1.078   .     S
C565   C566    1.394   .     A
C565   C570    1.399   .     A
C566   H592    1.072   .     S
C567   H593    1.078   .     S
C567   C26     1.391   1_565 S
C567   C28     1.391   1_565 S
C568   C569    1.398   .     A
C569   C570    1.386   .     A
C569   H775    1.079   1_455 S
C570   H596    1.084   .     S
C571   C572    1.405   .     A
C571   C37     1.412   1_565 S
C572   H597    1.081   .     S
C572   C33     1.387   1_565 S
C573   C575    1.396   .     A
C574   C578    1.498   .     S
C574   C1365   1.401   1_554 S
C575   C576    1.390   .     A
C575   H599    1.081   .     S
C576   C577    1.394   .     A
C576   H600    1.081   .     S
C577   H1411   1.075   .     S
C578   C579    1.411   .     A
C579   H1413   1.080   1_554 S
C580   C581    1.383   .     A
C580   C39     1.394   1_565 S
C580   H1594   1.071   1_454 S
C581   C582    1.386   .     A
C581   H605    1.083   .     S
C582   C583    1.401   .     A
C582   H606    1.066   .     S
C583   C38     1.404   1_565 S
C583   H67     1.079   1_565 S
C584   N619    1.153   .     T
C585   C44     1.448   1_565 S
C585   C47     1.359   1_565 S
C586   N620    1.154   .     T
C586   C47     1.449   1_565 S
C588   O627    1.315   .     A
C588   O625    1.305   .     A
C589   O628    1.311   .     A
C589   O626    1.303   .     A
H594   C28     1.080   1_565 S
H595   C659    1.079   .     S
H598   C33     1.076   1_565 S
H601   C1387   1.075   1_554 S
H603   C1389   1.080   .     S
H604   C1480   1.071   .     S
H608   N795    1.029   1_455 S
H609   N706    1.030   .     S
H611   C740    1.078   1_455 S
N615   Zn630   2.057   .     S
N615   H698    1.029   .     S
N615   N706    1.294   .     S
N616   Zn629   2.057   .     S
N616   H789    1.030   1_455 S
N616   N795    1.294   1_455 S
O621   Zn629   2.029   .     S
O622   Zn630   2.029   .     S
O623   Zn630   2.030   .     S
O624   Zn629   2.030   .     S
O625   Zn629   2.030   .     S
O626   Zn630   2.030   .     S
O627   Zn630   2.026   .     S
O628   Zn629   2.026   .     S
C631   O711    1.301   .     A
C631   O713    1.304   .     A
C631   C675    1.425   .     S
C632   C643    1.394   .     A
C632   C647    1.438   .     S
C632   C634    1.387   .     A
C633   C679    1.454   .     S
C633   C680    1.414   .     A
C633   C635    1.399   .     A
C634   C636    1.399   .     A
C634   C678    1.460   .     S
C635   C637    1.401   .     A
C635   C648    1.491   .     S
C636   C655    1.471   .     S
C636   C638    1.411   .     A
C637   C644    1.406   .     A
C637   C639    1.415   .     A
C638   C640    1.404   .     A
C638   C645    1.386   .     A
C639   C641    1.430   .     A
C639   C1450   1.408   1_554 S
C640   C643    1.412   .     A
C640   C1449   1.408   .     S
C641   C664    1.439   .     A
C641   C680    1.421   .     A
C642   O714    1.312   .     A
C642   C677    1.433   .     S
C642   O712    1.295   .     A
C643   C653    1.412   .     A
C644   H681    1.077   .     S
C644   C1463   1.390   1_554 S
C645   H692    1.078   .     S
C645   C1474   1.401   .     S
C646   C680    1.443   .     S
C646   N707    1.155   .     T
C647   N708    1.154   .     T
C648   C654    1.405   .     A
C648   C649    1.401   .     A
C649   C650    1.396   .     A
C649   H700    1.083   .     S
C650   C651    1.397   .     A
C650   H791    1.078   .     S
C651   C652    1.390   .     A
C651   H162    1.078   1_565 S
C652   C654    1.393   .     A
C652   H163    1.081   1_565 S
C653   C661    1.499   .     S
C653   C1454   1.390   .     S
C654   H704    1.078   .     S
C655   C656    1.394   .     A
C655   C660    1.399   .     A
C656   H682    1.072   .     S
C657   H683    1.078   .     S
C657   C116    1.391   1_565 S
C657   C118    1.391   1_565 S
C658   C659    1.398   .     A
C659   C660    1.386   .     A
C660   H686    1.084   .     S
C661   C662    1.405   .     A
C661   C127    1.412   1_565 S
C662   H687    1.081   .     S
C662   C123    1.387   1_565 S
C663   C665    1.396   .     A
C664   C668    1.498   .     S
C664   C1455   1.401   1_554 S
C665   C666    1.390   .     A
C665   H689    1.081   .     S
C666   C667    1.394   .     A
C666   H690    1.081   .     S
C667   H1501   1.075   .     S
C668   C669    1.411   .     A
C669   H1503   1.080   1_554 S
C670   C671    1.383   .     A
C670   C129    1.394   1_565 S
C670   H1414   1.071   1_554 S
C671   C672    1.386   .     A
C671   H695    1.083   .     S
C672   C673    1.401   .     A
C672   H696    1.066   .     S
C673   C128    1.404   1_565 S
C673   H157    1.079   1_565 S
C674   N709    1.153   .     T
C675   C134    1.448   1_565 S
C675   C137    1.359   1_565 S
C676   N710    1.154   .     T
C676   C137    1.449   1_565 S
C678   O717    1.315   .     A
C678   O715    1.305   .     A
C679   O718    1.311   .     A
C679   O716    1.303   .     A
H684   C118    1.080   1_565 S
H685   C749    1.079   .     S
H688   C123    1.076   1_565 S
H691   C1477   1.075   1_554 S
H693   C1479   1.080   .     S
H694   C1570   1.071   .     S
H699   N796    1.030   .     S
N705   Zn720   2.057   .     S
N705   H788    1.029   .     S
N705   N796    1.294   .     S
N706   Zn719   2.057   .     S
O711   Zn719   2.029   .     S
O712   Zn720   2.029   .     S
O713   Zn720   2.030   .     S
O714   Zn719   2.030   .     S
O715   Zn719   2.030   .     S
O716   Zn720   2.030   .     S
O717   Zn720   2.026   .     S
O718   Zn719   2.026   .     S
C721   O801    1.301   .     A
C721   O803    1.304   .     A
C721   C765    1.425   .     S
C722   C733    1.394   .     A
C722   C737    1.438   .     S
C722   C724    1.387   .     A
C723   C769    1.454   .     S
C723   C770    1.414   .     A
C723   C725    1.399   .     A
C724   C726    1.399   .     A
C724   C768    1.460   .     S
C725   C727    1.401   .     A
C725   C738    1.491   .     S
C726   C745    1.471   .     S
C726   C728    1.411   .     A
C727   C734    1.406   .     A
C727   C729    1.415   .     A
C728   C730    1.404   .     A
C728   C735    1.386   .     A
C729   C731    1.430   .     A
C729   C1540   1.408   1_554 S
C730   C733    1.412   .     A
C730   C1539   1.408   .     S
C731   C754    1.439   .     A
C731   C770    1.421   .     A
C732   O804    1.312   .     A
C732   C767    1.433   .     S
C732   O802    1.295   .     A
C733   C743    1.412   .     A
C734   H771    1.077   .     S
C734   C1553   1.390   1_554 S
C735   H782    1.078   .     S
C735   C1564   1.401   .     S
C736   C770    1.443   .     S
C736   N797    1.155   .     T
C737   N798    1.154   .     T
C738   C744    1.405   .     A
C738   C739    1.401   .     A
C739   C740    1.396   .     A
C739   H790    1.083   .     S
C740   C741    1.397   .     A
C740   H611    1.078   1_655 S
C741   C742    1.390   .     A
C741   H252    1.078   1_565 S
C742   C744    1.393   .     A
C742   H253    1.081   1_565 S
C743   C751    1.499   .     S
C743   C1544   1.390   .     S
C744   H794    1.078   .     S
C745   C746    1.394   .     A
C745   C750    1.399   .     A
C746   H772    1.072   .     S
C747   H773    1.078   .     S
C747   C206    1.391   1_565 S
C747   C208    1.391   1_565 S
C748   C749    1.398   .     A
C749   C750    1.386   .     A
C750   H776    1.084   .     S
C751   C752    1.405   .     A
C751   C217    1.412   1_565 S
C752   H777    1.081   .     S
C752   C213    1.387   1_565 S
C753   C755    1.396   .     A
C754   C758    1.498   .     S
C754   C1545   1.401   1_554 S
C755   C756    1.390   .     A
C755   H779    1.081   .     S
C756   C757    1.394   .     A
C756   H780    1.081   .     S
C757   H1591   1.075   .     S
C758   C759    1.411   .     A
C759   H1593   1.080   1_554 S
C760   C761    1.383   .     A
C760   C219    1.394   1_565 S
C760   H1504   1.071   1_554 S
C761   C762    1.386   .     A
C761   H785    1.083   .     S
C762   C763    1.401   .     A
C762   H786    1.066   .     S
C763   C218    1.404   1_565 S
C763   H247    1.079   1_565 S
C764   N799    1.153   .     T
C765   C224    1.448   1_565 S
C765   C227    1.359   1_565 S
C766   N800    1.154   .     T
C766   C227    1.449   1_565 S
C768   O807    1.315   .     A
C768   O805    1.305   .     A
C769   O808    1.311   .     A
C769   O806    1.303   .     A
H774   C208    1.080   1_565 S
H775   C569    1.079   1_655 S
H778   C213    1.076   1_565 S
H781   C1567   1.075   1_554 S
H783   C1569   1.080   .     S
H784   C1390   1.071   1_655 S
H789   N616    1.030   1_655 S
N795   Zn810   2.057   .     S
N795   H608    1.029   1_655 S
N795   N616    1.294   1_655 S
N796   Zn809   2.057   .     S
O801   Zn809   2.029   .     S
O802   Zn810   2.029   .     S
O803   Zn810   2.030   .     S
O804   Zn809   2.030   .     S
O805   Zn809   2.030   .     S
O806   Zn810   2.030   .     S
O807   Zn810   2.026   .     S
O808   Zn809   2.026   .     S
C811   O891    1.301   .     A
C811   O893    1.304   .     A
C811   C855    1.425   .     S
C812   C823    1.394   .     A
C812   C827    1.438   .     S
C812   C814    1.387   .     A
C813   C859    1.454   .     S
C813   C860    1.414   .     A
C813   C815    1.399   .     A
C814   C816    1.399   .     A
C814   C858    1.460   .     S
C815   C817    1.401   .     A
C815   C828    1.491   .     S
C816   C835    1.471   .     S
C816   C818    1.411   .     A
C817   C824    1.406   .     A
C817   C819    1.415   .     A
C818   C820    1.404   .     A
C818   C825    1.386   .     A
C819   C821    1.430   .     A
C820   C823    1.412   .     A
C820   C9      1.408   1_556 S
C821   C844    1.439   .     A
C821   C860    1.421   .     A
C822   O894    1.312   .     A
C822   C857    1.433   .     S
C822   O892    1.295   .     A
C823   C833    1.412   .     A
C824   H861    1.077   .     S
C825   H872    1.078   .     S
C825   C34     1.401   1_556 S
C826   C860    1.443   .     S
C826   N887    1.155   .     T
C827   N888    1.154   .     T
C828   C834    1.405   .     A
C828   C829    1.401   .     A
C829   C830    1.396   .     A
C829   H880    1.083   .     S
C830   C831    1.397   .     A
C830   H971    1.078   .     S
C831   C832    1.390   .     A
C831   H1152   1.078   .     S
C832   C834    1.393   .     A
C832   H1153   1.081   .     S
C833   C841    1.499   .     S
C833   C14     1.390   1_556 S
C834   H884    1.078   .     S
C835   C836    1.394   .     A
C835   C840    1.399   .     A
C836   H862    1.072   .     S
C836   C1377   1.391   1_545 S
C837   H863    1.078   .     S
C837   C1106   1.391   .     S
C837   C1108   1.391   .     S
C838   C839    1.398   .     A
C838   C1377   1.391   1_545 S
C838   H1404   1.080   1_545 S
C839   C840    1.386   .     A
C839   H1045   1.079   1_455 S
C840   H866    1.084   .     S
C841   C842    1.405   .     A
C841   C1117   1.412   .     S
C842   H867    1.081   .     S
C842   C1113   1.387   .     S
C843   C845    1.396   .     A
C843   C1382   1.387   1_545 S
C843   H1408   1.076   1_545 S
C844   C848    1.498   .     S
C845   C846    1.390   .     A
C845   H869    1.081   .     S
C846   C847    1.394   .     A
C846   H870    1.081   .     S
C847   C1381   1.412   1_545 S
C847   H61     1.075   1_556 S
C848   C849    1.411   .     A
C848   C1393   1.404   1_545 S
C849   C1390   1.394   1_545 S
C850   C851    1.383   .     A
C850   C1119   1.394   .     S
C850   H244    1.071   1_455 S
C851   C852    1.386   .     A
C851   H875    1.083   .     S
C852   C853    1.401   .     A
C852   H876    1.066   .     S
C853   C1118   1.404   .     S
C853   H1147   1.079   .     S
C854   N889    1.153   .     T
C854   C1395   1.448   1_545 S
C855   C1124   1.448   .     S
C855   C1127   1.359   .     S
C856   N890    1.154   .     T
C856   C1127   1.449   .     S
C857   C1395   1.359   1_545 S
C857   C1396   1.449   1_545 S
C858   O897    1.315   .     A
C858   O895    1.305   .     A
C859   O898    1.311   .     A
C859   O896    1.303   .     A
H864   C1108   1.080   .     S
H865   C929    1.079   .     S
H868   C1113   1.076   .     S
H873   C39     1.080   1_556 S
H874   C130    1.071   1_556 S
H877   C1393   1.079   1_545 S
H878   N1065   1.029   1_455 S
H879   N976    1.030   .     S
H881   C1010   1.078   1_455 S
H882   C1371   1.078   1_545 S
H883   C1372   1.081   1_545 S
N885   Zn900   2.057   .     S
N885   H968    1.029   .     S
N885   N976    1.294   .     S
N886   Zn899   2.057   .     S
N886   H1059   1.030   1_455 S
N886   N1065   1.294   1_455 S
O891   Zn899   2.029   .     S
O892   Zn900   2.029   .     S
O893   Zn900   2.030   .     S
O894   Zn899   2.030   .     S
O895   Zn899   2.030   .     S
O896   Zn900   2.030   .     S
O897   Zn900   2.026   .     S
O898   Zn899   2.026   .     S
C901   O981    1.301   .     A
C901   O983    1.304   .     A
C901   C945    1.425   .     S
C902   C913    1.394   .     A
C902   C917    1.438   .     S
C902   C904    1.387   .     A
C903   C949    1.454   .     S
C903   C950    1.414   .     A
C903   C905    1.399   .     A
C904   C906    1.399   .     A
C904   C948    1.460   .     S
C905   C907    1.401   .     A
C905   C918    1.491   .     S
C906   C925    1.471   .     S
C906   C908    1.411   .     A
C907   C914    1.406   .     A
C907   C909    1.415   .     A
C908   C910    1.404   .     A
C908   C915    1.386   .     A
C909   C911    1.430   .     A
C910   C913    1.412   .     A
C910   C99     1.408   1_556 S
C911   C934    1.439   .     A
C911   C950    1.421   .     A
C912   O984    1.312   .     A
C912   C947    1.433   .     S
C912   O982    1.295   .     A
C913   C923    1.412   .     A
C914   H951    1.077   .     S
C915   H962    1.078   .     S
C915   C124    1.401   1_556 S
C916   C950    1.443   .     S
C916   N977    1.155   .     T
C917   N978    1.154   .     T
C918   C924    1.405   .     A
C918   C919    1.401   .     A
C919   C920    1.396   .     A
C919   H970    1.083   .     S
C920   C921    1.397   .     A
C920   H1061   1.078   .     S
C921   C922    1.390   .     A
C921   H1242   1.078   .     S
C922   C924    1.393   .     A
C922   H1243   1.081   .     S
C923   C931    1.499   .     S
C923   C104    1.390   1_556 S
C924   H974    1.078   .     S
C925   C926    1.394   .     A
C925   C930    1.399   .     A
C926   H952    1.072   .     S
C926   C1467   1.391   1_545 S
C927   H953    1.078   .     S
C927   C1196   1.391   .     S
C927   C1198   1.391   .     S
C928   C929    1.398   .     A
C928   C1467   1.391   1_545 S
C928   H1494   1.080   1_545 S
C929   C930    1.386   .     A
C930   H956    1.084   .     S
C931   C932    1.405   .     A
C931   C1207   1.412   .     S
C932   H957    1.081   .     S
C932   C1203   1.387   .     S
C933   C935    1.396   .     A
C933   C1472   1.387   1_545 S
C933   H1498   1.076   1_545 S
C934   C938    1.498   .     S
C935   C936    1.390   .     A
C935   H959    1.081   .     S
C936   C937    1.394   .     A
C936   H960    1.081   .     S
C937   C1471   1.412   1_545 S
C937   H151    1.075   1_556 S
C938   C939    1.411   .     A
C938   C1483   1.404   1_545 S
C939   C1480   1.394   1_545 S
C940   C941    1.383   .     A
C940   C1209   1.394   .     S
C941   C942    1.386   .     A
C941   H965    1.083   .     S
C942   C943    1.401   .     A
C942   H966    1.066   .     S
C943   C1208   1.404   .     S
C943   H1237   1.079   .     S
C944   N979    1.153   .     T
C944   C1485   1.448   1_545 S
C945   C1214   1.448   .     S
C945   C1217   1.359   .     S
C946   N980    1.154   .     T
C946   C1217   1.449   .     S
C947   C1485   1.359   1_545 S
C947   C1486   1.449   1_545 S
C948   O987    1.315   .     A
C948   O985    1.305   .     A
C949   O988    1.311   .     A
C949   O986    1.303   .     A
H954   C1198   1.080   .     S
H955   C1019   1.079   .     S
H958   C1203   1.076   .     S
H963   C129    1.080   1_556 S
H964   C220    1.071   1_556 S
H967   C1483   1.079   1_545 S
H969   N1066   1.030   .     S
H972   C1461   1.078   1_545 S
H973   C1462   1.081   1_545 S
N975   Zn990   2.057   .     S
N975   H1058   1.029   .     S
N975   N1066   1.294   .     S
N976   Zn989   2.057   .     S
O981   Zn989   2.029   .     S
O982   Zn990   2.029   .     S
O983   Zn990   2.030   .     S
O984   Zn989   2.030   .     S
O985   Zn989   2.030   .     S
O986   Zn990   2.030   .     S
O987   Zn990   2.026   .     S
O988   Zn989   2.026   .     S
C991   O1071   1.301   .     A
C991   O1073   1.304   .     A
C991   C1035   1.425   .     S
C992   C1003   1.394   .     A
C992   C1007   1.438   .     S
C992   C994    1.387   .     A
C993   C1039   1.454   .     S
C993   C1040   1.414   .     A
C993   C995    1.399   .     A
C994   C996    1.399   .     A
C994   C1038   1.460   .     S
C995   C997    1.401   .     A
C995   C1008   1.491   .     S
C996   C1015   1.471   .     S
C996   C998    1.411   .     A
C997   C1004   1.406   .     A
C997   C999    1.415   .     A
C998   C1000   1.404   .     A
C998   C1005   1.386   .     A
C999   C1001   1.430   .     A
C1000  C1003   1.412   .     A
C1000  C189    1.408   1_556 S
C1001  C1024   1.439   .     A
C1001  C1040   1.421   .     A
C1002  O1074   1.312   .     A
C1002  C1037   1.433   .     S
C1002  O1072   1.295   .     A
C1003  C1013   1.412   .     A
C1004  H1041   1.077   .     S
C1005  H1052   1.078   .     S
C1005  C214    1.401   1_556 S
C1006  C1040   1.443   .     S
C1006  N1067   1.155   .     T
C1007  N1068   1.154   .     T
C1008  C1014   1.405   .     A
C1008  C1009   1.401   .     A
C1009  C1010   1.396   .     A
C1009  H1060   1.083   .     S
C1010  C1011   1.397   .     A
C1010  H881    1.078   1_655 S
C1011  C1012   1.390   .     A
C1011  H1332   1.078   .     S
C1012  C1014   1.393   .     A
C1012  H1333   1.081   .     S
C1013  C1021   1.499   .     S
C1013  C194    1.390   1_556 S
C1014  H1064   1.078   .     S
C1015  C1016   1.394   .     A
C1015  C1020   1.399   .     A
C1016  H1042   1.072   .     S
C1016  C1557   1.391   1_545 S
C1017  H1043   1.078   .     S
C1017  C1286   1.391   .     S
C1017  C1288   1.391   .     S
C1018  C1019   1.398   .     A
C1018  C1557   1.391   1_545 S
C1018  H1584   1.080   1_545 S
C1019  C1020   1.386   .     A
C1020  H1046   1.084   .     S
C1021  C1022   1.405   .     A
C1021  C1297   1.412   .     S
C1022  H1047   1.081   .     S
C1022  C1293   1.387   .     S
C1023  C1025   1.396   .     A
C1023  C1562   1.387   1_545 S
C1023  H1588   1.076   1_545 S
C1024  C1028   1.498   .     S
C1025  C1026   1.390   .     A
C1025  H1049   1.081   .     S
C1026  C1027   1.394   .     A
C1026  H1050   1.081   .     S
C1027  C1561   1.412   1_545 S
C1027  H241    1.075   1_556 S
C1028  C1029   1.411   .     A
C1028  C1573   1.404   1_545 S
C1029  C1570   1.394   1_545 S
C1030  C1031   1.383   .     A
C1030  C1299   1.394   .     S
C1031  C1032   1.386   .     A
C1031  H1055   1.083   .     S
C1032  C1033   1.401   .     A
C1032  H1056   1.066   .     S
C1033  C1298   1.404   .     S
C1033  H1327   1.079   .     S
C1034  N1069   1.153   .     T
C1034  C1575   1.448   1_545 S
C1035  C1304   1.448   .     S
C1035  C1307   1.359   .     S
C1036  N1070   1.154   .     T
C1036  C1307   1.449   .     S
C1037  C1575   1.359   1_545 S
C1037  C1576   1.449   1_545 S
C1038  O1077   1.315   .     A
C1038  O1075   1.305   .     A
C1039  O1078   1.311   .     A
C1039  O1076   1.303   .     A
H1044  C1288   1.080   .     S
H1045  C839    1.079   1_655 S
H1048  C1293   1.076   .     S
H1053  C219    1.080   1_556 S
H1054  C40     1.071   1_656 S
H1057  C1573   1.079   1_545 S
H1059  N886    1.030   1_655 S
H1062  C1551   1.078   1_545 S
H1063  C1552   1.081   1_545 S
N1065  Zn1080  2.057   .     S
N1065  H878    1.029   1_655 S
N1065  N886    1.294   1_655 S
N1066  Zn1079  2.057   .     S
O1071  Zn1079  2.029   .     S
O1072  Zn1080  2.029   .     S
O1073  Zn1080  2.030   .     S
O1074  Zn1079  2.030   .     S
O1075  Zn1079  2.030   .     S
O1076  Zn1080  2.030   .     S
O1077  Zn1080  2.026   .     S
O1078  Zn1079  2.026   .     S
C1081  O1161   1.301   .     A
C1081  O1163   1.304   .     A
C1081  C1125   1.425   .     S
C1082  C1093   1.394   .     A
C1082  C1097   1.438   .     S
C1082  C1084   1.387   .     A
C1083  C1129   1.454   .     S
C1083  C1130   1.414   .     A
C1083  C1085   1.399   .     A
C1084  C1086   1.399   .     A
C1084  C1128   1.460   .     S
C1085  C1087   1.401   .     A
C1085  C1098   1.491   .     S
C1086  C1105   1.471   .     S
C1086  C1088   1.411   .     A
C1087  C1094   1.406   .     A
C1087  C1089   1.415   .     A
C1088  C1090   1.404   .     A
C1088  C1095   1.386   .     A
C1089  C1091   1.430   .     A
C1090  C1093   1.412   .     A
C1090  C279    1.408   1_556 S
C1091  C1114   1.439   .     A
C1091  C1130   1.421   .     A
C1092  O1164   1.312   .     A
C1092  C1127   1.433   .     S
C1092  O1162   1.295   .     A
C1093  C1103   1.412   .     A
C1094  H1131   1.077   .     S
C1095  H1142   1.078   .     S
C1095  C304    1.401   1_556 S
C1096  C1130   1.443   .     S
C1096  N1157   1.155   .     T
C1097  N1158   1.154   .     T
C1098  C1104   1.405   .     A
C1098  C1099   1.401   .     A
C1099  C1100   1.396   .     A
C1099  H1150   1.083   .     S
C1100  C1101   1.397   .     A
C1100  H1241   1.078   .     S
C1101  C1102   1.390   .     A
C1101  H1422   1.078   .     S
C1102  C1104   1.393   .     A
C1102  H1423   1.081   .     S
C1103  C1111   1.499   .     S
C1103  C284    1.390   1_556 S
C1104  H1154   1.078   .     S
C1105  C1106   1.394   .     A
C1105  C1110   1.399   .     A
C1106  H1132   1.072   .     S
C1107  H1133   1.078   .     S
C1107  C1376   1.391   .     S
C1107  C1378   1.391   .     S
C1108  C1109   1.398   .     A
C1109  C1110   1.386   .     A
C1109  H1315   1.079   1_455 S
C1110  H1136   1.084   .     S
C1111  C1112   1.405   .     A
C1111  C1387   1.412   .     S
C1112  H1137   1.081   .     S
C1112  C1383   1.387   .     S
C1113  C1115   1.396   .     A
C1114  C1118   1.498   .     S
C1115  C1116   1.390   .     A
C1115  H1139   1.081   .     S
C1116  C1117   1.394   .     A
C1116  H1140   1.081   .     S
C1117  H331    1.075   1_556 S
C1118  C1119   1.411   .     A
C1120  C1121   1.383   .     A
C1120  C1389   1.394   .     S
C1120  H514    1.071   1_455 S
C1121  C1122   1.386   .     A
C1121  H1145   1.083   .     S
C1122  C1123   1.401   .     A
C1122  H1146   1.066   .     S
C1123  C1388   1.404   .     S
C1123  H1417   1.079   .     S
C1124  N1159   1.153   .     T
C1125  C1394   1.448   .     S
C1125  C1397   1.359   .     S
C1126  N1160   1.154   .     T
C1126  C1397   1.449   .     S
C1128  O1167   1.315   .     A
C1128  O1165   1.305   .     A
C1129  O1168   1.311   .     A
C1129  O1166   1.303   .     A
H1134  C1378   1.080   .     S
H1135  C1199   1.079   .     S
H1138  C1383   1.076   .     S
H1143  C309    1.080   1_556 S
H1144  C400    1.071   1_556 S
H1148  N1335   1.029   1_455 S
H1149  N1246   1.030   .     S
H1151  C1280   1.078   1_455 S
N1155  Zn1170  2.057   .     S
N1155  H1238   1.029   .     S
N1155  N1246   1.294   .     S
N1156  Zn1169  2.057   .     S
N1156  H1329   1.030   1_455 S
N1156  N1335   1.294   1_455 S
O1161  Zn1169  2.029   .     S
O1162  Zn1170  2.029   .     S
O1163  Zn1170  2.030   .     S
O1164  Zn1169  2.030   .     S
O1165  Zn1169  2.030   .     S
O1166  Zn1170  2.030   .     S
O1167  Zn1170  2.026   .     S
O1168  Zn1169  2.026   .     S
C1171  O1251   1.301   .     A
C1171  O1253   1.304   .     A
C1171  C1215   1.425   .     S
C1172  C1183   1.394   .     A
C1172  C1187   1.438   .     S
C1172  C1174   1.387   .     A
C1173  C1219   1.454   .     S
C1173  C1220   1.414   .     A
C1173  C1175   1.399   .     A
C1174  C1176   1.399   .     A
C1174  C1218   1.460   .     S
C1175  C1177   1.401   .     A
C1175  C1188   1.491   .     S
C1176  C1195   1.471   .     S
C1176  C1178   1.411   .     A
C1177  C1184   1.406   .     A
C1177  C1179   1.415   .     A
C1178  C1180   1.404   .     A
C1178  C1185   1.386   .     A
C1179  C1181   1.430   .     A
C1180  C1183   1.412   .     A
C1180  C369    1.408   1_556 S
C1181  C1204   1.439   .     A
C1181  C1220   1.421   .     A
C1182  O1254   1.312   .     A
C1182  C1217   1.433   .     S
C1182  O1252   1.295   .     A
C1183  C1193   1.412   .     A
C1184  H1221   1.077   .     S
C1185  H1232   1.078   .     S
C1185  C394    1.401   1_556 S
C1186  C1220   1.443   .     S
C1186  N1247   1.155   .     T
C1187  N1248   1.154   .     T
C1188  C1194   1.405   .     A
C1188  C1189   1.401   .     A
C1189  C1190   1.396   .     A
C1189  H1240   1.083   .     S
C1190  C1191   1.397   .     A
C1190  H1331   1.078   .     S
C1191  C1192   1.390   .     A
C1191  H1512   1.078   .     S
C1192  C1194   1.393   .     A
C1192  H1513   1.081   .     S
C1193  C1201   1.499   .     S
C1193  C374    1.390   1_556 S
C1194  H1244   1.078   .     S
C1195  C1196   1.394   .     A
C1195  C1200   1.399   .     A
C1196  H1222   1.072   .     S
C1197  H1223   1.078   .     S
C1197  C1466   1.391   .     S
C1197  C1468   1.391   .     S
C1198  C1199   1.398   .     A
C1199  C1200   1.386   .     A
C1200  H1226   1.084   .     S
C1201  C1202   1.405   .     A
C1201  C1477   1.412   .     S
C1202  H1227   1.081   .     S
C1202  C1473   1.387   .     S
C1203  C1205   1.396   .     A
C1204  C1208   1.498   .     S
C1205  C1206   1.390   .     A
C1205  H1229   1.081   .     S
C1206  C1207   1.394   .     A
C1206  H1230   1.081   .     S
C1207  H421    1.075   1_556 S
C1208  C1209   1.411   .     A
C1210  C1211   1.383   .     A
C1210  C1479   1.394   .     S
C1211  C1212   1.386   .     A
C1211  H1235   1.083   .     S
C1212  C1213   1.401   .     A
C1212  H1236   1.066   .     S
C1213  C1478   1.404   .     S
C1213  H1507   1.079   .     S
C1214  N1249   1.153   .     T
C1215  C1484   1.448   .     S
C1215  C1487   1.359   .     S
C1216  N1250   1.154   .     T
C1216  C1487   1.449   .     S
C1218  O1257   1.315   .     A
C1218  O1255   1.305   .     A
C1219  O1258   1.311   .     A
C1219  O1256   1.303   .     A
H1224  C1468   1.080   .     S
H1225  C1289   1.079   .     S
H1228  C1473   1.076   .     S
H1233  C399    1.080   1_556 S
H1234  C490    1.071   1_556 S
H1239  N1336   1.030   .     S
N1245  Zn1260  2.057   .     S
N1245  H1328   1.029   .     S
N1245  N1336   1.294   .     S
N1246  Zn1259  2.057   .     S
O1251  Zn1259  2.029   .     S
O1252  Zn1260  2.029   .     S
O1253  Zn1260  2.030   .     S
O1254  Zn1259  2.030   .     S
O1255  Zn1259  2.030   .     S
O1256  Zn1260  2.030   .     S
O1257  Zn1260  2.026   .     S
O1258  Zn1259  2.026   .     S
C1261  O1341   1.301   .     A
C1261  O1343   1.304   .     A
C1261  C1305   1.425   .     S
C1262  C1273   1.394   .     A
C1262  C1277   1.438   .     S
C1262  C1264   1.387   .     A
C1263  C1309   1.454   .     S
C1263  C1310   1.414   .     A
C1263  C1265   1.399   .     A
C1264  C1266   1.399   .     A
C1264  C1308   1.460   .     S
C1265  C1267   1.401   .     A
C1265  C1278   1.491   .     S
C1266  C1285   1.471   .     S
C1266  C1268   1.411   .     A
C1267  C1274   1.406   .     A
C1267  C1269   1.415   .     A
C1268  C1270   1.404   .     A
C1268  C1275   1.386   .     A
C1269  C1271   1.430   .     A
C1270  C1273   1.412   .     A
C1270  C459    1.408   1_556 S
C1271  C1294   1.439   .     A
C1271  C1310   1.421   .     A
C1272  O1344   1.312   .     A
C1272  C1307   1.433   .     S
C1272  O1342   1.295   .     A
C1273  C1283   1.412   .     A
C1274  H1311   1.077   .     S
C1275  H1322   1.078   .     S
C1275  C484    1.401   1_556 S
C1276  C1310   1.443   .     S
C1276  N1337   1.155   .     T
C1277  N1338   1.154   .     T
C1278  C1284   1.405   .     A
C1278  C1279   1.401   .     A
C1279  C1280   1.396   .     A
C1279  H1330   1.083   .     S
C1280  C1281   1.397   .     A
C1280  H1151   1.078   1_655 S
C1281  C1282   1.390   .     A
C1281  H1602   1.078   .     S
C1282  C1284   1.393   .     A
C1282  H1603   1.081   .     S
C1283  C1291   1.499   .     S
C1283  C464    1.390   1_556 S
C1284  H1334   1.078   .     S
C1285  C1286   1.394   .     A
C1285  C1290   1.399   .     A
C1286  H1312   1.072   .     S
C1287  H1313   1.078   .     S
C1287  C1556   1.391   .     S
C1287  C1558   1.391   .     S
C1288  C1289   1.398   .     A
C1289  C1290   1.386   .     A
C1290  H1316   1.084   .     S
C1291  C1292   1.405   .     A
C1291  C1567   1.412   .     S
C1292  H1317   1.081   .     S
C1292  C1563   1.387   .     S
C1293  C1295   1.396   .     A
C1294  C1298   1.498   .     S
C1295  C1296   1.390   .     A
C1295  H1319   1.081   .     S
C1296  C1297   1.394   .     A
C1296  H1320   1.081   .     S
C1297  H511    1.075   1_556 S
C1298  C1299   1.411   .     A
C1300  C1301   1.383   .     A
C1300  C1569   1.394   .     S
C1301  C1302   1.386   .     A
C1301  H1325   1.083   .     S
C1302  C1303   1.401   .     A
C1302  H1326   1.066   .     S
C1303  C1568   1.404   .     S
C1303  H1597   1.079   .     S
C1304  N1339   1.153   .     T
C1305  C1574   1.448   .     S
C1305  C1577   1.359   .     S
C1306  N1340   1.154   .     T
C1306  C1577   1.449   .     S
C1308  O1347   1.315   .     A
C1308  O1345   1.305   .     A
C1309  O1348   1.311   .     A
C1309  O1346   1.303   .     A
H1314  C1558   1.080   .     S
H1315  C1109   1.079   1_655 S
H1318  C1563   1.076   .     S
H1323  C489    1.080   1_556 S
H1324  C310    1.071   1_656 S
H1329  N1156   1.030   1_655 S
N1335  Zn1350  2.057   .     S
N1335  H1148   1.029   1_655 S
N1335  N1156   1.294   1_655 S
N1336  Zn1349  2.057   .     S
O1341  Zn1349  2.029   .     S
O1342  Zn1350  2.029   .     S
O1343  Zn1350  2.030   .     S
O1344  Zn1349  2.030   .     S
O1345  Zn1349  2.030   .     S
O1346  Zn1350  2.030   .     S
O1347  Zn1350  2.026   .     S
O1348  Zn1349  2.026   .     S
C1351  O1431   1.301   .     A
C1351  O1433   1.304   .     A
C1351  C1395   1.425   .     S
C1352  C1363   1.394   .     A
C1352  C1367   1.438   .     S
C1352  C1354   1.387   .     A
C1353  C1399   1.454   .     S
C1353  C1400   1.414   .     A
C1353  C1355   1.399   .     A
C1354  C1356   1.399   .     A
C1354  C1398   1.460   .     S
C1355  C1357   1.401   .     A
C1355  C1368   1.491   .     S
C1356  C1375   1.471   .     S
C1356  C1358   1.411   .     A
C1357  C1364   1.406   .     A
C1357  C1359   1.415   .     A
C1358  C1360   1.404   .     A
C1358  C1365   1.386   .     A
C1359  C1361   1.430   .     A
C1360  C1363   1.412   .     A
C1360  C549    1.408   1_556 S
C1361  C1384   1.439   .     A
C1361  C1400   1.421   .     A
C1362  O1434   1.312   .     A
C1362  C1397   1.433   .     S
C1362  O1432   1.295   .     A
C1363  C1373   1.412   .     A
C1364  H1401   1.077   .     S
C1365  H1412   1.078   .     S
C1365  C574    1.401   1_556 S
C1366  C1400   1.443   .     S
C1366  N1427   1.155   .     T
C1367  N1428   1.154   .     T
C1368  C1374   1.405   .     A
C1368  C1369   1.401   .     A
C1369  C1370   1.396   .     A
C1369  H1420   1.083   .     S
C1370  C1371   1.397   .     A
C1370  H1511   1.078   .     S
C1371  C1372   1.390   .     A
C1371  H882    1.078   1_565 S
C1372  C1374   1.393   .     A
C1372  H883    1.081   1_565 S
C1373  C1381   1.499   .     S
C1373  C554    1.390   1_556 S
C1374  H1424   1.078   .     S
C1375  C1376   1.394   .     A
C1375  C1380   1.399   .     A
C1376  H1402   1.072   .     S
C1377  H1403   1.078   .     S
C1377  C836    1.391   1_565 S
C1377  C838    1.391   1_565 S
C1378  C1379   1.398   .     A
C1379  C1380   1.386   .     A
C1379  H1585   1.079   1_455 S
C1380  H1406   1.084   .     S
C1381  C1382   1.405   .     A
C1381  C847    1.412   1_565 S
C1382  H1407   1.081   .     S
C1382  C843    1.387   1_565 S
C1383  C1385   1.396   .     A
C1384  C1388   1.498   .     S
C1385  C1386   1.390   .     A
C1385  H1409   1.081   .     S
C1386  C1387   1.394   .     A
C1386  H1410   1.081   .     S
C1387  H601    1.075   1_556 S
C1388  C1389   1.411   .     A
C1390  C1391   1.383   .     A
C1390  C849    1.394   1_565 S
C1390  H784    1.071   1_455 S
C1391  C1392   1.386   .     A
C1391  H1415   1.083   .     S
C1392  C1393   1.401   .     A
C1392  H1416   1.066   .     S
C1393  C848    1.404   1_565 S
C1393  H877    1.079   1_565 S
C1394  N1429   1.153   .     T
C1395  C854    1.448   1_565 S
C1395  C857    1.359   1_565 S
C1396  N1430   1.154   .     T
C1396  C857    1.449   1_565 S
C1398  O1437   1.315   .     A
C1398  O1435   1.305   .     A
C1399  O1438   1.311   .     A
C1399  O1436   1.303   .     A
H1404  C838    1.080   1_565 S
H1405  C1469   1.079   .     S
H1408  C843    1.076   1_565 S
H1413  C579    1.080   1_556 S
H1414  C670    1.071   1_556 S
H1418  N1605   1.029   1_455 S
H1419  N1516   1.030   .     S
H1421  C1550   1.078   1_455 S
N1425  Zn1440  2.057   .     S
N1425  H1508   1.029   .     S
N1425  N1516   1.294   .     S
N1426  Zn1439  2.057   .     S
N1426  H1599   1.030   1_455 S
N1426  N1605   1.294   1_455 S
O1431  Zn1439  2.029   .     S
O1432  Zn1440  2.029   .     S
O1433  Zn1440  2.030   .     S
O1434  Zn1439  2.030   .     S
O1435  Zn1439  2.030   .     S
O1436  Zn1440  2.030   .     S
O1437  Zn1440  2.026   .     S
O1438  Zn1439  2.026   .     S
C1441  O1521   1.301   .     A
C1441  O1523   1.304   .     A
C1441  C1485   1.425   .     S
C1442  C1453   1.394   .     A
C1442  C1457   1.438   .     S
C1442  C1444   1.387   .     A
C1443  C1489   1.454   .     S
C1443  C1490   1.414   .     A
C1443  C1445   1.399   .     A
C1444  C1446   1.399   .     A
C1444  C1488   1.460   .     S
C1445  C1447   1.401   .     A
C1445  C1458   1.491   .     S
C1446  C1465   1.471   .     S
C1446  C1448   1.411   .     A
C1447  C1454   1.406   .     A
C1447  C1449   1.415   .     A
C1448  C1450   1.404   .     A
C1448  C1455   1.386   .     A
C1449  C1451   1.430   .     A
C1450  C1453   1.412   .     A
C1450  C639    1.408   1_556 S
C1451  C1474   1.439   .     A
C1451  C1490   1.421   .     A
C1452  O1524   1.312   .     A
C1452  C1487   1.433   .     S
C1452  O1522   1.295   .     A
C1453  C1463   1.412   .     A
C1454  H1491   1.077   .     S
C1455  H1502   1.078   .     S
C1455  C664    1.401   1_556 S
C1456  C1490   1.443   .     S
C1456  N1517   1.155   .     T
C1457  N1518   1.154   .     T
C1458  C1464   1.405   .     A
C1458  C1459   1.401   .     A
C1459  C1460   1.396   .     A
C1459  H1510   1.083   .     S
C1460  C1461   1.397   .     A
C1460  H1601   1.078   .     S
C1461  C1462   1.390   .     A
C1461  H972    1.078   1_565 S
C1462  C1464   1.393   .     A
C1462  H973    1.081   1_565 S
C1463  C1471   1.499   .     S
C1463  C644    1.390   1_556 S
C1464  H1514   1.078   .     S
C1465  C1466   1.394   .     A
C1465  C1470   1.399   .     A
C1466  H1492   1.072   .     S
C1467  H1493   1.078   .     S
C1467  C926    1.391   1_565 S
C1467  C928    1.391   1_565 S
C1468  C1469   1.398   .     A
C1469  C1470   1.386   .     A
C1470  H1496   1.084   .     S
C1471  C1472   1.405   .     A
C1471  C937    1.412   1_565 S
C1472  H1497   1.081   .     S
C1472  C933    1.387   1_565 S
C1473  C1475   1.396   .     A
C1474  C1478   1.498   .     S
C1475  C1476   1.390   .     A
C1475  H1499   1.081   .     S
C1476  C1477   1.394   .     A
C1476  H1500   1.081   .     S
C1477  H691    1.075   1_556 S
C1478  C1479   1.411   .     A
C1480  C1481   1.383   .     A
C1480  C939    1.394   1_565 S
C1481  C1482   1.386   .     A
C1481  H1505   1.083   .     S
C1482  C1483   1.401   .     A
C1482  H1506   1.066   .     S
C1483  C938    1.404   1_565 S
C1483  H967    1.079   1_565 S
C1484  N1519   1.153   .     T
C1485  C944    1.448   1_565 S
C1485  C947    1.359   1_565 S
C1486  N1520   1.154   .     T
C1486  C947    1.449   1_565 S
C1488  O1527   1.315   .     A
C1488  O1525   1.305   .     A
C1489  O1528   1.311   .     A
C1489  O1526   1.303   .     A
H1494  C928    1.080   1_565 S
H1495  C1559   1.079   .     S
H1498  C933    1.076   1_565 S
H1503  C669    1.080   1_556 S
H1504  C760    1.071   1_556 S
H1509  N1606   1.030   .     S
N1515  Zn1530  2.057   .     S
N1515  H1598   1.029   .     S
N1515  N1606   1.294   .     S
N1516  Zn1529  2.057   .     S
O1521  Zn1529  2.029   .     S
O1522  Zn1530  2.029   .     S
O1523  Zn1530  2.030   .     S
O1524  Zn1529  2.030   .     S
O1525  Zn1529  2.030   .     S
O1526  Zn1530  2.030   .     S
O1527  Zn1530  2.026   .     S
O1528  Zn1529  2.026   .     S
C1531  O1611   1.301   .     A
C1531  O1613   1.304   .     A
C1531  C1575   1.425   .     S
C1532  C1543   1.394   .     A
C1532  C1547   1.438   .     S
C1532  C1534   1.387   .     A
C1533  C1579   1.454   .     S
C1533  C1580   1.414   .     A
C1533  C1535   1.399   .     A
C1534  C1536   1.399   .     A
C1534  C1578   1.460   .     S
C1535  C1537   1.401   .     A
C1535  C1548   1.491   .     S
C1536  C1555   1.471   .     S
C1536  C1538   1.411   .     A
C1537  C1544   1.406   .     A
C1537  C1539   1.415   .     A
C1538  C1540   1.404   .     A
C1538  C1545   1.386   .     A
C1539  C1541   1.430   .     A
C1540  C1543   1.412   .     A
C1540  C729    1.408   1_556 S
C1541  C1564   1.439   .     A
C1541  C1580   1.421   .     A
C1542  O1614   1.312   .     A
C1542  C1577   1.433   .     S
C1542  O1612   1.295   .     A
C1543  C1553   1.412   .     A
C1544  H1581   1.077   .     S
C1545  H1592   1.078   .     S
C1545  C754    1.401   1_556 S
C1546  C1580   1.443   .     S
C1546  N1607   1.155   .     T
C1547  N1608   1.154   .     T
C1548  C1554   1.405   .     A
C1548  C1549   1.401   .     A
C1549  C1550   1.396   .     A
C1549  H1600   1.083   .     S
C1550  C1551   1.397   .     A
C1550  H1421   1.078   1_655 S
C1551  C1552   1.390   .     A
C1551  H1062   1.078   1_565 S
C1552  C1554   1.393   .     A
C1552  H1063   1.081   1_565 S
C1553  C1561   1.499   .     S
C1553  C734    1.390   1_556 S
C1554  H1604   1.078   .     S
C1555  C1556   1.394   .     A
C1555  C1560   1.399   .     A
C1556  H1582   1.072   .     S
C1557  H1583   1.078   .     S
C1557  C1016   1.391   1_565 S
C1557  C1018   1.391   1_565 S
C1558  C1559   1.398   .     A
C1559  C1560   1.386   .     A
C1560  H1586   1.084   .     S
C1561  C1562   1.405   .     A
C1561  C1027   1.412   1_565 S
C1562  H1587   1.081   .     S
C1562  C1023   1.387   1_565 S
C1563  C1565   1.396   .     A
C1564  C1568   1.498   .     S
C1565  C1566   1.390   .     A
C1565  H1589   1.081   .     S
C1566  C1567   1.394   .     A
C1566  H1590   1.081   .     S
C1567  H781    1.075   1_556 S
C1568  C1569   1.411   .     A
C1570  C1571   1.383   .     A
C1570  C1029   1.394   1_565 S
C1571  C1572   1.386   .     A
C1571  H1595   1.083   .     S
C1572  C1573   1.401   .     A
C1572  H1596   1.066   .     S
C1573  C1028   1.404   1_565 S
C1573  H1057   1.079   1_565 S
C1574  N1609   1.153   .     T
C1575  C1034   1.448   1_565 S
C1575  C1037   1.359   1_565 S
C1576  N1610   1.154   .     T
C1576  C1037   1.449   1_565 S
C1578  O1617   1.315   .     A
C1578  O1615   1.305   .     A
C1579  O1618   1.311   .     A
C1579  O1616   1.303   .     A
H1584  C1018   1.080   1_565 S
H1585  C1379   1.079   1_655 S
H1588  C1023   1.076   1_565 S
H1593  C759    1.080   1_556 S
H1594  C580    1.071   1_656 S
H1599  N1426   1.030   1_655 S
N1605  Zn1620  2.057   .     S
N1605  H1418   1.029   1_655 S
N1605  N1426   1.294   1_655 S
N1606  Zn1619  2.057   .     S
O1611  Zn1619  2.029   .     S
O1612  Zn1620  2.029   .     S
O1613  Zn1620  2.030   .     S
O1614  Zn1619  2.030   .     S
O1615  Zn1619  2.030   .     S
O1616  Zn1620  2.030   .     S
O1617  Zn1620  2.026   .     S
O1618  Zn1619  2.026   .     S
