data_str_m3_o10_o17_pcu_sym.37
_audit_creation_date              2020-01-03
_audit_creation_method            'Materials Studio'
_symmetry_space_group_name_H-M    'P1'
_symmetry_Int_Tables_number       1
_symmetry_cell_setting            triclinic
loop_
_symmetry_equiv_pos_as_xyz
  x,y,z
_cell_length_a                    23.2791
_cell_length_b                    25.9081
_cell_length_c                    29.8050
_cell_angle_alpha                 91.2809
_cell_angle_beta                  86.2273
_cell_angle_gamma                 93.4172
loop_
_atom_site_label
_atom_site_type_symbol
_atom_site_fract_x
_atom_site_fract_y
_atom_site_fract_z
_atom_site_U_iso_or_equiv
_atom_site_adp_type
_atom_site_occupancy
C1     C     0.18166   0.26470   0.24875   0.00000  Uiso   1.00
C2     C     0.18210   0.21333   0.40661   0.00000  Uiso   1.00
C3     C     0.16313   0.16704   0.11620   0.00000  Uiso   1.00
C4     C     0.16918   0.16685   0.38379   0.00000  Uiso   1.00
C5     C     0.18485   0.21131   0.09370   0.00000  Uiso   1.00
C6     C     0.15471   0.12058   0.40580   0.00000  Uiso   1.00
C7     C     0.17833   0.21430   0.04733   0.00000  Uiso   1.00
C8     C     0.14763   0.12106   0.45295   0.00000  Uiso   1.00
C9     C     0.16028   0.16850   0.02374   0.00000  Uiso   1.00
C10    C     0.16247   0.16773   0.47667   0.00000  Uiso   1.00
C11    C     0.14051   0.12332   0.04718   0.00000  Uiso   1.00
C12    C     0.15168   0.06864   0.25125   0.00000  Uiso   1.00
C13    C     0.17984   0.21369   0.45336   0.00000  Uiso   1.00
C14    C     0.18959   0.26107   0.02366   0.00000  Uiso   1.00
C15    C     0.12435   0.07722   0.47677   0.00000  Uiso   1.00
C16    C     0.19225   0.25978   0.47714   0.00000  Uiso   1.00
C17    C     0.12125   0.07895   0.02367   0.00000  Uiso   1.00
C18    C     0.18907   0.31875   0.25377   0.00000  Uiso   1.00
C19    C     0.14427   0.01459   0.24619   0.00000  Uiso   1.00
C20    C     0.16758   0.16683   0.33627   0.00000  Uiso   1.00
C21    C     0.16566   0.16641   0.16370   0.00000  Uiso   1.00
C22    C     0.13987   0.12339   0.09390   0.00000  Uiso   1.00
H23    H     0.20244   0.29582   0.45980   0.00000  Uiso   1.00
H24    H     0.17134   0.04979   0.39326   0.00000  Uiso   1.00
H25    H     0.16880   0.30865   0.07193   0.00000  Uiso   1.00
H26    H     0.08832   0.00706   0.47589   0.00000  Uiso   1.00
H27    H     0.27640   0.33025   0.24896   0.00000  Uiso   1.00
H28    H     0.24711   0.32219   0.30208   0.00000  Uiso   1.00
H29    H     0.05696   0.00300   0.25101   0.00000  Uiso   1.00
H30    H     0.08619   0.01130   0.19791   0.00000  Uiso   1.00
H31    H     0.10378   0.04509   0.04168   0.00000  Uiso   1.00
H32    H     0.00464   0.12755   0.21620   0.00000  Uiso   1.00
H33    H     0.32869   0.20579   0.28379   0.00000  Uiso   1.00
H34    H     0.15149   0.06539   0.13666   0.00000  Uiso   1.00
H35    H     0.08436   0.08824   0.14077   0.00000  Uiso   1.00
H36    H     0.16364   0.26816   0.36285   0.00000  Uiso   1.00
H37    H     0.23412   0.25416   0.36113   0.00000  Uiso   1.00
H38    H     0.24668   0.26405   0.09814   0.00000  Uiso   1.00
N39    N     0.31678   0.15265   0.23783   0.00000  Uiso   1.00
N40    N     0.01656   0.18068   0.26217   0.00000  Uiso   1.00
N41    N     0.11846   0.07819   0.11833   0.00000  Uiso   1.00
N42    N     0.19754   0.26011   0.38245   0.00000  Uiso   1.00
N43    N     0.24202   0.00632   0.27142   0.00000  Uiso   1.00
N44    N     0.09133   0.32704   0.22850   0.00000  Uiso   1.00
O45    O     0.12975   0.24619   0.25299   0.00000  Uiso   1.00
O46    O     0.14820   0.07587   0.38012   0.00000  Uiso   1.00
O47    O     0.19507   0.30906   0.04439   0.00000  Uiso   1.00
O48    O     0.10245   0.03401   0.45407   0.00000  Uiso   1.00
O49    O     0.20358   0.08714   0.24702   0.00000  Uiso   1.00
O50    O     0.22613   0.23721   0.24519   0.00000  Uiso   1.00
O51    O     0.10720   0.09613   0.25482   0.00000  Uiso   1.00
O52    O     0.11847   0.17117   0.31998   0.00000  Uiso   1.00
O53    O     0.21486   0.16216   0.18003   0.00000  Uiso   1.00
O54    O     0.21485   0.16219   0.31218   0.00000  Uiso   1.00
O55    O     0.11848   0.17115   0.18783   0.00000  Uiso   1.00
O56    O     0.21400   0.24954   0.11784   0.00000  Uiso   1.00
Zn57   Zn    0.10231   0.17266   0.25521   0.00000  Uiso   1.00
Zn58   Zn    0.23102   0.16067   0.24479   0.00000  Uiso   1.00
C59    C     0.51499   0.26470   0.24875   0.00000  Uiso   1.00
C60    C     0.51544   0.21333   0.40661   0.00000  Uiso   1.00
C61    C     0.49646   0.16704   0.11620   0.00000  Uiso   1.00
C62    C     0.50251   0.16685   0.38379   0.00000  Uiso   1.00
C63    C     0.51818   0.21131   0.09370   0.00000  Uiso   1.00
C64    C     0.48804   0.12058   0.40580   0.00000  Uiso   1.00
C65    C     0.51167   0.21430   0.04733   0.00000  Uiso   1.00
C66    C     0.48096   0.12106   0.45295   0.00000  Uiso   1.00
C67    C     0.49361   0.16850   0.02374   0.00000  Uiso   1.00
C68    C     0.49580   0.16773   0.47667   0.00000  Uiso   1.00
C69    C     0.47384   0.12332   0.04718   0.00000  Uiso   1.00
C70    C     0.48501   0.06864   0.25125   0.00000  Uiso   1.00
C71    C     0.51317   0.21369   0.45336   0.00000  Uiso   1.00
C72    C     0.52292   0.26107   0.02366   0.00000  Uiso   1.00
C73    C     0.45768   0.07722   0.47677   0.00000  Uiso   1.00
C74    C     0.52558   0.25978   0.47714   0.00000  Uiso   1.00
C75    C     0.45459   0.07895   0.02367   0.00000  Uiso   1.00
C76    C     0.52240   0.31875   0.25377   0.00000  Uiso   1.00
C77    C     0.47760   0.01459   0.24619   0.00000  Uiso   1.00
C78    C     0.50092   0.16683   0.33627   0.00000  Uiso   1.00
C79    C     0.49900   0.16641   0.16370   0.00000  Uiso   1.00
C80    C     0.47320   0.12339   0.09390   0.00000  Uiso   1.00
H81    H     0.53577   0.29582   0.45980   0.00000  Uiso   1.00
H82    H     0.50467   0.04979   0.39326   0.00000  Uiso   1.00
H83    H     0.50213   0.30865   0.07193   0.00000  Uiso   1.00
H84    H     0.42165   0.00706   0.47589   0.00000  Uiso   1.00
H85    H     0.60973   0.33025   0.24896   0.00000  Uiso   1.00
H86    H     0.58044   0.32219   0.30208   0.00000  Uiso   1.00
H87    H     0.39029   0.00300   0.25101   0.00000  Uiso   1.00
H88    H     0.41952   0.01130   0.19791   0.00000  Uiso   1.00
H89    H     0.43711   0.04509   0.04168   0.00000  Uiso   1.00
H90    H     0.33798   0.12755   0.21620   0.00000  Uiso   1.00
H91    H     0.66202   0.20579   0.28379   0.00000  Uiso   1.00
H92    H     0.48483   0.06539   0.13666   0.00000  Uiso   1.00
H93    H     0.41769   0.08824   0.14077   0.00000  Uiso   1.00
H94    H     0.49697   0.26816   0.36285   0.00000  Uiso   1.00
H95    H     0.56745   0.25416   0.36113   0.00000  Uiso   1.00
H96    H     0.58002   0.26405   0.09814   0.00000  Uiso   1.00
N97    N     0.65011   0.15265   0.23783   0.00000  Uiso   1.00
N98    N     0.34989   0.18068   0.26217   0.00000  Uiso   1.00
N99    N     0.45179   0.07819   0.11833   0.00000  Uiso   1.00
N100   N     0.53087   0.26011   0.38245   0.00000  Uiso   1.00
N101   N     0.57535   0.00632   0.27142   0.00000  Uiso   1.00
N102   N     0.42466   0.32704   0.22850   0.00000  Uiso   1.00
O103   O     0.46308   0.24619   0.25299   0.00000  Uiso   1.00
O104   O     0.48153   0.07587   0.38012   0.00000  Uiso   1.00
O105   O     0.52841   0.30906   0.04439   0.00000  Uiso   1.00
O106   O     0.43579   0.03401   0.45407   0.00000  Uiso   1.00
O107   O     0.53692   0.08714   0.24702   0.00000  Uiso   1.00
O108   O     0.55946   0.23721   0.24519   0.00000  Uiso   1.00
O109   O     0.44054   0.09613   0.25482   0.00000  Uiso   1.00
O110   O     0.45181   0.17117   0.31998   0.00000  Uiso   1.00
O111   O     0.54819   0.16216   0.18003   0.00000  Uiso   1.00
O112   O     0.54819   0.16219   0.31218   0.00000  Uiso   1.00
O113   O     0.45181   0.17115   0.18783   0.00000  Uiso   1.00
O114   O     0.54733   0.24954   0.11784   0.00000  Uiso   1.00
Zn115  Zn    0.43565   0.17266   0.25521   0.00000  Uiso   1.00
Zn116  Zn    0.56435   0.16067   0.24479   0.00000  Uiso   1.00
C117   C     0.84832   0.26470   0.24875   0.00000  Uiso   1.00
C118   C     0.84877   0.21333   0.40661   0.00000  Uiso   1.00
C119   C     0.82980   0.16704   0.11620   0.00000  Uiso   1.00
C120   C     0.83584   0.16685   0.38379   0.00000  Uiso   1.00
C121   C     0.85151   0.21131   0.09370   0.00000  Uiso   1.00
C122   C     0.82138   0.12058   0.40580   0.00000  Uiso   1.00
C123   C     0.84500   0.21430   0.04733   0.00000  Uiso   1.00
C124   C     0.81429   0.12106   0.45295   0.00000  Uiso   1.00
C125   C     0.82694   0.16850   0.02374   0.00000  Uiso   1.00
C126   C     0.82913   0.16773   0.47667   0.00000  Uiso   1.00
C127   C     0.80718   0.12332   0.04718   0.00000  Uiso   1.00
C128   C     0.81834   0.06864   0.25125   0.00000  Uiso   1.00
C129   C     0.84651   0.21369   0.45336   0.00000  Uiso   1.00
C130   C     0.85626   0.26107   0.02366   0.00000  Uiso   1.00
C131   C     0.79102   0.07722   0.47677   0.00000  Uiso   1.00
C132   C     0.85891   0.25978   0.47714   0.00000  Uiso   1.00
C133   C     0.78792   0.07895   0.02367   0.00000  Uiso   1.00
C134   C     0.85574   0.31875   0.25377   0.00000  Uiso   1.00
C135   C     0.81093   0.01459   0.24619   0.00000  Uiso   1.00
C136   C     0.83425   0.16683   0.33627   0.00000  Uiso   1.00
C137   C     0.83233   0.16641   0.16370   0.00000  Uiso   1.00
C138   C     0.80654   0.12339   0.09390   0.00000  Uiso   1.00
H139   H     0.86911   0.29582   0.45980   0.00000  Uiso   1.00
H140   H     0.83800   0.04979   0.39326   0.00000  Uiso   1.00
H141   H     0.83546   0.30865   0.07193   0.00000  Uiso   1.00
H142   H     0.75499   0.00706   0.47589   0.00000  Uiso   1.00
H143   H     0.94306   0.33025   0.24896   0.00000  Uiso   1.00
H144   H     0.91377   0.32219   0.30208   0.00000  Uiso   1.00
H145   H     0.72362   0.00300   0.25101   0.00000  Uiso   1.00
H146   H     0.75286   0.01130   0.19791   0.00000  Uiso   1.00
H147   H     0.77045   0.04509   0.04168   0.00000  Uiso   1.00
H148   H     0.67131   0.12755   0.21620   0.00000  Uiso   1.00
H149   H     0.99536   0.20579   0.28379   0.00000  Uiso   1.00
H150   H     0.81816   0.06539   0.13666   0.00000  Uiso   1.00
H151   H     0.75102   0.08824   0.14077   0.00000  Uiso   1.00
H152   H     0.83030   0.26816   0.36285   0.00000  Uiso   1.00
H153   H     0.90079   0.25416   0.36113   0.00000  Uiso   1.00
H154   H     0.91335   0.26405   0.09814   0.00000  Uiso   1.00
N155   N     0.98344   0.15265   0.23783   0.00000  Uiso   1.00
N156   N     0.68322   0.18068   0.26217   0.00000  Uiso   1.00
N157   N     0.78513   0.07819   0.11833   0.00000  Uiso   1.00
N158   N     0.86420   0.26011   0.38245   0.00000  Uiso   1.00
N159   N     0.90869   0.00632   0.27142   0.00000  Uiso   1.00
N160   N     0.75800   0.32704   0.22850   0.00000  Uiso   1.00
O161   O     0.79642   0.24619   0.25299   0.00000  Uiso   1.00
O162   O     0.81486   0.07587   0.38012   0.00000  Uiso   1.00
O163   O     0.86174   0.30906   0.04439   0.00000  Uiso   1.00
O164   O     0.76912   0.03401   0.45407   0.00000  Uiso   1.00
O165   O     0.87025   0.08714   0.24702   0.00000  Uiso   1.00
O166   O     0.89280   0.23721   0.24519   0.00000  Uiso   1.00
O167   O     0.77387   0.09613   0.25482   0.00000  Uiso   1.00
O168   O     0.78514   0.17117   0.31998   0.00000  Uiso   1.00
O169   O     0.88153   0.16216   0.18003   0.00000  Uiso   1.00
O170   O     0.88152   0.16219   0.31218   0.00000  Uiso   1.00
O171   O     0.78515   0.17115   0.18783   0.00000  Uiso   1.00
O172   O     0.88066   0.24954   0.11784   0.00000  Uiso   1.00
Zn173  Zn    0.76898   0.17266   0.25521   0.00000  Uiso   1.00
Zn174  Zn    0.89769   0.16067   0.24479   0.00000  Uiso   1.00
C175   C     0.18166   0.59803   0.24875   0.00000  Uiso   1.00
C176   C     0.18210   0.54666   0.40661   0.00000  Uiso   1.00
C177   C     0.16313   0.50037   0.11620   0.00000  Uiso   1.00
C178   C     0.16918   0.50019   0.38379   0.00000  Uiso   1.00
C179   C     0.18485   0.54465   0.09370   0.00000  Uiso   1.00
C180   C     0.15471   0.45391   0.40580   0.00000  Uiso   1.00
C181   C     0.17833   0.54764   0.04733   0.00000  Uiso   1.00
C182   C     0.14763   0.45439   0.45295   0.00000  Uiso   1.00
C183   C     0.16028   0.50184   0.02374   0.00000  Uiso   1.00
C184   C     0.16247   0.50106   0.47667   0.00000  Uiso   1.00
C185   C     0.14051   0.45665   0.04718   0.00000  Uiso   1.00
C186   C     0.15168   0.40197   0.25125   0.00000  Uiso   1.00
C187   C     0.17984   0.54702   0.45336   0.00000  Uiso   1.00
C188   C     0.18959   0.59440   0.02366   0.00000  Uiso   1.00
C189   C     0.12435   0.41055   0.47677   0.00000  Uiso   1.00
C190   C     0.19225   0.59311   0.47714   0.00000  Uiso   1.00
C191   C     0.12125   0.41228   0.02367   0.00000  Uiso   1.00
C192   C     0.18907   0.65208   0.25377   0.00000  Uiso   1.00
C193   C     0.14427   0.34792   0.24619   0.00000  Uiso   1.00
C194   C     0.16758   0.50016   0.33627   0.00000  Uiso   1.00
C195   C     0.16566   0.49974   0.16370   0.00000  Uiso   1.00
C196   C     0.13987   0.45673   0.09390   0.00000  Uiso   1.00
H197   H     0.20244   0.62916   0.45980   0.00000  Uiso   1.00
H198   H     0.17134   0.38312   0.39326   0.00000  Uiso   1.00
H199   H     0.16880   0.64198   0.07193   0.00000  Uiso   1.00
H200   H     0.08832   0.34039   0.47589   0.00000  Uiso   1.00
H201   H     0.27640   0.66358   0.24896   0.00000  Uiso   1.00
H202   H     0.24711   0.65552   0.30208   0.00000  Uiso   1.00
H203   H     0.05696   0.33634   0.25101   0.00000  Uiso   1.00
H204   H     0.08619   0.34464   0.19791   0.00000  Uiso   1.00
H205   H     0.10378   0.37843   0.04168   0.00000  Uiso   1.00
H206   H     0.00464   0.46088   0.21620   0.00000  Uiso   1.00
H207   H     0.32869   0.53912   0.28379   0.00000  Uiso   1.00
H208   H     0.15149   0.39872   0.13666   0.00000  Uiso   1.00
H209   H     0.08436   0.42157   0.14077   0.00000  Uiso   1.00
H210   H     0.16364   0.60149   0.36285   0.00000  Uiso   1.00
H211   H     0.23412   0.58749   0.36113   0.00000  Uiso   1.00
H212   H     0.24668   0.59738   0.09814   0.00000  Uiso   1.00
N213   N     0.31678   0.48598   0.23783   0.00000  Uiso   1.00
N214   N     0.01656   0.51402   0.26217   0.00000  Uiso   1.00
N215   N     0.11846   0.41153   0.11833   0.00000  Uiso   1.00
N216   N     0.19754   0.59344   0.38245   0.00000  Uiso   1.00
N217   N     0.24202   0.33965   0.27142   0.00000  Uiso   1.00
N218   N     0.09133   0.66037   0.22850   0.00000  Uiso   1.00
O219   O     0.12975   0.57952   0.25299   0.00000  Uiso   1.00
O220   O     0.14820   0.40920   0.38012   0.00000  Uiso   1.00
O221   O     0.19507   0.64239   0.04439   0.00000  Uiso   1.00
O222   O     0.10245   0.36734   0.45407   0.00000  Uiso   1.00
O223   O     0.20358   0.42048   0.24702   0.00000  Uiso   1.00
O224   O     0.22613   0.57054   0.24519   0.00000  Uiso   1.00
O225   O     0.10720   0.42946   0.25482   0.00000  Uiso   1.00
O226   O     0.11847   0.50450   0.31998   0.00000  Uiso   1.00
O227   O     0.21486   0.49550   0.18003   0.00000  Uiso   1.00
O228   O     0.21485   0.49552   0.31218   0.00000  Uiso   1.00
O229   O     0.11848   0.50448   0.18783   0.00000  Uiso   1.00
O230   O     0.21400   0.58288   0.11784   0.00000  Uiso   1.00
Zn231  Zn    0.10231   0.50600   0.25521   0.00000  Uiso   1.00
Zn232  Zn    0.23102   0.49400   0.24479   0.00000  Uiso   1.00
C233   C     0.51499   0.59803   0.24875   0.00000  Uiso   1.00
C234   C     0.51544   0.54666   0.40661   0.00000  Uiso   1.00
C235   C     0.49646   0.50037   0.11620   0.00000  Uiso   1.00
C236   C     0.50251   0.50019   0.38379   0.00000  Uiso   1.00
C237   C     0.51818   0.54465   0.09370   0.00000  Uiso   1.00
C238   C     0.48804   0.45391   0.40580   0.00000  Uiso   1.00
C239   C     0.51167   0.54764   0.04733   0.00000  Uiso   1.00
C240   C     0.48096   0.45439   0.45295   0.00000  Uiso   1.00
C241   C     0.49361   0.50184   0.02374   0.00000  Uiso   1.00
C242   C     0.49580   0.50106   0.47667   0.00000  Uiso   1.00
C243   C     0.47384   0.45665   0.04718   0.00000  Uiso   1.00
C244   C     0.48501   0.40197   0.25125   0.00000  Uiso   1.00
C245   C     0.51317   0.54702   0.45336   0.00000  Uiso   1.00
C246   C     0.52292   0.59440   0.02366   0.00000  Uiso   1.00
C247   C     0.45768   0.41055   0.47677   0.00000  Uiso   1.00
C248   C     0.52558   0.59311   0.47714   0.00000  Uiso   1.00
C249   C     0.45459   0.41228   0.02367   0.00000  Uiso   1.00
C250   C     0.52240   0.65208   0.25377   0.00000  Uiso   1.00
C251   C     0.47760   0.34792   0.24619   0.00000  Uiso   1.00
C252   C     0.50092   0.50016   0.33627   0.00000  Uiso   1.00
C253   C     0.49900   0.49974   0.16370   0.00000  Uiso   1.00
C254   C     0.47320   0.45673   0.09390   0.00000  Uiso   1.00
H255   H     0.53577   0.62916   0.45980   0.00000  Uiso   1.00
H256   H     0.50467   0.38312   0.39326   0.00000  Uiso   1.00
H257   H     0.50213   0.64198   0.07193   0.00000  Uiso   1.00
H258   H     0.42165   0.34039   0.47589   0.00000  Uiso   1.00
H259   H     0.60973   0.66358   0.24896   0.00000  Uiso   1.00
H260   H     0.58044   0.65552   0.30208   0.00000  Uiso   1.00
H261   H     0.39029   0.33634   0.25101   0.00000  Uiso   1.00
H262   H     0.41952   0.34464   0.19791   0.00000  Uiso   1.00
H263   H     0.43711   0.37843   0.04168   0.00000  Uiso   1.00
H264   H     0.33798   0.46088   0.21620   0.00000  Uiso   1.00
H265   H     0.66202   0.53912   0.28379   0.00000  Uiso   1.00
H266   H     0.48483   0.39872   0.13666   0.00000  Uiso   1.00
H267   H     0.41769   0.42157   0.14077   0.00000  Uiso   1.00
H268   H     0.49697   0.60149   0.36285   0.00000  Uiso   1.00
H269   H     0.56745   0.58749   0.36113   0.00000  Uiso   1.00
H270   H     0.58002   0.59738   0.09814   0.00000  Uiso   1.00
N271   N     0.65011   0.48598   0.23783   0.00000  Uiso   1.00
N272   N     0.34989   0.51402   0.26217   0.00000  Uiso   1.00
N273   N     0.45179   0.41153   0.11833   0.00000  Uiso   1.00
N274   N     0.53087   0.59344   0.38245   0.00000  Uiso   1.00
N275   N     0.57535   0.33965   0.27142   0.00000  Uiso   1.00
N276   N     0.42466   0.66037   0.22850   0.00000  Uiso   1.00
O277   O     0.46308   0.57952   0.25299   0.00000  Uiso   1.00
O278   O     0.48153   0.40920   0.38012   0.00000  Uiso   1.00
O279   O     0.52841   0.64239   0.04439   0.00000  Uiso   1.00
O280   O     0.43579   0.36734   0.45407   0.00000  Uiso   1.00
O281   O     0.53692   0.42048   0.24702   0.00000  Uiso   1.00
O282   O     0.55946   0.57054   0.24519   0.00000  Uiso   1.00
O283   O     0.44054   0.42946   0.25482   0.00000  Uiso   1.00
O284   O     0.45181   0.50450   0.31998   0.00000  Uiso   1.00
O285   O     0.54819   0.49550   0.18003   0.00000  Uiso   1.00
O286   O     0.54819   0.49552   0.31218   0.00000  Uiso   1.00
O287   O     0.45181   0.50448   0.18783   0.00000  Uiso   1.00
O288   O     0.54733   0.58288   0.11784   0.00000  Uiso   1.00
Zn289  Zn    0.43565   0.50600   0.25521   0.00000  Uiso   1.00
Zn290  Zn    0.56435   0.49400   0.24479   0.00000  Uiso   1.00
C291   C     0.84832   0.59803   0.24875   0.00000  Uiso   1.00
C292   C     0.84877   0.54666   0.40661   0.00000  Uiso   1.00
C293   C     0.82980   0.50037   0.11620   0.00000  Uiso   1.00
C294   C     0.83584   0.50019   0.38379   0.00000  Uiso   1.00
C295   C     0.85151   0.54465   0.09370   0.00000  Uiso   1.00
C296   C     0.82138   0.45391   0.40580   0.00000  Uiso   1.00
C297   C     0.84500   0.54764   0.04733   0.00000  Uiso   1.00
C298   C     0.81429   0.45439   0.45295   0.00000  Uiso   1.00
C299   C     0.82694   0.50184   0.02374   0.00000  Uiso   1.00
C300   C     0.82913   0.50106   0.47667   0.00000  Uiso   1.00
C301   C     0.80718   0.45665   0.04718   0.00000  Uiso   1.00
C302   C     0.81834   0.40197   0.25125   0.00000  Uiso   1.00
C303   C     0.84651   0.54702   0.45336   0.00000  Uiso   1.00
C304   C     0.85626   0.59440   0.02366   0.00000  Uiso   1.00
C305   C     0.79102   0.41055   0.47677   0.00000  Uiso   1.00
C306   C     0.85891   0.59311   0.47714   0.00000  Uiso   1.00
C307   C     0.78792   0.41228   0.02367   0.00000  Uiso   1.00
C308   C     0.85574   0.65208   0.25377   0.00000  Uiso   1.00
C309   C     0.81093   0.34792   0.24619   0.00000  Uiso   1.00
C310   C     0.83425   0.50016   0.33627   0.00000  Uiso   1.00
C311   C     0.83233   0.49974   0.16370   0.00000  Uiso   1.00
C312   C     0.80654   0.45673   0.09390   0.00000  Uiso   1.00
H313   H     0.86911   0.62916   0.45980   0.00000  Uiso   1.00
H314   H     0.83800   0.38312   0.39326   0.00000  Uiso   1.00
H315   H     0.83546   0.64198   0.07193   0.00000  Uiso   1.00
H316   H     0.75499   0.34039   0.47589   0.00000  Uiso   1.00
H317   H     0.94306   0.66358   0.24896   0.00000  Uiso   1.00
H318   H     0.91377   0.65552   0.30208   0.00000  Uiso   1.00
H319   H     0.72362   0.33634   0.25101   0.00000  Uiso   1.00
H320   H     0.75286   0.34464   0.19791   0.00000  Uiso   1.00
H321   H     0.77045   0.37843   0.04168   0.00000  Uiso   1.00
H322   H     0.67131   0.46088   0.21620   0.00000  Uiso   1.00
H323   H     0.99536   0.53912   0.28379   0.00000  Uiso   1.00
H324   H     0.81816   0.39872   0.13666   0.00000  Uiso   1.00
H325   H     0.75102   0.42157   0.14077   0.00000  Uiso   1.00
H326   H     0.83030   0.60149   0.36285   0.00000  Uiso   1.00
H327   H     0.90079   0.58749   0.36113   0.00000  Uiso   1.00
H328   H     0.91335   0.59738   0.09814   0.00000  Uiso   1.00
N329   N     0.98344   0.48598   0.23783   0.00000  Uiso   1.00
N330   N     0.68322   0.51402   0.26217   0.00000  Uiso   1.00
N331   N     0.78513   0.41153   0.11833   0.00000  Uiso   1.00
N332   N     0.86420   0.59344   0.38245   0.00000  Uiso   1.00
N333   N     0.90869   0.33965   0.27142   0.00000  Uiso   1.00
N334   N     0.75800   0.66037   0.22850   0.00000  Uiso   1.00
O335   O     0.79642   0.57952   0.25299   0.00000  Uiso   1.00
O336   O     0.81486   0.40920   0.38012   0.00000  Uiso   1.00
O337   O     0.86174   0.64239   0.04439   0.00000  Uiso   1.00
O338   O     0.76912   0.36734   0.45407   0.00000  Uiso   1.00
O339   O     0.87025   0.42048   0.24702   0.00000  Uiso   1.00
O340   O     0.89280   0.57054   0.24519   0.00000  Uiso   1.00
O341   O     0.77387   0.42946   0.25482   0.00000  Uiso   1.00
O342   O     0.78514   0.50450   0.31998   0.00000  Uiso   1.00
O343   O     0.88153   0.49550   0.18003   0.00000  Uiso   1.00
O344   O     0.88152   0.49552   0.31218   0.00000  Uiso   1.00
O345   O     0.78515   0.50448   0.18783   0.00000  Uiso   1.00
O346   O     0.88066   0.58288   0.11784   0.00000  Uiso   1.00
Zn347  Zn    0.76898   0.50600   0.25521   0.00000  Uiso   1.00
Zn348  Zn    0.89769   0.49400   0.24479   0.00000  Uiso   1.00
C349   C     0.18166   0.93136   0.24875   0.00000  Uiso   1.00
C350   C     0.18210   0.87999   0.40661   0.00000  Uiso   1.00
C351   C     0.16313   0.83371   0.11620   0.00000  Uiso   1.00
C352   C     0.16918   0.83352   0.38379   0.00000  Uiso   1.00
C353   C     0.18485   0.87798   0.09370   0.00000  Uiso   1.00
C354   C     0.15471   0.78725   0.40580   0.00000  Uiso   1.00
C355   C     0.17833   0.88097   0.04733   0.00000  Uiso   1.00
C356   C     0.14763   0.78773   0.45295   0.00000  Uiso   1.00
C357   C     0.16028   0.83517   0.02374   0.00000  Uiso   1.00
C358   C     0.16247   0.83439   0.47667   0.00000  Uiso   1.00
C359   C     0.14051   0.78999   0.04718   0.00000  Uiso   1.00
C360   C     0.15168   0.73530   0.25125   0.00000  Uiso   1.00
C361   C     0.17984   0.88035   0.45336   0.00000  Uiso   1.00
C362   C     0.18959   0.92773   0.02366   0.00000  Uiso   1.00
C363   C     0.12435   0.74389   0.47677   0.00000  Uiso   1.00
C364   C     0.19225   0.92645   0.47714   0.00000  Uiso   1.00
C365   C     0.12125   0.74561   0.02367   0.00000  Uiso   1.00
C366   C     0.18907   0.98541   0.25377   0.00000  Uiso   1.00
C367   C     0.14427   0.68126   0.24619   0.00000  Uiso   1.00
C368   C     0.16758   0.83349   0.33627   0.00000  Uiso   1.00
C369   C     0.16566   0.83307   0.16370   0.00000  Uiso   1.00
C370   C     0.13987   0.79006   0.09390   0.00000  Uiso   1.00
H371   H     0.20244   0.96249   0.45980   0.00000  Uiso   1.00
H372   H     0.17134   0.71645   0.39326   0.00000  Uiso   1.00
H373   H     0.16880   0.97531   0.07193   0.00000  Uiso   1.00
H374   H     0.08832   0.67373   0.47589   0.00000  Uiso   1.00
H375   H     0.27640   0.99691   0.24896   0.00000  Uiso   1.00
H376   H     0.24711   0.98886   0.30208   0.00000  Uiso   1.00
H377   H     0.05696   0.66967   0.25101   0.00000  Uiso   1.00
H378   H     0.08619   0.67797   0.19791   0.00000  Uiso   1.00
H379   H     0.10378   0.71176   0.04168   0.00000  Uiso   1.00
H380   H     0.00464   0.79422   0.21620   0.00000  Uiso   1.00
H381   H     0.32869   0.87246   0.28379   0.00000  Uiso   1.00
H382   H     0.15149   0.73206   0.13666   0.00000  Uiso   1.00
H383   H     0.08436   0.75491   0.14077   0.00000  Uiso   1.00
H384   H     0.16364   0.93483   0.36285   0.00000  Uiso   1.00
H385   H     0.23412   0.92083   0.36113   0.00000  Uiso   1.00
H386   H     0.24668   0.93072   0.09814   0.00000  Uiso   1.00
N387   N     0.31678   0.81932   0.23783   0.00000  Uiso   1.00
N388   N     0.01656   0.84735   0.26217   0.00000  Uiso   1.00
N389   N     0.11846   0.74486   0.11833   0.00000  Uiso   1.00
N390   N     0.19754   0.92678   0.38245   0.00000  Uiso   1.00
N391   N     0.24202   0.67299   0.27142   0.00000  Uiso   1.00
N392   N     0.09133   0.99370   0.22850   0.00000  Uiso   1.00
O393   O     0.12975   0.91286   0.25299   0.00000  Uiso   1.00
O394   O     0.14820   0.74254   0.38012   0.00000  Uiso   1.00
O395   O     0.19507   0.97573   0.04439   0.00000  Uiso   1.00
O396   O     0.10245   0.70068   0.45407   0.00000  Uiso   1.00
O397   O     0.20358   0.75381   0.24702   0.00000  Uiso   1.00
O398   O     0.22613   0.90387   0.24519   0.00000  Uiso   1.00
O399   O     0.10720   0.76279   0.25482   0.00000  Uiso   1.00
O400   O     0.11847   0.83784   0.31998   0.00000  Uiso   1.00
O401   O     0.21486   0.82883   0.18003   0.00000  Uiso   1.00
O402   O     0.21485   0.82885   0.31218   0.00000  Uiso   1.00
O403   O     0.11848   0.83781   0.18783   0.00000  Uiso   1.00
O404   O     0.21400   0.91621   0.11784   0.00000  Uiso   1.00
Zn405  Zn    0.10231   0.83933   0.25521   0.00000  Uiso   1.00
Zn406  Zn    0.23102   0.82734   0.24479   0.00000  Uiso   1.00
C407   C     0.51499   0.93136   0.24875   0.00000  Uiso   1.00
C408   C     0.51544   0.87999   0.40661   0.00000  Uiso   1.00
C409   C     0.49646   0.83371   0.11620   0.00000  Uiso   1.00
C410   C     0.50251   0.83352   0.38379   0.00000  Uiso   1.00
C411   C     0.51818   0.87798   0.09370   0.00000  Uiso   1.00
C412   C     0.48804   0.78725   0.40580   0.00000  Uiso   1.00
C413   C     0.51167   0.88097   0.04733   0.00000  Uiso   1.00
C414   C     0.48096   0.78773   0.45295   0.00000  Uiso   1.00
C415   C     0.49361   0.83517   0.02374   0.00000  Uiso   1.00
C416   C     0.49580   0.83439   0.47667   0.00000  Uiso   1.00
C417   C     0.47384   0.78999   0.04718   0.00000  Uiso   1.00
C418   C     0.48501   0.73530   0.25125   0.00000  Uiso   1.00
C419   C     0.51317   0.88035   0.45336   0.00000  Uiso   1.00
C420   C     0.52292   0.92773   0.02366   0.00000  Uiso   1.00
C421   C     0.45768   0.74389   0.47677   0.00000  Uiso   1.00
C422   C     0.52558   0.92645   0.47714   0.00000  Uiso   1.00
C423   C     0.45459   0.74561   0.02367   0.00000  Uiso   1.00
C424   C     0.52240   0.98541   0.25377   0.00000  Uiso   1.00
C425   C     0.47760   0.68126   0.24619   0.00000  Uiso   1.00
C426   C     0.50092   0.83349   0.33627   0.00000  Uiso   1.00
C427   C     0.49900   0.83307   0.16370   0.00000  Uiso   1.00
C428   C     0.47320   0.79006   0.09390   0.00000  Uiso   1.00
H429   H     0.53577   0.96249   0.45980   0.00000  Uiso   1.00
H430   H     0.50467   0.71645   0.39326   0.00000  Uiso   1.00
H431   H     0.50213   0.97531   0.07193   0.00000  Uiso   1.00
H432   H     0.42165   0.67373   0.47589   0.00000  Uiso   1.00
H433   H     0.60973   0.99691   0.24896   0.00000  Uiso   1.00
H434   H     0.58044   0.98886   0.30208   0.00000  Uiso   1.00
H435   H     0.39029   0.66967   0.25101   0.00000  Uiso   1.00
H436   H     0.41952   0.67797   0.19791   0.00000  Uiso   1.00
H437   H     0.43711   0.71176   0.04168   0.00000  Uiso   1.00
H438   H     0.33798   0.79422   0.21620   0.00000  Uiso   1.00
H439   H     0.66202   0.87246   0.28379   0.00000  Uiso   1.00
H440   H     0.48483   0.73206   0.13666   0.00000  Uiso   1.00
H441   H     0.41769   0.75491   0.14077   0.00000  Uiso   1.00
H442   H     0.49697   0.93483   0.36285   0.00000  Uiso   1.00
H443   H     0.56745   0.92083   0.36113   0.00000  Uiso   1.00
H444   H     0.58002   0.93072   0.09814   0.00000  Uiso   1.00
N445   N     0.65011   0.81932   0.23783   0.00000  Uiso   1.00
N446   N     0.34989   0.84735   0.26217   0.00000  Uiso   1.00
N447   N     0.45179   0.74486   0.11833   0.00000  Uiso   1.00
N448   N     0.53087   0.92678   0.38245   0.00000  Uiso   1.00
N449   N     0.57535   0.67299   0.27142   0.00000  Uiso   1.00
N450   N     0.42466   0.99370   0.22850   0.00000  Uiso   1.00
O451   O     0.46308   0.91286   0.25299   0.00000  Uiso   1.00
O452   O     0.48153   0.74254   0.38012   0.00000  Uiso   1.00
O453   O     0.52841   0.97573   0.04439   0.00000  Uiso   1.00
O454   O     0.43579   0.70068   0.45407   0.00000  Uiso   1.00
O455   O     0.53692   0.75381   0.24702   0.00000  Uiso   1.00
O456   O     0.55946   0.90387   0.24519   0.00000  Uiso   1.00
O457   O     0.44054   0.76279   0.25482   0.00000  Uiso   1.00
O458   O     0.45181   0.83784   0.31998   0.00000  Uiso   1.00
O459   O     0.54819   0.82883   0.18003   0.00000  Uiso   1.00
O460   O     0.54819   0.82885   0.31218   0.00000  Uiso   1.00
O461   O     0.45181   0.83781   0.18783   0.00000  Uiso   1.00
O462   O     0.54733   0.91621   0.11784   0.00000  Uiso   1.00
Zn463  Zn    0.43565   0.83933   0.25521   0.00000  Uiso   1.00
Zn464  Zn    0.56435   0.82734   0.24479   0.00000  Uiso   1.00
C465   C     0.84832   0.93136   0.24875   0.00000  Uiso   1.00
C466   C     0.84877   0.87999   0.40661   0.00000  Uiso   1.00
C467   C     0.82980   0.83371   0.11620   0.00000  Uiso   1.00
C468   C     0.83584   0.83352   0.38379   0.00000  Uiso   1.00
C469   C     0.85151   0.87798   0.09370   0.00000  Uiso   1.00
C470   C     0.82138   0.78725   0.40580   0.00000  Uiso   1.00
C471   C     0.84500   0.88097   0.04733   0.00000  Uiso   1.00
C472   C     0.81429   0.78773   0.45295   0.00000  Uiso   1.00
C473   C     0.82694   0.83517   0.02374   0.00000  Uiso   1.00
C474   C     0.82913   0.83439   0.47667   0.00000  Uiso   1.00
C475   C     0.80718   0.78999   0.04718   0.00000  Uiso   1.00
C476   C     0.81834   0.73530   0.25125   0.00000  Uiso   1.00
C477   C     0.84651   0.88035   0.45336   0.00000  Uiso   1.00
C478   C     0.85626   0.92773   0.02366   0.00000  Uiso   1.00
C479   C     0.79102   0.74389   0.47677   0.00000  Uiso   1.00
C480   C     0.85891   0.92645   0.47714   0.00000  Uiso   1.00
C481   C     0.78792   0.74561   0.02367   0.00000  Uiso   1.00
C482   C     0.85574   0.98541   0.25377   0.00000  Uiso   1.00
C483   C     0.81093   0.68126   0.24619   0.00000  Uiso   1.00
C484   C     0.83425   0.83349   0.33627   0.00000  Uiso   1.00
C485   C     0.83233   0.83307   0.16370   0.00000  Uiso   1.00
C486   C     0.80654   0.79006   0.09390   0.00000  Uiso   1.00
H487   H     0.86911   0.96249   0.45980   0.00000  Uiso   1.00
H488   H     0.83800   0.71645   0.39326   0.00000  Uiso   1.00
H489   H     0.83546   0.97531   0.07193   0.00000  Uiso   1.00
H490   H     0.75499   0.67373   0.47589   0.00000  Uiso   1.00
H491   H     0.94306   0.99691   0.24896   0.00000  Uiso   1.00
H492   H     0.91377   0.98886   0.30208   0.00000  Uiso   1.00
H493   H     0.72362   0.66967   0.25101   0.00000  Uiso   1.00
H494   H     0.75286   0.67797   0.19791   0.00000  Uiso   1.00
H495   H     0.77045   0.71176   0.04168   0.00000  Uiso   1.00
H496   H     0.67131   0.79422   0.21620   0.00000  Uiso   1.00
H497   H     0.99536   0.87246   0.28379   0.00000  Uiso   1.00
H498   H     0.81816   0.73206   0.13666   0.00000  Uiso   1.00
H499   H     0.75102   0.75491   0.14077   0.00000  Uiso   1.00
H500   H     0.83030   0.93483   0.36285   0.00000  Uiso   1.00
H501   H     0.90079   0.92083   0.36113   0.00000  Uiso   1.00
H502   H     0.91335   0.93072   0.09814   0.00000  Uiso   1.00
N503   N     0.98344   0.81932   0.23783   0.00000  Uiso   1.00
N504   N     0.68322   0.84735   0.26217   0.00000  Uiso   1.00
N505   N     0.78513   0.74486   0.11833   0.00000  Uiso   1.00
N506   N     0.86420   0.92678   0.38245   0.00000  Uiso   1.00
N507   N     0.90869   0.67299   0.27142   0.00000  Uiso   1.00
N508   N     0.75800   0.99370   0.22850   0.00000  Uiso   1.00
O509   O     0.79642   0.91286   0.25299   0.00000  Uiso   1.00
O510   O     0.81486   0.74254   0.38012   0.00000  Uiso   1.00
O511   O     0.86174   0.97573   0.04439   0.00000  Uiso   1.00
O512   O     0.76912   0.70068   0.45407   0.00000  Uiso   1.00
O513   O     0.87025   0.75381   0.24702   0.00000  Uiso   1.00
O514   O     0.89280   0.90387   0.24519   0.00000  Uiso   1.00
O515   O     0.77387   0.76279   0.25482   0.00000  Uiso   1.00
O516   O     0.78514   0.83784   0.31998   0.00000  Uiso   1.00
O517   O     0.88153   0.82883   0.18003   0.00000  Uiso   1.00
O518   O     0.88152   0.82885   0.31218   0.00000  Uiso   1.00
O519   O     0.78515   0.83781   0.18783   0.00000  Uiso   1.00
O520   O     0.88066   0.91621   0.11784   0.00000  Uiso   1.00
Zn521  Zn    0.76898   0.83933   0.25521   0.00000  Uiso   1.00
Zn522  Zn    0.89769   0.82734   0.24479   0.00000  Uiso   1.00
C523   C     0.18166   0.26470   0.74875   0.00000  Uiso   1.00
C524   C     0.18210   0.21333   0.90661   0.00000  Uiso   1.00
C525   C     0.16313   0.16704   0.61620   0.00000  Uiso   1.00
C526   C     0.16918   0.16685   0.88379   0.00000  Uiso   1.00
C527   C     0.18485   0.21131   0.59370   0.00000  Uiso   1.00
C528   C     0.15471   0.12058   0.90580   0.00000  Uiso   1.00
C529   C     0.17833   0.21430   0.54733   0.00000  Uiso   1.00
C530   C     0.14763   0.12106   0.95295   0.00000  Uiso   1.00
C531   C     0.16028   0.16850   0.52374   0.00000  Uiso   1.00
C532   C     0.16247   0.16773   0.97667   0.00000  Uiso   1.00
C533   C     0.14051   0.12332   0.54718   0.00000  Uiso   1.00
C534   C     0.15168   0.06864   0.75125   0.00000  Uiso   1.00
C535   C     0.17984   0.21369   0.95336   0.00000  Uiso   1.00
C536   C     0.18959   0.26107   0.52366   0.00000  Uiso   1.00
C537   C     0.12435   0.07722   0.97677   0.00000  Uiso   1.00
C538   C     0.19225   0.25978   0.97714   0.00000  Uiso   1.00
C539   C     0.12125   0.07895   0.52367   0.00000  Uiso   1.00
C540   C     0.18907   0.31875   0.75377   0.00000  Uiso   1.00
C541   C     0.14427   0.01459   0.74619   0.00000  Uiso   1.00
C542   C     0.16758   0.16683   0.83627   0.00000  Uiso   1.00
C543   C     0.16566   0.16641   0.66370   0.00000  Uiso   1.00
C544   C     0.13987   0.12339   0.59390   0.00000  Uiso   1.00
H545   H     0.20244   0.29582   0.95980   0.00000  Uiso   1.00
H546   H     0.17134   0.04979   0.89326   0.00000  Uiso   1.00
H547   H     0.16880   0.30865   0.57193   0.00000  Uiso   1.00
H548   H     0.08832   0.00706   0.97589   0.00000  Uiso   1.00
H549   H     0.27640   0.33025   0.74896   0.00000  Uiso   1.00
H550   H     0.24711   0.32219   0.80208   0.00000  Uiso   1.00
H551   H     0.05696   0.00300   0.75101   0.00000  Uiso   1.00
H552   H     0.08619   0.01130   0.69791   0.00000  Uiso   1.00
H553   H     0.10378   0.04509   0.54168   0.00000  Uiso   1.00
H554   H     0.00464   0.12755   0.71620   0.00000  Uiso   1.00
H555   H     0.32869   0.20579   0.78379   0.00000  Uiso   1.00
H556   H     0.15149   0.06539   0.63666   0.00000  Uiso   1.00
H557   H     0.08436   0.08824   0.64077   0.00000  Uiso   1.00
H558   H     0.16364   0.26816   0.86285   0.00000  Uiso   1.00
H559   H     0.23412   0.25416   0.86113   0.00000  Uiso   1.00
H560   H     0.24668   0.26405   0.59814   0.00000  Uiso   1.00
N561   N     0.31678   0.15265   0.73783   0.00000  Uiso   1.00
N562   N     0.01656   0.18068   0.76217   0.00000  Uiso   1.00
N563   N     0.11846   0.07819   0.61833   0.00000  Uiso   1.00
N564   N     0.19754   0.26011   0.88245   0.00000  Uiso   1.00
N565   N     0.24202   0.00632   0.77142   0.00000  Uiso   1.00
N566   N     0.09133   0.32704   0.72850   0.00000  Uiso   1.00
O567   O     0.12975   0.24619   0.75299   0.00000  Uiso   1.00
O568   O     0.14820   0.07587   0.88012   0.00000  Uiso   1.00
O569   O     0.19507   0.30906   0.54439   0.00000  Uiso   1.00
O570   O     0.10245   0.03401   0.95407   0.00000  Uiso   1.00
O571   O     0.20358   0.08714   0.74702   0.00000  Uiso   1.00
O572   O     0.22613   0.23721   0.74519   0.00000  Uiso   1.00
O573   O     0.10720   0.09613   0.75482   0.00000  Uiso   1.00
O574   O     0.11847   0.17117   0.81998   0.00000  Uiso   1.00
O575   O     0.21486   0.16216   0.68003   0.00000  Uiso   1.00
O576   O     0.21485   0.16219   0.81218   0.00000  Uiso   1.00
O577   O     0.11848   0.17115   0.68783   0.00000  Uiso   1.00
O578   O     0.21400   0.24954   0.61784   0.00000  Uiso   1.00
Zn579  Zn    0.10231   0.17266   0.75521   0.00000  Uiso   1.00
Zn580  Zn    0.23102   0.16067   0.74479   0.00000  Uiso   1.00
C581   C     0.51499   0.26470   0.74875   0.00000  Uiso   1.00
C582   C     0.51544   0.21333   0.90661   0.00000  Uiso   1.00
C583   C     0.49646   0.16704   0.61620   0.00000  Uiso   1.00
C584   C     0.50251   0.16685   0.88379   0.00000  Uiso   1.00
C585   C     0.51818   0.21131   0.59370   0.00000  Uiso   1.00
C586   C     0.48804   0.12058   0.90580   0.00000  Uiso   1.00
C587   C     0.51167   0.21430   0.54733   0.00000  Uiso   1.00
C588   C     0.48096   0.12106   0.95295   0.00000  Uiso   1.00
C589   C     0.49361   0.16850   0.52374   0.00000  Uiso   1.00
C590   C     0.49580   0.16773   0.97667   0.00000  Uiso   1.00
C591   C     0.47384   0.12332   0.54718   0.00000  Uiso   1.00
C592   C     0.48501   0.06864   0.75125   0.00000  Uiso   1.00
C593   C     0.51317   0.21369   0.95336   0.00000  Uiso   1.00
C594   C     0.52292   0.26107   0.52366   0.00000  Uiso   1.00
C595   C     0.45768   0.07722   0.97677   0.00000  Uiso   1.00
C596   C     0.52558   0.25978   0.97714   0.00000  Uiso   1.00
C597   C     0.45459   0.07895   0.52367   0.00000  Uiso   1.00
C598   C     0.52240   0.31875   0.75377   0.00000  Uiso   1.00
C599   C     0.47760   0.01459   0.74619   0.00000  Uiso   1.00
C600   C     0.50092   0.16683   0.83627   0.00000  Uiso   1.00
C601   C     0.49900   0.16641   0.66370   0.00000  Uiso   1.00
C602   C     0.47320   0.12339   0.59390   0.00000  Uiso   1.00
H603   H     0.53577   0.29582   0.95980   0.00000  Uiso   1.00
H604   H     0.50467   0.04979   0.89326   0.00000  Uiso   1.00
H605   H     0.50213   0.30865   0.57193   0.00000  Uiso   1.00
H606   H     0.42165   0.00706   0.97589   0.00000  Uiso   1.00
H607   H     0.60973   0.33025   0.74896   0.00000  Uiso   1.00
H608   H     0.58044   0.32219   0.80208   0.00000  Uiso   1.00
H609   H     0.39029   0.00300   0.75101   0.00000  Uiso   1.00
H610   H     0.41952   0.01130   0.69791   0.00000  Uiso   1.00
H611   H     0.43711   0.04509   0.54168   0.00000  Uiso   1.00
H612   H     0.33798   0.12755   0.71620   0.00000  Uiso   1.00
H613   H     0.66202   0.20579   0.78379   0.00000  Uiso   1.00
H614   H     0.48483   0.06539   0.63666   0.00000  Uiso   1.00
H615   H     0.41769   0.08824   0.64077   0.00000  Uiso   1.00
H616   H     0.49697   0.26816   0.86285   0.00000  Uiso   1.00
H617   H     0.56745   0.25416   0.86113   0.00000  Uiso   1.00
H618   H     0.58002   0.26405   0.59814   0.00000  Uiso   1.00
N619   N     0.65011   0.15265   0.73783   0.00000  Uiso   1.00
N620   N     0.34989   0.18068   0.76217   0.00000  Uiso   1.00
N621   N     0.45179   0.07819   0.61833   0.00000  Uiso   1.00
N622   N     0.53087   0.26011   0.88245   0.00000  Uiso   1.00
N623   N     0.57535   0.00632   0.77142   0.00000  Uiso   1.00
N624   N     0.42466   0.32704   0.72850   0.00000  Uiso   1.00
O625   O     0.46308   0.24619   0.75299   0.00000  Uiso   1.00
O626   O     0.48153   0.07587   0.88012   0.00000  Uiso   1.00
O627   O     0.52841   0.30906   0.54439   0.00000  Uiso   1.00
O628   O     0.43579   0.03401   0.95407   0.00000  Uiso   1.00
O629   O     0.53692   0.08714   0.74702   0.00000  Uiso   1.00
O630   O     0.55946   0.23721   0.74519   0.00000  Uiso   1.00
O631   O     0.44054   0.09613   0.75482   0.00000  Uiso   1.00
O632   O     0.45181   0.17117   0.81998   0.00000  Uiso   1.00
O633   O     0.54819   0.16216   0.68003   0.00000  Uiso   1.00
O634   O     0.54819   0.16219   0.81218   0.00000  Uiso   1.00
O635   O     0.45181   0.17115   0.68783   0.00000  Uiso   1.00
O636   O     0.54733   0.24954   0.61784   0.00000  Uiso   1.00
Zn637  Zn    0.43565   0.17266   0.75521   0.00000  Uiso   1.00
Zn638  Zn    0.56435   0.16067   0.74479   0.00000  Uiso   1.00
C639   C     0.84832   0.26470   0.74875   0.00000  Uiso   1.00
C640   C     0.84877   0.21333   0.90661   0.00000  Uiso   1.00
C641   C     0.82980   0.16704   0.61620   0.00000  Uiso   1.00
C642   C     0.83584   0.16685   0.88379   0.00000  Uiso   1.00
C643   C     0.85151   0.21131   0.59370   0.00000  Uiso   1.00
C644   C     0.82138   0.12058   0.90580   0.00000  Uiso   1.00
C645   C     0.84500   0.21430   0.54733   0.00000  Uiso   1.00
C646   C     0.81429   0.12106   0.95295   0.00000  Uiso   1.00
C647   C     0.82694   0.16850   0.52374   0.00000  Uiso   1.00
C648   C     0.82913   0.16773   0.97667   0.00000  Uiso   1.00
C649   C     0.80718   0.12332   0.54718   0.00000  Uiso   1.00
C650   C     0.81834   0.06864   0.75125   0.00000  Uiso   1.00
C651   C     0.84651   0.21369   0.95336   0.00000  Uiso   1.00
C652   C     0.85626   0.26107   0.52366   0.00000  Uiso   1.00
C653   C     0.79102   0.07722   0.97677   0.00000  Uiso   1.00
C654   C     0.85891   0.25978   0.97714   0.00000  Uiso   1.00
C655   C     0.78792   0.07895   0.52367   0.00000  Uiso   1.00
C656   C     0.85574   0.31875   0.75377   0.00000  Uiso   1.00
C657   C     0.81093   0.01459   0.74619   0.00000  Uiso   1.00
C658   C     0.83425   0.16683   0.83627   0.00000  Uiso   1.00
C659   C     0.83233   0.16641   0.66370   0.00000  Uiso   1.00
C660   C     0.80654   0.12339   0.59390   0.00000  Uiso   1.00
H661   H     0.86911   0.29582   0.95980   0.00000  Uiso   1.00
H662   H     0.83800   0.04979   0.89326   0.00000  Uiso   1.00
H663   H     0.83546   0.30865   0.57193   0.00000  Uiso   1.00
H664   H     0.75499   0.00706   0.97589   0.00000  Uiso   1.00
H665   H     0.94306   0.33025   0.74896   0.00000  Uiso   1.00
H666   H     0.91377   0.32219   0.80208   0.00000  Uiso   1.00
H667   H     0.72362   0.00300   0.75101   0.00000  Uiso   1.00
H668   H     0.75286   0.01130   0.69791   0.00000  Uiso   1.00
H669   H     0.77045   0.04509   0.54168   0.00000  Uiso   1.00
H670   H     0.67131   0.12755   0.71620   0.00000  Uiso   1.00
H671   H     0.99536   0.20579   0.78379   0.00000  Uiso   1.00
H672   H     0.81816   0.06539   0.63666   0.00000  Uiso   1.00
H673   H     0.75102   0.08824   0.64077   0.00000  Uiso   1.00
H674   H     0.83030   0.26816   0.86285   0.00000  Uiso   1.00
H675   H     0.90079   0.25416   0.86113   0.00000  Uiso   1.00
H676   H     0.91335   0.26405   0.59814   0.00000  Uiso   1.00
N677   N     0.98344   0.15265   0.73783   0.00000  Uiso   1.00
N678   N     0.68322   0.18068   0.76217   0.00000  Uiso   1.00
N679   N     0.78513   0.07819   0.61833   0.00000  Uiso   1.00
N680   N     0.86420   0.26011   0.88245   0.00000  Uiso   1.00
N681   N     0.90869   0.00632   0.77142   0.00000  Uiso   1.00
N682   N     0.75800   0.32704   0.72850   0.00000  Uiso   1.00
O683   O     0.79642   0.24619   0.75299   0.00000  Uiso   1.00
O684   O     0.81486   0.07587   0.88012   0.00000  Uiso   1.00
O685   O     0.86174   0.30906   0.54439   0.00000  Uiso   1.00
O686   O     0.76912   0.03401   0.95407   0.00000  Uiso   1.00
O687   O     0.87025   0.08714   0.74702   0.00000  Uiso   1.00
O688   O     0.89280   0.23721   0.74519   0.00000  Uiso   1.00
O689   O     0.77387   0.09613   0.75482   0.00000  Uiso   1.00
O690   O     0.78514   0.17117   0.81998   0.00000  Uiso   1.00
O691   O     0.88153   0.16216   0.68003   0.00000  Uiso   1.00
O692   O     0.88152   0.16219   0.81218   0.00000  Uiso   1.00
O693   O     0.78515   0.17115   0.68783   0.00000  Uiso   1.00
O694   O     0.88066   0.24954   0.61784   0.00000  Uiso   1.00
Zn695  Zn    0.76898   0.17266   0.75521   0.00000  Uiso   1.00
Zn696  Zn    0.89769   0.16067   0.74479   0.00000  Uiso   1.00
C697   C     0.18166   0.59803   0.74875   0.00000  Uiso   1.00
C698   C     0.18210   0.54666   0.90661   0.00000  Uiso   1.00
C699   C     0.16313   0.50037   0.61620   0.00000  Uiso   1.00
C700   C     0.16918   0.50019   0.88379   0.00000  Uiso   1.00
C701   C     0.18485   0.54465   0.59370   0.00000  Uiso   1.00
C702   C     0.15471   0.45391   0.90580   0.00000  Uiso   1.00
C703   C     0.17833   0.54764   0.54733   0.00000  Uiso   1.00
C704   C     0.14763   0.45439   0.95295   0.00000  Uiso   1.00
C705   C     0.16028   0.50184   0.52374   0.00000  Uiso   1.00
C706   C     0.16247   0.50106   0.97667   0.00000  Uiso   1.00
C707   C     0.14051   0.45665   0.54718   0.00000  Uiso   1.00
C708   C     0.15168   0.40197   0.75125   0.00000  Uiso   1.00
C709   C     0.17984   0.54702   0.95336   0.00000  Uiso   1.00
C710   C     0.18959   0.59440   0.52366   0.00000  Uiso   1.00
C711   C     0.12435   0.41055   0.97677   0.00000  Uiso   1.00
C712   C     0.19225   0.59311   0.97714   0.00000  Uiso   1.00
C713   C     0.12125   0.41228   0.52367   0.00000  Uiso   1.00
C714   C     0.18907   0.65208   0.75377   0.00000  Uiso   1.00
C715   C     0.14427   0.34792   0.74619   0.00000  Uiso   1.00
C716   C     0.16758   0.50016   0.83627   0.00000  Uiso   1.00
C717   C     0.16566   0.49974   0.66370   0.00000  Uiso   1.00
C718   C     0.13987   0.45673   0.59390   0.00000  Uiso   1.00
H719   H     0.20244   0.62916   0.95980   0.00000  Uiso   1.00
H720   H     0.17134   0.38312   0.89326   0.00000  Uiso   1.00
H721   H     0.16880   0.64198   0.57193   0.00000  Uiso   1.00
H722   H     0.08832   0.34039   0.97589   0.00000  Uiso   1.00
H723   H     0.27640   0.66358   0.74896   0.00000  Uiso   1.00
H724   H     0.24711   0.65552   0.80208   0.00000  Uiso   1.00
H725   H     0.05696   0.33634   0.75101   0.00000  Uiso   1.00
H726   H     0.08619   0.34464   0.69791   0.00000  Uiso   1.00
H727   H     0.10378   0.37843   0.54168   0.00000  Uiso   1.00
H728   H     0.00464   0.46088   0.71620   0.00000  Uiso   1.00
H729   H     0.32869   0.53912   0.78379   0.00000  Uiso   1.00
H730   H     0.15149   0.39872   0.63666   0.00000  Uiso   1.00
H731   H     0.08436   0.42157   0.64077   0.00000  Uiso   1.00
H732   H     0.16364   0.60149   0.86285   0.00000  Uiso   1.00
H733   H     0.23412   0.58749   0.86113   0.00000  Uiso   1.00
H734   H     0.24668   0.59738   0.59814   0.00000  Uiso   1.00
N735   N     0.31678   0.48598   0.73783   0.00000  Uiso   1.00
N736   N     0.01656   0.51402   0.76217   0.00000  Uiso   1.00
N737   N     0.11846   0.41153   0.61833   0.00000  Uiso   1.00
N738   N     0.19754   0.59344   0.88245   0.00000  Uiso   1.00
N739   N     0.24202   0.33965   0.77142   0.00000  Uiso   1.00
N740   N     0.09133   0.66037   0.72850   0.00000  Uiso   1.00
O741   O     0.12975   0.57952   0.75299   0.00000  Uiso   1.00
O742   O     0.14820   0.40920   0.88012   0.00000  Uiso   1.00
O743   O     0.19507   0.64239   0.54439   0.00000  Uiso   1.00
O744   O     0.10245   0.36734   0.95407   0.00000  Uiso   1.00
O745   O     0.20358   0.42048   0.74702   0.00000  Uiso   1.00
O746   O     0.22613   0.57054   0.74519   0.00000  Uiso   1.00
O747   O     0.10720   0.42946   0.75482   0.00000  Uiso   1.00
O748   O     0.11847   0.50450   0.81998   0.00000  Uiso   1.00
O749   O     0.21486   0.49550   0.68003   0.00000  Uiso   1.00
O750   O     0.21485   0.49552   0.81218   0.00000  Uiso   1.00
O751   O     0.11848   0.50448   0.68783   0.00000  Uiso   1.00
O752   O     0.21400   0.58288   0.61784   0.00000  Uiso   1.00
Zn753  Zn    0.10231   0.50600   0.75521   0.00000  Uiso   1.00
Zn754  Zn    0.23102   0.49400   0.74479   0.00000  Uiso   1.00
C755   C     0.51499   0.59803   0.74875   0.00000  Uiso   1.00
C756   C     0.51544   0.54666   0.90661   0.00000  Uiso   1.00
C757   C     0.49646   0.50037   0.61620   0.00000  Uiso   1.00
C758   C     0.50251   0.50019   0.88379   0.00000  Uiso   1.00
C759   C     0.51818   0.54465   0.59370   0.00000  Uiso   1.00
C760   C     0.48804   0.45391   0.90580   0.00000  Uiso   1.00
C761   C     0.51167   0.54764   0.54733   0.00000  Uiso   1.00
C762   C     0.48096   0.45439   0.95295   0.00000  Uiso   1.00
C763   C     0.49361   0.50184   0.52374   0.00000  Uiso   1.00
C764   C     0.49580   0.50106   0.97667   0.00000  Uiso   1.00
C765   C     0.47384   0.45665   0.54718   0.00000  Uiso   1.00
C766   C     0.48501   0.40197   0.75125   0.00000  Uiso   1.00
C767   C     0.51317   0.54702   0.95336   0.00000  Uiso   1.00
C768   C     0.52292   0.59440   0.52366   0.00000  Uiso   1.00
C769   C     0.45768   0.41055   0.97677   0.00000  Uiso   1.00
C770   C     0.52558   0.59311   0.97714   0.00000  Uiso   1.00
C771   C     0.45459   0.41228   0.52367   0.00000  Uiso   1.00
C772   C     0.52240   0.65208   0.75377   0.00000  Uiso   1.00
C773   C     0.47760   0.34792   0.74619   0.00000  Uiso   1.00
C774   C     0.50092   0.50016   0.83627   0.00000  Uiso   1.00
C775   C     0.49900   0.49974   0.66370   0.00000  Uiso   1.00
C776   C     0.47320   0.45673   0.59390   0.00000  Uiso   1.00
H777   H     0.53577   0.62916   0.95980   0.00000  Uiso   1.00
H778   H     0.50467   0.38312   0.89326   0.00000  Uiso   1.00
H779   H     0.50213   0.64198   0.57193   0.00000  Uiso   1.00
H780   H     0.42165   0.34039   0.97589   0.00000  Uiso   1.00
H781   H     0.60973   0.66358   0.74896   0.00000  Uiso   1.00
H782   H     0.58044   0.65552   0.80208   0.00000  Uiso   1.00
H783   H     0.39029   0.33634   0.75101   0.00000  Uiso   1.00
H784   H     0.41952   0.34464   0.69791   0.00000  Uiso   1.00
H785   H     0.43711   0.37843   0.54168   0.00000  Uiso   1.00
H786   H     0.33798   0.46088   0.71620   0.00000  Uiso   1.00
H787   H     0.66202   0.53912   0.78379   0.00000  Uiso   1.00
H788   H     0.48483   0.39872   0.63666   0.00000  Uiso   1.00
H789   H     0.41769   0.42157   0.64077   0.00000  Uiso   1.00
H790   H     0.49697   0.60149   0.86285   0.00000  Uiso   1.00
H791   H     0.56745   0.58749   0.86113   0.00000  Uiso   1.00
H792   H     0.58002   0.59738   0.59814   0.00000  Uiso   1.00
N793   N     0.65011   0.48598   0.73783   0.00000  Uiso   1.00
N794   N     0.34989   0.51402   0.76217   0.00000  Uiso   1.00
N795   N     0.45179   0.41153   0.61833   0.00000  Uiso   1.00
N796   N     0.53087   0.59344   0.88245   0.00000  Uiso   1.00
N797   N     0.57535   0.33965   0.77142   0.00000  Uiso   1.00
N798   N     0.42466   0.66037   0.72850   0.00000  Uiso   1.00
O799   O     0.46308   0.57952   0.75299   0.00000  Uiso   1.00
O800   O     0.48153   0.40920   0.88012   0.00000  Uiso   1.00
O801   O     0.52841   0.64239   0.54439   0.00000  Uiso   1.00
O802   O     0.43579   0.36734   0.95407   0.00000  Uiso   1.00
O803   O     0.53692   0.42048   0.74702   0.00000  Uiso   1.00
O804   O     0.55946   0.57054   0.74519   0.00000  Uiso   1.00
O805   O     0.44054   0.42946   0.75482   0.00000  Uiso   1.00
O806   O     0.45181   0.50450   0.81998   0.00000  Uiso   1.00
O807   O     0.54819   0.49550   0.68003   0.00000  Uiso   1.00
O808   O     0.54819   0.49552   0.81218   0.00000  Uiso   1.00
O809   O     0.45181   0.50448   0.68783   0.00000  Uiso   1.00
O810   O     0.54733   0.58288   0.61784   0.00000  Uiso   1.00
Zn811  Zn    0.43565   0.50600   0.75521   0.00000  Uiso   1.00
Zn812  Zn    0.56435   0.49400   0.74479   0.00000  Uiso   1.00
C813   C     0.84832   0.59803   0.74875   0.00000  Uiso   1.00
C814   C     0.84877   0.54666   0.90661   0.00000  Uiso   1.00
C815   C     0.82980   0.50037   0.61620   0.00000  Uiso   1.00
C816   C     0.83584   0.50019   0.88379   0.00000  Uiso   1.00
C817   C     0.85151   0.54465   0.59370   0.00000  Uiso   1.00
C818   C     0.82138   0.45391   0.90580   0.00000  Uiso   1.00
C819   C     0.84500   0.54764   0.54733   0.00000  Uiso   1.00
C820   C     0.81429   0.45439   0.95295   0.00000  Uiso   1.00
C821   C     0.82694   0.50184   0.52374   0.00000  Uiso   1.00
C822   C     0.82913   0.50106   0.97667   0.00000  Uiso   1.00
C823   C     0.80718   0.45665   0.54718   0.00000  Uiso   1.00
C824   C     0.81834   0.40197   0.75125   0.00000  Uiso   1.00
C825   C     0.84651   0.54702   0.95336   0.00000  Uiso   1.00
C826   C     0.85626   0.59440   0.52366   0.00000  Uiso   1.00
C827   C     0.79102   0.41055   0.97677   0.00000  Uiso   1.00
C828   C     0.85891   0.59311   0.97714   0.00000  Uiso   1.00
C829   C     0.78792   0.41228   0.52367   0.00000  Uiso   1.00
C830   C     0.85574   0.65208   0.75377   0.00000  Uiso   1.00
C831   C     0.81093   0.34792   0.74619   0.00000  Uiso   1.00
C832   C     0.83425   0.50016   0.83627   0.00000  Uiso   1.00
C833   C     0.83233   0.49974   0.66370   0.00000  Uiso   1.00
C834   C     0.80654   0.45673   0.59390   0.00000  Uiso   1.00
H835   H     0.86911   0.62916   0.95980   0.00000  Uiso   1.00
H836   H     0.83800   0.38312   0.89326   0.00000  Uiso   1.00
H837   H     0.83546   0.64198   0.57193   0.00000  Uiso   1.00
H838   H     0.75499   0.34039   0.97589   0.00000  Uiso   1.00
H839   H     0.94306   0.66358   0.74896   0.00000  Uiso   1.00
H840   H     0.91377   0.65552   0.80208   0.00000  Uiso   1.00
H841   H     0.72362   0.33634   0.75101   0.00000  Uiso   1.00
H842   H     0.75286   0.34464   0.69791   0.00000  Uiso   1.00
H843   H     0.77045   0.37843   0.54168   0.00000  Uiso   1.00
H844   H     0.67131   0.46088   0.71620   0.00000  Uiso   1.00
H845   H     0.99536   0.53912   0.78379   0.00000  Uiso   1.00
H846   H     0.81816   0.39872   0.63666   0.00000  Uiso   1.00
H847   H     0.75102   0.42157   0.64077   0.00000  Uiso   1.00
H848   H     0.83030   0.60149   0.86285   0.00000  Uiso   1.00
H849   H     0.90079   0.58749   0.86113   0.00000  Uiso   1.00
H850   H     0.91335   0.59738   0.59814   0.00000  Uiso   1.00
N851   N     0.98344   0.48598   0.73783   0.00000  Uiso   1.00
N852   N     0.68322   0.51402   0.76217   0.00000  Uiso   1.00
N853   N     0.78513   0.41153   0.61833   0.00000  Uiso   1.00
N854   N     0.86420   0.59344   0.88245   0.00000  Uiso   1.00
N855   N     0.90869   0.33965   0.77142   0.00000  Uiso   1.00
N856   N     0.75800   0.66037   0.72850   0.00000  Uiso   1.00
O857   O     0.79642   0.57952   0.75299   0.00000  Uiso   1.00
O858   O     0.81486   0.40920   0.88012   0.00000  Uiso   1.00
O859   O     0.86174   0.64239   0.54439   0.00000  Uiso   1.00
O860   O     0.76912   0.36734   0.95407   0.00000  Uiso   1.00
O861   O     0.87025   0.42048   0.74702   0.00000  Uiso   1.00
O862   O     0.89280   0.57054   0.74519   0.00000  Uiso   1.00
O863   O     0.77387   0.42946   0.75482   0.00000  Uiso   1.00
O864   O     0.78514   0.50450   0.81998   0.00000  Uiso   1.00
O865   O     0.88153   0.49550   0.68003   0.00000  Uiso   1.00
O866   O     0.88152   0.49552   0.81218   0.00000  Uiso   1.00
O867   O     0.78515   0.50448   0.68783   0.00000  Uiso   1.00
O868   O     0.88066   0.58288   0.61784   0.00000  Uiso   1.00
Zn869  Zn    0.76898   0.50600   0.75521   0.00000  Uiso   1.00
Zn870  Zn    0.89769   0.49400   0.74479   0.00000  Uiso   1.00
C871   C     0.18166   0.93136   0.74875   0.00000  Uiso   1.00
C872   C     0.18210   0.87999   0.90661   0.00000  Uiso   1.00
C873   C     0.16313   0.83371   0.61620   0.00000  Uiso   1.00
C874   C     0.16918   0.83352   0.88379   0.00000  Uiso   1.00
C875   C     0.18485   0.87798   0.59370   0.00000  Uiso   1.00
C876   C     0.15471   0.78725   0.90580   0.00000  Uiso   1.00
C877   C     0.17833   0.88097   0.54733   0.00000  Uiso   1.00
C878   C     0.14763   0.78773   0.95295   0.00000  Uiso   1.00
C879   C     0.16028   0.83517   0.52374   0.00000  Uiso   1.00
C880   C     0.16247   0.83439   0.97667   0.00000  Uiso   1.00
C881   C     0.14051   0.78999   0.54718   0.00000  Uiso   1.00
C882   C     0.15168   0.73530   0.75125   0.00000  Uiso   1.00
C883   C     0.17984   0.88035   0.95336   0.00000  Uiso   1.00
C884   C     0.18959   0.92773   0.52366   0.00000  Uiso   1.00
C885   C     0.12435   0.74389   0.97677   0.00000  Uiso   1.00
C886   C     0.19225   0.92645   0.97714   0.00000  Uiso   1.00
C887   C     0.12125   0.74561   0.52367   0.00000  Uiso   1.00
C888   C     0.18907   0.98541   0.75377   0.00000  Uiso   1.00
C889   C     0.14427   0.68126   0.74619   0.00000  Uiso   1.00
C890   C     0.16758   0.83349   0.83627   0.00000  Uiso   1.00
C891   C     0.16566   0.83307   0.66370   0.00000  Uiso   1.00
C892   C     0.13987   0.79006   0.59390   0.00000  Uiso   1.00
H893   H     0.20244   0.96249   0.95980   0.00000  Uiso   1.00
H894   H     0.17134   0.71645   0.89326   0.00000  Uiso   1.00
H895   H     0.16880   0.97531   0.57193   0.00000  Uiso   1.00
H896   H     0.08832   0.67373   0.97589   0.00000  Uiso   1.00
H897   H     0.27640   0.99691   0.74896   0.00000  Uiso   1.00
H898   H     0.24711   0.98886   0.80208   0.00000  Uiso   1.00
H899   H     0.05696   0.66967   0.75101   0.00000  Uiso   1.00
H900   H     0.08619   0.67797   0.69791   0.00000  Uiso   1.00
H901   H     0.10378   0.71176   0.54168   0.00000  Uiso   1.00
H902   H     0.00464   0.79422   0.71620   0.00000  Uiso   1.00
H903   H     0.32869   0.87246   0.78379   0.00000  Uiso   1.00
H904   H     0.15149   0.73206   0.63666   0.00000  Uiso   1.00
H905   H     0.08436   0.75491   0.64077   0.00000  Uiso   1.00
H906   H     0.16364   0.93483   0.86285   0.00000  Uiso   1.00
H907   H     0.23412   0.92083   0.86113   0.00000  Uiso   1.00
H908   H     0.24668   0.93072   0.59814   0.00000  Uiso   1.00
N909   N     0.31678   0.81932   0.73783   0.00000  Uiso   1.00
N910   N     0.01656   0.84735   0.76217   0.00000  Uiso   1.00
N911   N     0.11846   0.74486   0.61833   0.00000  Uiso   1.00
N912   N     0.19754   0.92678   0.88245   0.00000  Uiso   1.00
N913   N     0.24202   0.67299   0.77142   0.00000  Uiso   1.00
N914   N     0.09133   0.99370   0.72850   0.00000  Uiso   1.00
O915   O     0.12975   0.91286   0.75299   0.00000  Uiso   1.00
O916   O     0.14820   0.74254   0.88012   0.00000  Uiso   1.00
O917   O     0.19507   0.97573   0.54439   0.00000  Uiso   1.00
O918   O     0.10245   0.70068   0.95407   0.00000  Uiso   1.00
O919   O     0.20358   0.75381   0.74702   0.00000  Uiso   1.00
O920   O     0.22613   0.90387   0.74519   0.00000  Uiso   1.00
O921   O     0.10720   0.76279   0.75482   0.00000  Uiso   1.00
O922   O     0.11847   0.83784   0.81998   0.00000  Uiso   1.00
O923   O     0.21486   0.82883   0.68003   0.00000  Uiso   1.00
O924   O     0.21485   0.82885   0.81218   0.00000  Uiso   1.00
O925   O     0.11848   0.83781   0.68783   0.00000  Uiso   1.00
O926   O     0.21400   0.91621   0.61784   0.00000  Uiso   1.00
Zn927  Zn    0.10231   0.83933   0.75521   0.00000  Uiso   1.00
Zn928  Zn    0.23102   0.82734   0.74479   0.00000  Uiso   1.00
C929   C     0.51499   0.93136   0.74875   0.00000  Uiso   1.00
C930   C     0.51544   0.87999   0.90661   0.00000  Uiso   1.00
C931   C     0.49646   0.83371   0.61620   0.00000  Uiso   1.00
C932   C     0.50251   0.83352   0.88379   0.00000  Uiso   1.00
C933   C     0.51818   0.87798   0.59370   0.00000  Uiso   1.00
C934   C     0.48804   0.78725   0.90580   0.00000  Uiso   1.00
C935   C     0.51167   0.88097   0.54733   0.00000  Uiso   1.00
C936   C     0.48096   0.78773   0.95295   0.00000  Uiso   1.00
C937   C     0.49361   0.83517   0.52374   0.00000  Uiso   1.00
C938   C     0.49580   0.83439   0.97667   0.00000  Uiso   1.00
C939   C     0.47384   0.78999   0.54718   0.00000  Uiso   1.00
C940   C     0.48501   0.73530   0.75125   0.00000  Uiso   1.00
C941   C     0.51317   0.88035   0.95336   0.00000  Uiso   1.00
C942   C     0.52292   0.92773   0.52366   0.00000  Uiso   1.00
C943   C     0.45768   0.74389   0.97677   0.00000  Uiso   1.00
C944   C     0.52558   0.92645   0.97714   0.00000  Uiso   1.00
C945   C     0.45459   0.74561   0.52367   0.00000  Uiso   1.00
C946   C     0.52240   0.98541   0.75377   0.00000  Uiso   1.00
C947   C     0.47760   0.68126   0.74619   0.00000  Uiso   1.00
C948   C     0.50092   0.83349   0.83627   0.00000  Uiso   1.00
C949   C     0.49900   0.83307   0.66370   0.00000  Uiso   1.00
C950   C     0.47320   0.79006   0.59390   0.00000  Uiso   1.00
H951   H     0.53577   0.96249   0.95980   0.00000  Uiso   1.00
H952   H     0.50467   0.71645   0.89326   0.00000  Uiso   1.00
H953   H     0.50213   0.97531   0.57193   0.00000  Uiso   1.00
H954   H     0.42165   0.67373   0.97589   0.00000  Uiso   1.00
H955   H     0.60973   0.99691   0.74896   0.00000  Uiso   1.00
H956   H     0.58044   0.98886   0.80208   0.00000  Uiso   1.00
H957   H     0.39029   0.66967   0.75101   0.00000  Uiso   1.00
H958   H     0.41952   0.67797   0.69791   0.00000  Uiso   1.00
H959   H     0.43711   0.71176   0.54168   0.00000  Uiso   1.00
H960   H     0.33798   0.79422   0.71620   0.00000  Uiso   1.00
H961   H     0.66202   0.87246   0.78379   0.00000  Uiso   1.00
H962   H     0.48483   0.73206   0.63666   0.00000  Uiso   1.00
H963   H     0.41769   0.75491   0.64077   0.00000  Uiso   1.00
H964   H     0.49697   0.93483   0.86285   0.00000  Uiso   1.00
H965   H     0.56745   0.92083   0.86113   0.00000  Uiso   1.00
H966   H     0.58002   0.93072   0.59814   0.00000  Uiso   1.00
N967   N     0.65011   0.81932   0.73783   0.00000  Uiso   1.00
N968   N     0.34989   0.84735   0.76217   0.00000  Uiso   1.00
N969   N     0.45179   0.74486   0.61833   0.00000  Uiso   1.00
N970   N     0.53087   0.92678   0.88245   0.00000  Uiso   1.00
N971   N     0.57535   0.67299   0.77142   0.00000  Uiso   1.00
N972   N     0.42466   0.99370   0.72850   0.00000  Uiso   1.00
O973   O     0.46308   0.91286   0.75299   0.00000  Uiso   1.00
O974   O     0.48153   0.74254   0.88012   0.00000  Uiso   1.00
O975   O     0.52841   0.97573   0.54439   0.00000  Uiso   1.00
O976   O     0.43579   0.70068   0.95407   0.00000  Uiso   1.00
O977   O     0.53692   0.75381   0.74702   0.00000  Uiso   1.00
O978   O     0.55946   0.90387   0.74519   0.00000  Uiso   1.00
O979   O     0.44054   0.76279   0.75482   0.00000  Uiso   1.00
O980   O     0.45181   0.83784   0.81998   0.00000  Uiso   1.00
O981   O     0.54819   0.82883   0.68003   0.00000  Uiso   1.00
O982   O     0.54819   0.82885   0.81218   0.00000  Uiso   1.00
O983   O     0.45181   0.83781   0.68783   0.00000  Uiso   1.00
O984   O     0.54733   0.91621   0.61784   0.00000  Uiso   1.00
Zn985  Zn    0.43565   0.83933   0.75521   0.00000  Uiso   1.00
Zn986  Zn    0.56435   0.82734   0.74479   0.00000  Uiso   1.00
C987   C     0.84832   0.93136   0.74875   0.00000  Uiso   1.00
C988   C     0.84877   0.87999   0.90661   0.00000  Uiso   1.00
C989   C     0.82980   0.83371   0.61620   0.00000  Uiso   1.00
C990   C     0.83584   0.83352   0.88379   0.00000  Uiso   1.00
C991   C     0.85151   0.87798   0.59370   0.00000  Uiso   1.00
C992   C     0.82138   0.78725   0.90580   0.00000  Uiso   1.00
C993   C     0.84500   0.88097   0.54733   0.00000  Uiso   1.00
C994   C     0.81429   0.78773   0.95295   0.00000  Uiso   1.00
C995   C     0.82694   0.83517   0.52374   0.00000  Uiso   1.00
C996   C     0.82913   0.83439   0.97667   0.00000  Uiso   1.00
C997   C     0.80718   0.78999   0.54718   0.00000  Uiso   1.00
C998   C     0.81834   0.73530   0.75125   0.00000  Uiso   1.00
C999   C     0.84651   0.88035   0.95336   0.00000  Uiso   1.00
C1000  C     0.85626   0.92773   0.52366   0.00000  Uiso   1.00
C1001  C     0.79102   0.74389   0.97677   0.00000  Uiso   1.00
C1002  C     0.85891   0.92645   0.97714   0.00000  Uiso   1.00
C1003  C     0.78792   0.74561   0.52367   0.00000  Uiso   1.00
C1004  C     0.85574   0.98541   0.75377   0.00000  Uiso   1.00
C1005  C     0.81093   0.68126   0.74619   0.00000  Uiso   1.00
C1006  C     0.83425   0.83349   0.83627   0.00000  Uiso   1.00
C1007  C     0.83233   0.83307   0.66370   0.00000  Uiso   1.00
C1008  C     0.80654   0.79006   0.59390   0.00000  Uiso   1.00
H1009  H     0.86911   0.96249   0.95980   0.00000  Uiso   1.00
H1010  H     0.83800   0.71645   0.89326   0.00000  Uiso   1.00
H1011  H     0.83546   0.97531   0.57193   0.00000  Uiso   1.00
H1012  H     0.75499   0.67373   0.97589   0.00000  Uiso   1.00
H1013  H     0.94306   0.99691   0.74896   0.00000  Uiso   1.00
H1014  H     0.91377   0.98886   0.80208   0.00000  Uiso   1.00
H1015  H     0.72362   0.66967   0.75101   0.00000  Uiso   1.00
H1016  H     0.75286   0.67797   0.69791   0.00000  Uiso   1.00
H1017  H     0.77045   0.71176   0.54168   0.00000  Uiso   1.00
H1018  H     0.67131   0.79422   0.71620   0.00000  Uiso   1.00
H1019  H     0.99536   0.87246   0.78379   0.00000  Uiso   1.00
H1020  H     0.81816   0.73206   0.63666   0.00000  Uiso   1.00
H1021  H     0.75102   0.75491   0.64077   0.00000  Uiso   1.00
H1022  H     0.83030   0.93483   0.86285   0.00000  Uiso   1.00
H1023  H     0.90079   0.92083   0.86113   0.00000  Uiso   1.00
H1024  H     0.91335   0.93072   0.59814   0.00000  Uiso   1.00
N1025  N     0.98344   0.81932   0.73783   0.00000  Uiso   1.00
N1026  N     0.68322   0.84735   0.76217   0.00000  Uiso   1.00
N1027  N     0.78513   0.74486   0.61833   0.00000  Uiso   1.00
N1028  N     0.86420   0.92678   0.88245   0.00000  Uiso   1.00
N1029  N     0.90869   0.67299   0.77142   0.00000  Uiso   1.00
N1030  N     0.75800   0.99370   0.72850   0.00000  Uiso   1.00
O1031  O     0.79642   0.91286   0.75299   0.00000  Uiso   1.00
O1032  O     0.81486   0.74254   0.88012   0.00000  Uiso   1.00
O1033  O     0.86174   0.97573   0.54439   0.00000  Uiso   1.00
O1034  O     0.76912   0.70068   0.95407   0.00000  Uiso   1.00
O1035  O     0.87025   0.75381   0.74702   0.00000  Uiso   1.00
O1036  O     0.89280   0.90387   0.74519   0.00000  Uiso   1.00
O1037  O     0.77387   0.76279   0.75482   0.00000  Uiso   1.00
O1038  O     0.78514   0.83784   0.81998   0.00000  Uiso   1.00
O1039  O     0.88153   0.82883   0.68003   0.00000  Uiso   1.00
O1040  O     0.88152   0.82885   0.81218   0.00000  Uiso   1.00
O1041  O     0.78515   0.83781   0.68783   0.00000  Uiso   1.00
O1042  O     0.88066   0.91621   0.61784   0.00000  Uiso   1.00
Zn1043 Zn    0.76898   0.83933   0.75521   0.00000  Uiso   1.00
Zn1044 Zn    0.89769   0.82734   0.74479   0.00000  Uiso   1.00
loop_
_geom_bond_atom_site_label_1
_geom_bond_atom_site_label_2
_geom_bond_distance
_geom_bond_site_symmetry_2
_ccdc_geom_bond_type
C1     C18     1.407   .     S
C1     O45     1.273   .     A
C1     O50     1.289   .     A
C2     C4      1.396   .     A
C2     N42     1.439   .     S
C2     C13     1.391   .     A
C3     C21     1.421   .     S
C3     C22     1.398   .     A
C3     C5      1.393   .     A
C4     C6      1.392   .     A
C4     C20     1.419   .     S
C5     O56     1.382   .     S
C5     C7      1.405   .     A
C6     O46     1.380   .     S
C6     C8      1.404   .     A
C7     C9      1.422   .     A
C7     C14     1.418   .     A
C8     C10     1.423   .     A
C8     C15     1.414   .     A
C9     C11     1.414   .     A
C9     C532    1.400   1_554 S
C10    C13     1.417   .     A
C10    C531    1.400   .     S
C11    C22     1.392   .     A
C11    C17     1.399   .     A
C12    O49     1.273   .     A
C12    C19     1.407   .     S
C12    O51     1.289   .     A
C13    C16     1.400   .     A
C14    O47     1.379   .     S
C14    C538    1.384   1_554 S
C15    O48     1.383   .     S
C15    C539    1.395   .     S
C16    H23     1.084   .     S
C16    C536    1.384   .     S
C17    H31     1.083   .     S
C17    C537    1.395   1_554 S
C18    C193    1.358   .     S
C18    N217    1.443   .     S
C19    C366    1.358   1_545 S
C19    N392    1.443   1_545 S
C20    O52     1.283   .     A
C20    O54     1.284   .     A
C21    O55     1.283   .     A
C21    O53     1.285   .     A
C22    N41     1.439   .     S
H24    O46     0.992   .     S
H25    O47     0.991   .     S
H26    O48     0.992   .     S
H27    N217    1.046   .     S
H28    N217    1.045   .     S
H29    N392    1.046   1_545 S
H30    N392    1.045   1_545 S
H32    N155    1.029   1_455 S
H33    N98     1.029   .     S
H34    N41     1.046   .     S
H35    N41     1.045   .     S
H36    N42     1.046   .     S
H37    N42     1.045   .     S
H38    O56     0.991   .     S
N39    Zn58    2.016   .     S
N39    H90     1.029   .     S
N39    N98     1.277   .     S
N40    Zn57    2.016   .     S
N40    H149    1.029   1_455 S
N40    N155    1.277   1_455 S
N43    H376    1.045   1_545 S
N43    H375    1.046   1_545 S
N43    C366    1.443   1_545 S
N44    H203    1.046   .     S
N44    H204    1.045   .     S
N44    C193    1.443   .     S
O45    Zn57    1.974   .     S
O49    Zn58    1.974   .     S
O50    Zn58    1.993   .     S
O51    Zn57    1.993   .     S
O52    Zn57    1.992   .     S
O53    Zn58    1.992   .     S
O54    Zn58    2.019   .     S
O55    Zn57    2.019   .     S
C59    C76     1.407   .     S
C59    O103    1.273   .     A
C59    O108    1.289   .     A
C60    C62     1.396   .     A
C60    N100    1.439   .     S
C60    C71     1.391   .     A
C61    C79     1.421   .     S
C61    C80     1.398   .     A
C61    C63     1.393   .     A
C62    C64     1.392   .     A
C62    C78     1.419   .     S
C63    O114    1.382   .     S
C63    C65     1.405   .     A
C64    O104    1.380   .     S
C64    C66     1.404   .     A
C65    C67     1.422   .     A
C65    C72     1.418   .     A
C66    C68     1.423   .     A
C66    C73     1.414   .     A
C67    C69     1.414   .     A
C67    C590    1.400   1_554 S
C68    C71     1.417   .     A
C68    C589    1.400   .     S
C69    C80     1.392   .     A
C69    C75     1.399   .     A
C70    O107    1.273   .     A
C70    C77     1.407   .     S
C70    O109    1.289   .     A
C71    C74     1.400   .     A
C72    O105    1.379   .     S
C72    C596    1.384   1_554 S
C73    O106    1.383   .     S
C73    C597    1.395   .     S
C74    H81     1.084   .     S
C74    C594    1.384   .     S
C75    H89     1.083   .     S
C75    C595    1.395   1_554 S
C76    C251    1.358   .     S
C76    N275    1.443   .     S
C77    C424    1.358   1_545 S
C77    N450    1.443   1_545 S
C78    O110    1.283   .     A
C78    O112    1.284   .     A
C79    O113    1.283   .     A
C79    O111    1.285   .     A
C80    N99     1.439   .     S
H82    O104    0.992   .     S
H83    O105    0.991   .     S
H84    O106    0.992   .     S
H85    N275    1.046   .     S
H86    N275    1.045   .     S
H87    N450    1.046   1_545 S
H88    N450    1.045   1_545 S
H91    N156    1.029   .     S
H92    N99     1.046   .     S
H93    N99     1.045   .     S
H94    N100    1.046   .     S
H95    N100    1.045   .     S
H96    O114    0.991   .     S
N97    Zn116   2.016   .     S
N97    H148    1.029   .     S
N97    N156    1.277   .     S
N98    Zn115   2.016   .     S
N101   H434    1.045   1_545 S
N101   H433    1.046   1_545 S
N101   C424    1.443   1_545 S
N102   H261    1.046   .     S
N102   H262    1.045   .     S
N102   C251    1.443   .     S
O103   Zn115   1.974   .     S
O107   Zn116   1.974   .     S
O108   Zn116   1.993   .     S
O109   Zn115   1.993   .     S
O110   Zn115   1.992   .     S
O111   Zn116   1.992   .     S
O112   Zn116   2.019   .     S
O113   Zn115   2.019   .     S
C117   C134    1.407   .     S
C117   O161    1.273   .     A
C117   O166    1.289   .     A
C118   C120    1.396   .     A
C118   N158    1.439   .     S
C118   C129    1.391   .     A
C119   C137    1.421   .     S
C119   C138    1.398   .     A
C119   C121    1.393   .     A
C120   C122    1.392   .     A
C120   C136    1.419   .     S
C121   O172    1.382   .     S
C121   C123    1.405   .     A
C122   O162    1.380   .     S
C122   C124    1.404   .     A
C123   C125    1.422   .     A
C123   C130    1.418   .     A
C124   C126    1.423   .     A
C124   C131    1.414   .     A
C125   C127    1.414   .     A
C125   C648    1.400   1_554 S
C126   C129    1.417   .     A
C126   C647    1.400   .     S
C127   C138    1.392   .     A
C127   C133    1.399   .     A
C128   O165    1.273   .     A
C128   C135    1.407   .     S
C128   O167    1.289   .     A
C129   C132    1.400   .     A
C130   O163    1.379   .     S
C130   C654    1.384   1_554 S
C131   O164    1.383   .     S
C131   C655    1.395   .     S
C132   H139    1.084   .     S
C132   C652    1.384   .     S
C133   H147    1.083   .     S
C133   C653    1.395   1_554 S
C134   C309    1.358   .     S
C134   N333    1.443   .     S
C135   C482    1.358   1_545 S
C135   N508    1.443   1_545 S
C136   O168    1.283   .     A
C136   O170    1.284   .     A
C137   O171    1.283   .     A
C137   O169    1.285   .     A
C138   N157    1.439   .     S
H140   O162    0.992   .     S
H141   O163    0.991   .     S
H142   O164    0.992   .     S
H143   N333    1.046   .     S
H144   N333    1.045   .     S
H145   N508    1.046   1_545 S
H146   N508    1.045   1_545 S
H149   N40     1.029   1_655 S
H150   N157    1.046   .     S
H151   N157    1.045   .     S
H152   N158    1.046   .     S
H153   N158    1.045   .     S
H154   O172    0.991   .     S
N155   Zn174   2.016   .     S
N155   H32     1.029   1_655 S
N155   N40     1.277   1_655 S
N156   Zn173   2.016   .     S
N159   H492    1.045   1_545 S
N159   H491    1.046   1_545 S
N159   C482    1.443   1_545 S
N160   H319    1.046   .     S
N160   H320    1.045   .     S
N160   C309    1.443   .     S
O161   Zn173   1.974   .     S
O165   Zn174   1.974   .     S
O166   Zn174   1.993   .     S
O167   Zn173   1.993   .     S
O168   Zn173   1.992   .     S
O169   Zn174   1.992   .     S
O170   Zn174   2.019   .     S
O171   Zn173   2.019   .     S
C175   C192    1.407   .     S
C175   O219    1.273   .     A
C175   O224    1.289   .     A
C176   C178    1.396   .     A
C176   N216    1.439   .     S
C176   C187    1.391   .     A
C177   C195    1.421   .     S
C177   C196    1.398   .     A
C177   C179    1.393   .     A
C178   C180    1.392   .     A
C178   C194    1.419   .     S
C179   O230    1.382   .     S
C179   C181    1.405   .     A
C180   O220    1.380   .     S
C180   C182    1.404   .     A
C181   C183    1.422   .     A
C181   C188    1.418   .     A
C182   C184    1.423   .     A
C182   C189    1.414   .     A
C183   C185    1.414   .     A
C183   C706    1.400   1_554 S
C184   C187    1.417   .     A
C184   C705    1.400   .     S
C185   C196    1.392   .     A
C185   C191    1.399   .     A
C186   O223    1.273   .     A
C186   C193    1.407   .     S
C186   O225    1.289   .     A
C187   C190    1.400   .     A
C188   O221    1.379   .     S
C188   C712    1.384   1_554 S
C189   O222    1.383   .     S
C189   C713    1.395   .     S
C190   H197    1.084   .     S
C190   C710    1.384   .     S
C191   H205    1.083   .     S
C191   C711    1.395   1_554 S
C192   C367    1.358   .     S
C192   N391    1.443   .     S
C194   O226    1.283   .     A
C194   O228    1.284   .     A
C195   O229    1.283   .     A
C195   O227    1.285   .     A
C196   N215    1.439   .     S
H198   O220    0.992   .     S
H199   O221    0.991   .     S
H200   O222    0.992   .     S
H201   N391    1.046   .     S
H202   N391    1.045   .     S
H206   N329    1.029   1_455 S
H207   N272    1.029   .     S
H208   N215    1.046   .     S
H209   N215    1.045   .     S
H210   N216    1.046   .     S
H211   N216    1.045   .     S
H212   O230    0.991   .     S
N213   Zn232   2.016   .     S
N213   H264    1.029   .     S
N213   N272    1.277   .     S
N214   Zn231   2.016   .     S
N214   H323    1.029   1_455 S
N214   N329    1.277   1_455 S
N218   H377    1.046   .     S
N218   H378    1.045   .     S
N218   C367    1.443   .     S
O219   Zn231   1.974   .     S
O223   Zn232   1.974   .     S
O224   Zn232   1.993   .     S
O225   Zn231   1.993   .     S
O226   Zn231   1.992   .     S
O227   Zn232   1.992   .     S
O228   Zn232   2.019   .     S
O229   Zn231   2.019   .     S
C233   C250    1.407   .     S
C233   O277    1.273   .     A
C233   O282    1.289   .     A
C234   C236    1.396   .     A
C234   N274    1.439   .     S
C234   C245    1.391   .     A
C235   C253    1.421   .     S
C235   C254    1.398   .     A
C235   C237    1.393   .     A
C236   C238    1.392   .     A
C236   C252    1.419   .     S
C237   O288    1.382   .     S
C237   C239    1.405   .     A
C238   O278    1.380   .     S
C238   C240    1.404   .     A
C239   C241    1.422   .     A
C239   C246    1.418   .     A
C240   C242    1.423   .     A
C240   C247    1.414   .     A
C241   C243    1.414   .     A
C241   C764    1.400   1_554 S
C242   C245    1.417   .     A
C242   C763    1.400   .     S
C243   C254    1.392   .     A
C243   C249    1.399   .     A
C244   O281    1.273   .     A
C244   C251    1.407   .     S
C244   O283    1.289   .     A
C245   C248    1.400   .     A
C246   O279    1.379   .     S
C246   C770    1.384   1_554 S
C247   O280    1.383   .     S
C247   C771    1.395   .     S
C248   H255    1.084   .     S
C248   C768    1.384   .     S
C249   H263    1.083   .     S
C249   C769    1.395   1_554 S
C250   C425    1.358   .     S
C250   N449    1.443   .     S
C252   O284    1.283   .     A
C252   O286    1.284   .     A
C253   O287    1.283   .     A
C253   O285    1.285   .     A
C254   N273    1.439   .     S
H256   O278    0.992   .     S
H257   O279    0.991   .     S
H258   O280    0.992   .     S
H259   N449    1.046   .     S
H260   N449    1.045   .     S
H265   N330    1.029   .     S
H266   N273    1.046   .     S
H267   N273    1.045   .     S
H268   N274    1.046   .     S
H269   N274    1.045   .     S
H270   O288    0.991   .     S
N271   Zn290   2.016   .     S
N271   H322    1.029   .     S
N271   N330    1.277   .     S
N272   Zn289   2.016   .     S
N276   H435    1.046   .     S
N276   H436    1.045   .     S
N276   C425    1.443   .     S
O277   Zn289   1.974   .     S
O281   Zn290   1.974   .     S
O282   Zn290   1.993   .     S
O283   Zn289   1.993   .     S
O284   Zn289   1.992   .     S
O285   Zn290   1.992   .     S
O286   Zn290   2.019   .     S
O287   Zn289   2.019   .     S
C291   C308    1.407   .     S
C291   O335    1.273   .     A
C291   O340    1.289   .     A
C292   C294    1.396   .     A
C292   N332    1.439   .     S
C292   C303    1.391   .     A
C293   C311    1.421   .     S
C293   C312    1.398   .     A
C293   C295    1.393   .     A
C294   C296    1.392   .     A
C294   C310    1.419   .     S
C295   O346    1.382   .     S
C295   C297    1.405   .     A
C296   O336    1.380   .     S
C296   C298    1.404   .     A
C297   C299    1.422   .     A
C297   C304    1.418   .     A
C298   C300    1.423   .     A
C298   C305    1.414   .     A
C299   C301    1.414   .     A
C299   C822    1.400   1_554 S
C300   C303    1.417   .     A
C300   C821    1.400   .     S
C301   C312    1.392   .     A
C301   C307    1.399   .     A
C302   O339    1.273   .     A
C302   C309    1.407   .     S
C302   O341    1.289   .     A
C303   C306    1.400   .     A
C304   O337    1.379   .     S
C304   C828    1.384   1_554 S
C305   O338    1.383   .     S
C305   C829    1.395   .     S
C306   H313    1.084   .     S
C306   C826    1.384   .     S
C307   H321    1.083   .     S
C307   C827    1.395   1_554 S
C308   C483    1.358   .     S
C308   N507    1.443   .     S
C310   O342    1.283   .     A
C310   O344    1.284   .     A
C311   O345    1.283   .     A
C311   O343    1.285   .     A
C312   N331    1.439   .     S
H314   O336    0.992   .     S
H315   O337    0.991   .     S
H316   O338    0.992   .     S
H317   N507    1.046   .     S
H318   N507    1.045   .     S
H323   N214    1.029   1_655 S
H324   N331    1.046   .     S
H325   N331    1.045   .     S
H326   N332    1.046   .     S
H327   N332    1.045   .     S
H328   O346    0.991   .     S
N329   Zn348   2.016   .     S
N329   H206    1.029   1_655 S
N329   N214    1.277   1_655 S
N330   Zn347   2.016   .     S
N334   H493    1.046   .     S
N334   H494    1.045   .     S
N334   C483    1.443   .     S
O335   Zn347   1.974   .     S
O339   Zn348   1.974   .     S
O340   Zn348   1.993   .     S
O341   Zn347   1.993   .     S
O342   Zn347   1.992   .     S
O343   Zn348   1.992   .     S
O344   Zn348   2.019   .     S
O345   Zn347   2.019   .     S
C349   C366    1.407   .     S
C349   O393    1.273   .     A
C349   O398    1.289   .     A
C350   C352    1.396   .     A
C350   N390    1.439   .     S
C350   C361    1.391   .     A
C351   C369    1.421   .     S
C351   C370    1.398   .     A
C351   C353    1.393   .     A
C352   C354    1.392   .     A
C352   C368    1.419   .     S
C353   O404    1.382   .     S
C353   C355    1.405   .     A
C354   O394    1.380   .     S
C354   C356    1.404   .     A
C355   C357    1.422   .     A
C355   C362    1.418   .     A
C356   C358    1.423   .     A
C356   C363    1.414   .     A
C357   C359    1.414   .     A
C357   C880    1.400   1_554 S
C358   C361    1.417   .     A
C358   C879    1.400   .     S
C359   C370    1.392   .     A
C359   C365    1.399   .     A
C360   O397    1.273   .     A
C360   C367    1.407   .     S
C360   O399    1.289   .     A
C361   C364    1.400   .     A
C362   O395    1.379   .     S
C362   C886    1.384   1_554 S
C363   O396    1.383   .     S
C363   C887    1.395   .     S
C364   H371    1.084   .     S
C364   C884    1.384   .     S
C365   H379    1.083   .     S
C365   C885    1.395   1_554 S
C366   C19     1.358   1_565 S
C366   N43     1.443   1_565 S
C368   O400    1.283   .     A
C368   O402    1.284   .     A
C369   O403    1.283   .     A
C369   O401    1.285   .     A
C370   N389    1.439   .     S
H372   O394    0.992   .     S
H373   O395    0.991   .     S
H374   O396    0.992   .     S
H375   N43     1.046   1_565 S
H376   N43     1.045   1_565 S
H380   N503    1.029   1_455 S
H381   N446    1.029   .     S
H382   N389    1.046   .     S
H383   N389    1.045   .     S
H384   N390    1.046   .     S
H385   N390    1.045   .     S
H386   O404    0.991   .     S
N387   Zn406   2.016   .     S
N387   H438    1.029   .     S
N387   N446    1.277   .     S
N388   Zn405   2.016   .     S
N388   H497    1.029   1_455 S
N388   N503    1.277   1_455 S
N392   H29     1.046   1_565 S
N392   H30     1.045   1_565 S
N392   C19     1.443   1_565 S
O393   Zn405   1.974   .     S
O397   Zn406   1.974   .     S
O398   Zn406   1.993   .     S
O399   Zn405   1.993   .     S
O400   Zn405   1.992   .     S
O401   Zn406   1.992   .     S
O402   Zn406   2.019   .     S
O403   Zn405   2.019   .     S
C407   C424    1.407   .     S
C407   O451    1.273   .     A
C407   O456    1.289   .     A
C408   C410    1.396   .     A
C408   N448    1.439   .     S
C408   C419    1.391   .     A
C409   C427    1.421   .     S
C409   C428    1.398   .     A
C409   C411    1.393   .     A
C410   C412    1.392   .     A
C410   C426    1.419   .     S
C411   O462    1.382   .     S
C411   C413    1.405   .     A
C412   O452    1.380   .     S
C412   C414    1.404   .     A
C413   C415    1.422   .     A
C413   C420    1.418   .     A
C414   C416    1.423   .     A
C414   C421    1.414   .     A
C415   C417    1.414   .     A
C415   C938    1.400   1_554 S
C416   C419    1.417   .     A
C416   C937    1.400   .     S
C417   C428    1.392   .     A
C417   C423    1.399   .     A
C418   O455    1.273   .     A
C418   C425    1.407   .     S
C418   O457    1.289   .     A
C419   C422    1.400   .     A
C420   O453    1.379   .     S
C420   C944    1.384   1_554 S
C421   O454    1.383   .     S
C421   C945    1.395   .     S
C422   H429    1.084   .     S
C422   C942    1.384   .     S
C423   H437    1.083   .     S
C423   C943    1.395   1_554 S
C424   C77     1.358   1_565 S
C424   N101    1.443   1_565 S
C426   O458    1.283   .     A
C426   O460    1.284   .     A
C427   O461    1.283   .     A
C427   O459    1.285   .     A
C428   N447    1.439   .     S
H430   O452    0.992   .     S
H431   O453    0.991   .     S
H432   O454    0.992   .     S
H433   N101    1.046   1_565 S
H434   N101    1.045   1_565 S
H439   N504    1.029   .     S
H440   N447    1.046   .     S
H441   N447    1.045   .     S
H442   N448    1.046   .     S
H443   N448    1.045   .     S
H444   O462    0.991   .     S
N445   Zn464   2.016   .     S
N445   H496    1.029   .     S
N445   N504    1.277   .     S
N446   Zn463   2.016   .     S
N450   H87     1.046   1_565 S
N450   H88     1.045   1_565 S
N450   C77     1.443   1_565 S
O451   Zn463   1.974   .     S
O455   Zn464   1.974   .     S
O456   Zn464   1.993   .     S
O457   Zn463   1.993   .     S
O458   Zn463   1.992   .     S
O459   Zn464   1.992   .     S
O460   Zn464   2.019   .     S
O461   Zn463   2.019   .     S
C465   C482    1.407   .     S
C465   O509    1.273   .     A
C465   O514    1.289   .     A
C466   C468    1.396   .     A
C466   N506    1.439   .     S
C466   C477    1.391   .     A
C467   C485    1.421   .     S
C467   C486    1.398   .     A
C467   C469    1.393   .     A
C468   C470    1.392   .     A
C468   C484    1.419   .     S
C469   O520    1.382   .     S
C469   C471    1.405   .     A
C470   O510    1.380   .     S
C470   C472    1.404   .     A
C471   C473    1.422   .     A
C471   C478    1.418   .     A
C472   C474    1.423   .     A
C472   C479    1.414   .     A
C473   C475    1.414   .     A
C473   C996    1.400   1_554 S
C474   C477    1.417   .     A
C474   C995    1.400   .     S
C475   C486    1.392   .     A
C475   C481    1.399   .     A
C476   O513    1.273   .     A
C476   C483    1.407   .     S
C476   O515    1.289   .     A
C477   C480    1.400   .     A
C478   O511    1.379   .     S
C478   C1002   1.384   1_554 S
C479   O512    1.383   .     S
C479   C1003   1.395   .     S
C480   H487    1.084   .     S
C480   C1000   1.384   .     S
C481   H495    1.083   .     S
C481   C1001   1.395   1_554 S
C482   C135    1.358   1_565 S
C482   N159    1.443   1_565 S
C484   O516    1.283   .     A
C484   O518    1.284   .     A
C485   O519    1.283   .     A
C485   O517    1.285   .     A
C486   N505    1.439   .     S
H488   O510    0.992   .     S
H489   O511    0.991   .     S
H490   O512    0.992   .     S
H491   N159    1.046   1_565 S
H492   N159    1.045   1_565 S
H497   N388    1.029   1_655 S
H498   N505    1.046   .     S
H499   N505    1.045   .     S
H500   N506    1.046   .     S
H501   N506    1.045   .     S
H502   O520    0.991   .     S
N503   Zn522   2.016   .     S
N503   H380    1.029   1_655 S
N503   N388    1.277   1_655 S
N504   Zn521   2.016   .     S
N508   H145    1.046   1_565 S
N508   H146    1.045   1_565 S
N508   C135    1.443   1_565 S
O509   Zn521   1.974   .     S
O513   Zn522   1.974   .     S
O514   Zn522   1.993   .     S
O515   Zn521   1.993   .     S
O516   Zn521   1.992   .     S
O517   Zn522   1.992   .     S
O518   Zn522   2.019   .     S
O519   Zn521   2.019   .     S
C523   C540    1.407   .     S
C523   O567    1.273   .     A
C523   O572    1.289   .     A
C524   C526    1.396   .     A
C524   N564    1.439   .     S
C524   C535    1.391   .     A
C525   C543    1.421   .     S
C525   C544    1.398   .     A
C525   C527    1.393   .     A
C526   C528    1.392   .     A
C526   C542    1.419   .     S
C527   O578    1.382   .     S
C527   C529    1.405   .     A
C528   O568    1.380   .     S
C528   C530    1.404   .     A
C529   C531    1.422   .     A
C529   C536    1.418   .     A
C530   C532    1.423   .     A
C530   C537    1.414   .     A
C531   C533    1.414   .     A
C532   C535    1.417   .     A
C532   C9      1.400   1_556 S
C533   C544    1.392   .     A
C533   C539    1.399   .     A
C534   O571    1.273   .     A
C534   C541    1.407   .     S
C534   O573    1.289   .     A
C535   C538    1.400   .     A
C536   O569    1.379   .     S
C537   O570    1.383   .     S
C537   C17     1.395   1_556 S
C538   H545    1.084   .     S
C538   C14     1.384   1_556 S
C539   H553    1.083   .     S
C540   C715    1.358   .     S
C540   N739    1.443   .     S
C541   C888    1.358   1_545 S
C541   N914    1.443   1_545 S
C542   O574    1.283   .     A
C542   O576    1.284   .     A
C543   O577    1.283   .     A
C543   O575    1.285   .     A
C544   N563    1.439   .     S
H546   O568    0.992   .     S
H547   O569    0.991   .     S
H548   O570    0.992   .     S
H549   N739    1.046   .     S
H550   N739    1.045   .     S
H551   N914    1.046   1_545 S
H552   N914    1.045   1_545 S
H554   N677    1.029   1_455 S
H555   N620    1.029   .     S
H556   N563    1.046   .     S
H557   N563    1.045   .     S
H558   N564    1.046   .     S
H559   N564    1.045   .     S
H560   O578    0.991   .     S
N561   Zn580   2.016   .     S
N561   H612    1.029   .     S
N561   N620    1.277   .     S
N562   Zn579   2.016   .     S
N562   H671    1.029   1_455 S
N562   N677    1.277   1_455 S
N565   H898    1.045   1_545 S
N565   H897    1.046   1_545 S
N565   C888    1.443   1_545 S
N566   H725    1.046   .     S
N566   H726    1.045   .     S
N566   C715    1.443   .     S
O567   Zn579   1.974   .     S
O571   Zn580   1.974   .     S
O572   Zn580   1.993   .     S
O573   Zn579   1.993   .     S
O574   Zn579   1.992   .     S
O575   Zn580   1.992   .     S
O576   Zn580   2.019   .     S
O577   Zn579   2.019   .     S
C581   C598    1.407   .     S
C581   O625    1.273   .     A
C581   O630    1.289   .     A
C582   C584    1.396   .     A
C582   N622    1.439   .     S
C582   C593    1.391   .     A
C583   C601    1.421   .     S
C583   C602    1.398   .     A
C583   C585    1.393   .     A
C584   C586    1.392   .     A
C584   C600    1.419   .     S
C585   O636    1.382   .     S
C585   C587    1.405   .     A
C586   O626    1.380   .     S
C586   C588    1.404   .     A
C587   C589    1.422   .     A
C587   C594    1.418   .     A
C588   C590    1.423   .     A
C588   C595    1.414   .     A
C589   C591    1.414   .     A
C590   C593    1.417   .     A
C590   C67     1.400   1_556 S
C591   C602    1.392   .     A
C591   C597    1.399   .     A
C592   O629    1.273   .     A
C592   C599    1.407   .     S
C592   O631    1.289   .     A
C593   C596    1.400   .     A
C594   O627    1.379   .     S
C595   O628    1.383   .     S
C595   C75     1.395   1_556 S
C596   H603    1.084   .     S
C596   C72     1.384   1_556 S
C597   H611    1.083   .     S
C598   C773    1.358   .     S
C598   N797    1.443   .     S
C599   C946    1.358   1_545 S
C599   N972    1.443   1_545 S
C600   O632    1.283   .     A
C600   O634    1.284   .     A
C601   O635    1.283   .     A
C601   O633    1.285   .     A
C602   N621    1.439   .     S
H604   O626    0.992   .     S
H605   O627    0.991   .     S
H606   O628    0.992   .     S
H607   N797    1.046   .     S
H608   N797    1.045   .     S
H609   N972    1.046   1_545 S
H610   N972    1.045   1_545 S
H613   N678    1.029   .     S
H614   N621    1.046   .     S
H615   N621    1.045   .     S
H616   N622    1.046   .     S
H617   N622    1.045   .     S
H618   O636    0.991   .     S
N619   Zn638   2.016   .     S
N619   H670    1.029   .     S
N619   N678    1.277   .     S
N620   Zn637   2.016   .     S
N623   H956    1.045   1_545 S
N623   H955    1.046   1_545 S
N623   C946    1.443   1_545 S
N624   H783    1.046   .     S
N624   H784    1.045   .     S
N624   C773    1.443   .     S
O625   Zn637   1.974   .     S
O629   Zn638   1.974   .     S
O630   Zn638   1.993   .     S
O631   Zn637   1.993   .     S
O632   Zn637   1.992   .     S
O633   Zn638   1.992   .     S
O634   Zn638   2.019   .     S
O635   Zn637   2.019   .     S
C639   C656    1.407   .     S
C639   O683    1.273   .     A
C639   O688    1.289   .     A
C640   C642    1.396   .     A
C640   N680    1.439   .     S
C640   C651    1.391   .     A
C641   C659    1.421   .     S
C641   C660    1.398   .     A
C641   C643    1.393   .     A
C642   C644    1.392   .     A
C642   C658    1.419   .     S
C643   O694    1.382   .     S
C643   C645    1.405   .     A
C644   O684    1.380   .     S
C644   C646    1.404   .     A
C645   C647    1.422   .     A
C645   C652    1.418   .     A
C646   C648    1.423   .     A
C646   C653    1.414   .     A
C647   C649    1.414   .     A
C648   C651    1.417   .     A
C648   C125    1.400   1_556 S
C649   C660    1.392   .     A
C649   C655    1.399   .     A
C650   O687    1.273   .     A
C650   C657    1.407   .     S
C650   O689    1.289   .     A
C651   C654    1.400   .     A
C652   O685    1.379   .     S
C653   O686    1.383   .     S
C653   C133    1.395   1_556 S
C654   H661    1.084   .     S
C654   C130    1.384   1_556 S
C655   H669    1.083   .     S
C656   C831    1.358   .     S
C656   N855    1.443   .     S
C657   C1004   1.358   1_545 S
C657   N1030   1.443   1_545 S
C658   O690    1.283   .     A
C658   O692    1.284   .     A
C659   O693    1.283   .     A
C659   O691    1.285   .     A
C660   N679    1.439   .     S
H662   O684    0.992   .     S
H663   O685    0.991   .     S
H664   O686    0.992   .     S
H665   N855    1.046   .     S
H666   N855    1.045   .     S
H667   N1030   1.046   1_545 S
H668   N1030   1.045   1_545 S
H671   N562    1.029   1_655 S
H672   N679    1.046   .     S
H673   N679    1.045   .     S
H674   N680    1.046   .     S
H675   N680    1.045   .     S
H676   O694    0.991   .     S
N677   Zn696   2.016   .     S
N677   H554    1.029   1_655 S
N677   N562    1.277   1_655 S
N678   Zn695   2.016   .     S
N681   H1014   1.045   1_545 S
N681   H1013   1.046   1_545 S
N681   C1004   1.443   1_545 S
N682   H841    1.046   .     S
N682   H842    1.045   .     S
N682   C831    1.443   .     S
O683   Zn695   1.974   .     S
O687   Zn696   1.974   .     S
O688   Zn696   1.993   .     S
O689   Zn695   1.993   .     S
O690   Zn695   1.992   .     S
O691   Zn696   1.992   .     S
O692   Zn696   2.019   .     S
O693   Zn695   2.019   .     S
C697   C714    1.407   .     S
C697   O741    1.273   .     A
C697   O746    1.289   .     A
C698   C700    1.396   .     A
C698   N738    1.439   .     S
C698   C709    1.391   .     A
C699   C717    1.421   .     S
C699   C718    1.398   .     A
C699   C701    1.393   .     A
C700   C702    1.392   .     A
C700   C716    1.419   .     S
C701   O752    1.382   .     S
C701   C703    1.405   .     A
C702   O742    1.380   .     S
C702   C704    1.404   .     A
C703   C705    1.422   .     A
C703   C710    1.418   .     A
C704   C706    1.423   .     A
C704   C711    1.414   .     A
C705   C707    1.414   .     A
C706   C709    1.417   .     A
C706   C183    1.400   1_556 S
C707   C718    1.392   .     A
C707   C713    1.399   .     A
C708   O745    1.273   .     A
C708   C715    1.407   .     S
C708   O747    1.289   .     A
C709   C712    1.400   .     A
C710   O743    1.379   .     S
C711   O744    1.383   .     S
C711   C191    1.395   1_556 S
C712   H719    1.084   .     S
C712   C188    1.384   1_556 S
C713   H727    1.083   .     S
C714   C889    1.358   .     S
C714   N913    1.443   .     S
C716   O748    1.283   .     A
C716   O750    1.284   .     A
C717   O751    1.283   .     A
C717   O749    1.285   .     A
C718   N737    1.439   .     S
H720   O742    0.992   .     S
H721   O743    0.991   .     S
H722   O744    0.992   .     S
H723   N913    1.046   .     S
H724   N913    1.045   .     S
H728   N851    1.029   1_455 S
H729   N794    1.029   .     S
H730   N737    1.046   .     S
H731   N737    1.045   .     S
H732   N738    1.046   .     S
H733   N738    1.045   .     S
H734   O752    0.991   .     S
N735   Zn754   2.016   .     S
N735   H786    1.029   .     S
N735   N794    1.277   .     S
N736   Zn753   2.016   .     S
N736   H845    1.029   1_455 S
N736   N851    1.277   1_455 S
N740   H899    1.046   .     S
N740   H900    1.045   .     S
N740   C889    1.443   .     S
O741   Zn753   1.974   .     S
O745   Zn754   1.974   .     S
O746   Zn754   1.993   .     S
O747   Zn753   1.993   .     S
O748   Zn753   1.992   .     S
O749   Zn754   1.992   .     S
O750   Zn754   2.019   .     S
O751   Zn753   2.019   .     S
C755   C772    1.407   .     S
C755   O799    1.273   .     A
C755   O804    1.289   .     A
C756   C758    1.396   .     A
C756   N796    1.439   .     S
C756   C767    1.391   .     A
C757   C775    1.421   .     S
C757   C776    1.398   .     A
C757   C759    1.393   .     A
C758   C760    1.392   .     A
C758   C774    1.419   .     S
C759   O810    1.382   .     S
C759   C761    1.405   .     A
C760   O800    1.380   .     S
C760   C762    1.404   .     A
C761   C763    1.422   .     A
C761   C768    1.418   .     A
C762   C764    1.423   .     A
C762   C769    1.414   .     A
C763   C765    1.414   .     A
C764   C767    1.417   .     A
C764   C241    1.400   1_556 S
C765   C776    1.392   .     A
C765   C771    1.399   .     A
C766   O803    1.273   .     A
C766   C773    1.407   .     S
C766   O805    1.289   .     A
C767   C770    1.400   .     A
C768   O801    1.379   .     S
C769   O802    1.383   .     S
C769   C249    1.395   1_556 S
C770   H777    1.084   .     S
C770   C246    1.384   1_556 S
C771   H785    1.083   .     S
C772   C947    1.358   .     S
C772   N971    1.443   .     S
C774   O806    1.283   .     A
C774   O808    1.284   .     A
C775   O809    1.283   .     A
C775   O807    1.285   .     A
C776   N795    1.439   .     S
H778   O800    0.992   .     S
H779   O801    0.991   .     S
H780   O802    0.992   .     S
H781   N971    1.046   .     S
H782   N971    1.045   .     S
H787   N852    1.029   .     S
H788   N795    1.046   .     S
H789   N795    1.045   .     S
H790   N796    1.046   .     S
H791   N796    1.045   .     S
H792   O810    0.991   .     S
N793   Zn812   2.016   .     S
N793   H844    1.029   .     S
N793   N852    1.277   .     S
N794   Zn811   2.016   .     S
N798   H957    1.046   .     S
N798   H958    1.045   .     S
N798   C947    1.443   .     S
O799   Zn811   1.974   .     S
O803   Zn812   1.974   .     S
O804   Zn812   1.993   .     S
O805   Zn811   1.993   .     S
O806   Zn811   1.992   .     S
O807   Zn812   1.992   .     S
O808   Zn812   2.019   .     S
O809   Zn811   2.019   .     S
C813   C830    1.407   .     S
C813   O857    1.273   .     A
C813   O862    1.289   .     A
C814   C816    1.396   .     A
C814   N854    1.439   .     S
C814   C825    1.391   .     A
C815   C833    1.421   .     S
C815   C834    1.398   .     A
C815   C817    1.393   .     A
C816   C818    1.392   .     A
C816   C832    1.419   .     S
C817   O868    1.382   .     S
C817   C819    1.405   .     A
C818   O858    1.380   .     S
C818   C820    1.404   .     A
C819   C821    1.422   .     A
C819   C826    1.418   .     A
C820   C822    1.423   .     A
C820   C827    1.414   .     A
C821   C823    1.414   .     A
C822   C825    1.417   .     A
C822   C299    1.400   1_556 S
C823   C834    1.392   .     A
C823   C829    1.399   .     A
C824   O861    1.273   .     A
C824   C831    1.407   .     S
C824   O863    1.289   .     A
C825   C828    1.400   .     A
C826   O859    1.379   .     S
C827   O860    1.383   .     S
C827   C307    1.395   1_556 S
C828   H835    1.084   .     S
C828   C304    1.384   1_556 S
C829   H843    1.083   .     S
C830   C1005   1.358   .     S
C830   N1029   1.443   .     S
C832   O864    1.283   .     A
C832   O866    1.284   .     A
C833   O867    1.283   .     A
C833   O865    1.285   .     A
C834   N853    1.439   .     S
H836   O858    0.992   .     S
H837   O859    0.991   .     S
H838   O860    0.992   .     S
H839   N1029   1.046   .     S
H840   N1029   1.045   .     S
H845   N736    1.029   1_655 S
H846   N853    1.046   .     S
H847   N853    1.045   .     S
H848   N854    1.046   .     S
H849   N854    1.045   .     S
H850   O868    0.991   .     S
N851   Zn870   2.016   .     S
N851   H728    1.029   1_655 S
N851   N736    1.277   1_655 S
N852   Zn869   2.016   .     S
N856   H1015   1.046   .     S
N856   H1016   1.045   .     S
N856   C1005   1.443   .     S
O857   Zn869   1.974   .     S
O861   Zn870   1.974   .     S
O862   Zn870   1.993   .     S
O863   Zn869   1.993   .     S
O864   Zn869   1.992   .     S
O865   Zn870   1.992   .     S
O866   Zn870   2.019   .     S
O867   Zn869   2.019   .     S
C871   C888    1.407   .     S
C871   O915    1.273   .     A
C871   O920    1.289   .     A
C872   C874    1.396   .     A
C872   N912    1.439   .     S
C872   C883    1.391   .     A
C873   C891    1.421   .     S
C873   C892    1.398   .     A
C873   C875    1.393   .     A
C874   C876    1.392   .     A
C874   C890    1.419   .     S
C875   O926    1.382   .     S
C875   C877    1.405   .     A
C876   O916    1.380   .     S
C876   C878    1.404   .     A
C877   C879    1.422   .     A
C877   C884    1.418   .     A
C878   C880    1.423   .     A
C878   C885    1.414   .     A
C879   C881    1.414   .     A
C880   C883    1.417   .     A
C880   C357    1.400   1_556 S
C881   C892    1.392   .     A
C881   C887    1.399   .     A
C882   O919    1.273   .     A
C882   C889    1.407   .     S
C882   O921    1.289   .     A
C883   C886    1.400   .     A
C884   O917    1.379   .     S
C885   O918    1.383   .     S
C885   C365    1.395   1_556 S
C886   H893    1.084   .     S
C886   C362    1.384   1_556 S
C887   H901    1.083   .     S
C888   C541    1.358   1_565 S
C888   N565    1.443   1_565 S
C890   O922    1.283   .     A
C890   O924    1.284   .     A
C891   O925    1.283   .     A
C891   O923    1.285   .     A
C892   N911    1.439   .     S
H894   O916    0.992   .     S
H895   O917    0.991   .     S
H896   O918    0.992   .     S
H897   N565    1.046   1_565 S
H898   N565    1.045   1_565 S
H902   N1025   1.029   1_455 S
H903   N968    1.029   .     S
H904   N911    1.046   .     S
H905   N911    1.045   .     S
H906   N912    1.046   .     S
H907   N912    1.045   .     S
H908   O926    0.991   .     S
N909   Zn928   2.016   .     S
N909   H960    1.029   .     S
N909   N968    1.277   .     S
N910   Zn927   2.016   .     S
N910   H1019   1.029   1_455 S
N910   N1025   1.277   1_455 S
N914   H551    1.046   1_565 S
N914   H552    1.045   1_565 S
N914   C541    1.443   1_565 S
O915   Zn927   1.974   .     S
O919   Zn928   1.974   .     S
O920   Zn928   1.993   .     S
O921   Zn927   1.993   .     S
O922   Zn927   1.992   .     S
O923   Zn928   1.992   .     S
O924   Zn928   2.019   .     S
O925   Zn927   2.019   .     S
C929   C946    1.407   .     S
C929   O973    1.273   .     A
C929   O978    1.289   .     A
C930   C932    1.396   .     A
C930   N970    1.439   .     S
C930   C941    1.391   .     A
C931   C949    1.421   .     S
C931   C950    1.398   .     A
C931   C933    1.393   .     A
C932   C934    1.392   .     A
C932   C948    1.419   .     S
C933   O984    1.382   .     S
C933   C935    1.405   .     A
C934   O974    1.380   .     S
C934   C936    1.404   .     A
C935   C937    1.422   .     A
C935   C942    1.418   .     A
C936   C938    1.423   .     A
C936   C943    1.414   .     A
C937   C939    1.414   .     A
C938   C941    1.417   .     A
C938   C415    1.400   1_556 S
C939   C950    1.392   .     A
C939   C945    1.399   .     A
C940   O977    1.273   .     A
C940   C947    1.407   .     S
C940   O979    1.289   .     A
C941   C944    1.400   .     A
C942   O975    1.379   .     S
C943   O976    1.383   .     S
C943   C423    1.395   1_556 S
C944   H951    1.084   .     S
C944   C420    1.384   1_556 S
C945   H959    1.083   .     S
C946   C599    1.358   1_565 S
C946   N623    1.443   1_565 S
C948   O980    1.283   .     A
C948   O982    1.284   .     A
C949   O983    1.283   .     A
C949   O981    1.285   .     A
C950   N969    1.439   .     S
H952   O974    0.992   .     S
H953   O975    0.991   .     S
H954   O976    0.992   .     S
H955   N623    1.046   1_565 S
H956   N623    1.045   1_565 S
H961   N1026   1.029   .     S
H962   N969    1.046   .     S
H963   N969    1.045   .     S
H964   N970    1.046   .     S
H965   N970    1.045   .     S
H966   O984    0.991   .     S
N967   Zn986   2.016   .     S
N967   H1018   1.029   .     S
N967   N1026   1.277   .     S
N968   Zn985   2.016   .     S
N972   H609    1.046   1_565 S
N972   H610    1.045   1_565 S
N972   C599    1.443   1_565 S
O973   Zn985   1.974   .     S
O977   Zn986   1.974   .     S
O978   Zn986   1.993   .     S
O979   Zn985   1.993   .     S
O980   Zn985   1.992   .     S
O981   Zn986   1.992   .     S
O982   Zn986   2.019   .     S
O983   Zn985   2.019   .     S
C987   C1004   1.407   .     S
C987   O1031   1.273   .     A
C987   O1036   1.289   .     A
C988   C990    1.396   .     A
C988   N1028   1.439   .     S
C988   C999    1.391   .     A
C989   C1007   1.421   .     S
C989   C1008   1.398   .     A
C989   C991    1.393   .     A
C990   C992    1.392   .     A
C990   C1006   1.419   .     S
C991   O1042   1.382   .     S
C991   C993    1.405   .     A
C992   O1032   1.380   .     S
C992   C994    1.404   .     A
C993   C995    1.422   .     A
C993   C1000   1.418   .     A
C994   C996    1.423   .     A
C994   C1001   1.414   .     A
C995   C997    1.414   .     A
C996   C999    1.417   .     A
C996   C473    1.400   1_556 S
C997   C1008   1.392   .     A
C997   C1003   1.399   .     A
C998   O1035   1.273   .     A
C998   C1005   1.407   .     S
C998   O1037   1.289   .     A
C999   C1002   1.400   .     A
C1000  O1033   1.379   .     S
C1001  O1034   1.383   .     S
C1001  C481    1.395   1_556 S
C1002  H1009   1.084   .     S
C1002  C478    1.384   1_556 S
C1003  H1017   1.083   .     S
C1004  C657    1.358   1_565 S
C1004  N681    1.443   1_565 S
C1006  O1038   1.283   .     A
C1006  O1040   1.284   .     A
C1007  O1041   1.283   .     A
C1007  O1039   1.285   .     A
C1008  N1027   1.439   .     S
H1010  O1032   0.992   .     S
H1011  O1033   0.991   .     S
H1012  O1034   0.992   .     S
H1013  N681    1.046   1_565 S
H1014  N681    1.045   1_565 S
H1019  N910    1.029   1_655 S
H1020  N1027   1.046   .     S
H1021  N1027   1.045   .     S
H1022  N1028   1.046   .     S
H1023  N1028   1.045   .     S
H1024  O1042   0.991   .     S
N1025  Zn1044  2.016   .     S
N1025  H902    1.029   1_655 S
N1025  N910    1.277   1_655 S
N1026  Zn1043  2.016   .     S
N1030  H667    1.046   1_565 S
N1030  H668    1.045   1_565 S
N1030  C657    1.443   1_565 S
O1031  Zn1043  1.974   .     S
O1035  Zn1044  1.974   .     S
O1036  Zn1044  1.993   .     S
O1037  Zn1043  1.993   .     S
O1038  Zn1043  1.992   .     S
O1039  Zn1044  1.992   .     S
O1040  Zn1044  2.019   .     S
O1041  Zn1043  2.019   .     S
