data_str_m3_o10_o18_pcu_sym.129
_audit_creation_date              2020-01-03
_audit_creation_method            'Materials Studio'
_symmetry_space_group_name_H-M    'P1'
_symmetry_Int_Tables_number       1
_symmetry_cell_setting            triclinic
loop_
_symmetry_equiv_pos_as_xyz
  x,y,z
_cell_length_a                    23.6847
_cell_length_b                    25.7088
_cell_length_c                    27.4622
_cell_angle_alpha                 94.4441
_cell_angle_beta                  93.2456
_cell_angle_gamma                 93.2618
loop_
_atom_site_label
_atom_site_type_symbol
_atom_site_fract_x
_atom_site_fract_y
_atom_site_fract_z
_atom_site_U_iso_or_equiv
_atom_site_adp_type
_atom_site_occupancy
C1     C     0.01443   0.26467   0.24872   0.00000  Uiso   1.00
C2     C     0.31216   0.16197   0.15898   0.00000  Uiso   1.00
C3     C     0.03070   0.17225   0.39386   0.00000  Uiso   1.00
C4     C     0.30004   0.15079   0.10680   0.00000  Uiso   1.00
C5     C     0.01137   0.20644   0.47508   0.00000  Uiso   1.00
C6     C     0.30717   0.09457   0.03313   0.00000  Uiso   1.00
C7     C     0.32862   0.19827   0.42542   0.00000  Uiso   1.00
C8     C     0.32908   0.11372   0.07967   0.00000  Uiso   1.00
C9     C     0.07914   0.15072   0.41230   0.00000  Uiso   1.00
C10    C     0.25090   0.16969   0.08705   0.00000  Uiso   1.00
C11    C     0.09610   0.15807   0.46190   0.00000  Uiso   1.00
C12    C     0.31890   0.06866   0.25125   0.00000  Uiso   1.00
C13    C     0.22459   0.14648   0.04349   0.00000  Uiso   1.00
C14    C     0.06266   0.18837   0.49314   0.00000  Uiso   1.00
C15    C     0.25455   0.11004   0.01518   0.00000  Uiso   1.00
C16    C     0.14778   0.13973   0.48018   0.00000  Uiso   1.00
C17    C     0.16923   0.15838   0.02781   0.00000  Uiso   1.00
C18    C     0.13403   0.18700   0.05874   0.00000  Uiso   1.00
C19    C     0.17872   0.10354   0.45246   0.00000  Uiso   1.00
C20    C     0.08146   0.20132   0.04163   0.00000  Uiso   1.00
C21    C     0.23102   0.08872   0.47001   0.00000  Uiso   1.00
C22    C     0.01840   0.31746   0.23956   0.00000  Uiso   1.00
C23    C     0.31492   0.01588   0.26041   0.00000  Uiso   1.00
C24    C     0.02096   0.17025   0.34106   0.00000  Uiso   1.00
Cl25   Cl    0.06052   0.33274   0.19037   0.00000  Uiso   1.00
Cl26   Cl    0.27277   0.00062   0.30958   0.00000  Uiso   1.00
Cl27   Cl    0.16813   0.10331   0.19711   0.00000  Uiso   1.00
Cl28   Cl    0.16519   0.23017   0.30272   0.00000  Uiso   1.00
H29    H     0.05596   0.22363   0.06622   0.00000  Uiso   1.00
H30    H     0.16257   0.08424   0.41781   0.00000  Uiso   1.00
H31    H     0.25311   0.06044   0.44809   0.00000  Uiso   1.00
H32    H     0.23264   0.20117   0.10783   0.00000  Uiso   1.00
H33    H     0.10522   0.13143   0.38649   0.00000  Uiso   1.00
H34    H     0.03398   0.09847   0.09497   0.00000  Uiso   1.00
H35    H     0.29033   0.21452   0.41142   0.00000  Uiso   1.00
H36    H     0.31825   0.22850   0.49900   0.00000  Uiso   1.00
H37    H     0.33007   0.06619   0.01211   0.00000  Uiso   1.00
H38    H     0.14521   0.19764   0.09696   0.00000  Uiso   1.00
N39    N     0.14695   0.15216   0.23739   0.00000  Uiso   1.00
N40    N     0.18638   0.18117   0.26260   0.00000  Uiso   1.00
O41    O     0.29719   0.24631   0.25309   0.00000  Uiso   1.00
O42    O     0.03614   0.08702   0.24690   0.00000  Uiso   1.00
O43    O     0.05822   0.23702   0.24501   0.00000  Uiso   1.00
O44    O     0.27512   0.09632   0.25498   0.00000  Uiso   1.00
O45    O     0.30328   0.17397   0.32247   0.00000  Uiso   1.00
O46    O     0.03005   0.15937   0.17753   0.00000  Uiso   1.00
O47    O     0.06431   0.16467   0.31439   0.00000  Uiso   1.00
O48    O     0.26902   0.16866   0.18561   0.00000  Uiso   1.00
Zn49   Zn    0.27033   0.17287   0.25539   0.00000  Uiso   1.00
Zn50   Zn    0.06300   0.16046   0.24460   0.00000  Uiso   1.00
C51    C     0.34776   0.26467   0.24872   0.00000  Uiso   1.00
C52    C     0.64549   0.16197   0.15898   0.00000  Uiso   1.00
C53    C     0.36403   0.17225   0.39386   0.00000  Uiso   1.00
C54    C     0.63337   0.15079   0.10680   0.00000  Uiso   1.00
C55    C     0.34471   0.20644   0.47508   0.00000  Uiso   1.00
C56    C     0.64051   0.09457   0.03313   0.00000  Uiso   1.00
C57    C     0.66195   0.19827   0.42542   0.00000  Uiso   1.00
C58    C     0.66241   0.11372   0.07967   0.00000  Uiso   1.00
C59    C     0.41248   0.15072   0.41230   0.00000  Uiso   1.00
C60    C     0.58423   0.16969   0.08705   0.00000  Uiso   1.00
C61    C     0.42943   0.15807   0.46190   0.00000  Uiso   1.00
C62    C     0.65223   0.06866   0.25125   0.00000  Uiso   1.00
C63    C     0.55792   0.14648   0.04349   0.00000  Uiso   1.00
C64    C     0.39599   0.18837   0.49314   0.00000  Uiso   1.00
C65    C     0.58788   0.11004   0.01518   0.00000  Uiso   1.00
C66    C     0.48111   0.13973   0.48018   0.00000  Uiso   1.00
C67    C     0.50256   0.15838   0.02781   0.00000  Uiso   1.00
C68    C     0.46737   0.18700   0.05874   0.00000  Uiso   1.00
C69    C     0.51206   0.10354   0.45246   0.00000  Uiso   1.00
C70    C     0.41479   0.20132   0.04163   0.00000  Uiso   1.00
C71    C     0.56435   0.08872   0.47001   0.00000  Uiso   1.00
C72    C     0.35173   0.31746   0.23956   0.00000  Uiso   1.00
C73    C     0.64825   0.01588   0.26041   0.00000  Uiso   1.00
C74    C     0.35429   0.17025   0.34106   0.00000  Uiso   1.00
Cl75   Cl    0.39385   0.33274   0.19037   0.00000  Uiso   1.00
Cl76   Cl    0.60611   0.00062   0.30958   0.00000  Uiso   1.00
Cl77   Cl    0.50146   0.10331   0.19711   0.00000  Uiso   1.00
Cl78   Cl    0.49852   0.23017   0.30272   0.00000  Uiso   1.00
H79    H     0.38929   0.22363   0.06622   0.00000  Uiso   1.00
H80    H     0.49590   0.08424   0.41781   0.00000  Uiso   1.00
H81    H     0.58644   0.06044   0.44809   0.00000  Uiso   1.00
H82    H     0.56597   0.20117   0.10783   0.00000  Uiso   1.00
H83    H     0.43855   0.13143   0.38649   0.00000  Uiso   1.00
H84    H     0.36731   0.09847   0.09497   0.00000  Uiso   1.00
H85    H     0.62367   0.21452   0.41142   0.00000  Uiso   1.00
H86    H     0.65158   0.22850   0.49900   0.00000  Uiso   1.00
H87    H     0.66340   0.06619   0.01211   0.00000  Uiso   1.00
H88    H     0.47854   0.19764   0.09696   0.00000  Uiso   1.00
N89    N     0.48029   0.15216   0.23739   0.00000  Uiso   1.00
N90    N     0.51971   0.18117   0.26260   0.00000  Uiso   1.00
O91    O     0.63052   0.24631   0.25309   0.00000  Uiso   1.00
O92    O     0.36948   0.08702   0.24690   0.00000  Uiso   1.00
O93    O     0.39155   0.23702   0.24501   0.00000  Uiso   1.00
O94    O     0.60845   0.09632   0.25498   0.00000  Uiso   1.00
O95    O     0.63662   0.17397   0.32247   0.00000  Uiso   1.00
O96    O     0.36338   0.15937   0.17753   0.00000  Uiso   1.00
O97    O     0.39764   0.16467   0.31439   0.00000  Uiso   1.00
O98    O     0.60236   0.16866   0.18561   0.00000  Uiso   1.00
Zn99   Zn    0.60366   0.17287   0.25539   0.00000  Uiso   1.00
Zn100  Zn    0.39634   0.16046   0.24460   0.00000  Uiso   1.00
C101   C     0.68110   0.26467   0.24872   0.00000  Uiso   1.00
C102   C     0.97882   0.16197   0.15898   0.00000  Uiso   1.00
C103   C     0.69736   0.17225   0.39386   0.00000  Uiso   1.00
C104   C     0.96671   0.15079   0.10680   0.00000  Uiso   1.00
C105   C     0.67804   0.20644   0.47508   0.00000  Uiso   1.00
C106   C     0.97384   0.09457   0.03313   0.00000  Uiso   1.00
C107   C     0.99528   0.19827   0.42542   0.00000  Uiso   1.00
C108   C     0.99574   0.11372   0.07967   0.00000  Uiso   1.00
C109   C     0.74581   0.15072   0.41230   0.00000  Uiso   1.00
C110   C     0.91756   0.16969   0.08705   0.00000  Uiso   1.00
C111   C     0.76277   0.15807   0.46190   0.00000  Uiso   1.00
C112   C     0.98556   0.06866   0.25125   0.00000  Uiso   1.00
C113   C     0.89126   0.14648   0.04349   0.00000  Uiso   1.00
C114   C     0.72933   0.18837   0.49314   0.00000  Uiso   1.00
C115   C     0.92122   0.11004   0.01518   0.00000  Uiso   1.00
C116   C     0.81445   0.13973   0.48018   0.00000  Uiso   1.00
C117   C     0.83589   0.15838   0.02781   0.00000  Uiso   1.00
C118   C     0.80070   0.18700   0.05874   0.00000  Uiso   1.00
C119   C     0.84539   0.10354   0.45246   0.00000  Uiso   1.00
C120   C     0.74812   0.20132   0.04163   0.00000  Uiso   1.00
C121   C     0.89769   0.08872   0.47001   0.00000  Uiso   1.00
C122   C     0.68506   0.31746   0.23956   0.00000  Uiso   1.00
C123   C     0.98159   0.01588   0.26041   0.00000  Uiso   1.00
C124   C     0.68763   0.17025   0.34106   0.00000  Uiso   1.00
Cl125  Cl    0.72719   0.33274   0.19037   0.00000  Uiso   1.00
Cl126  Cl    0.93944   0.00062   0.30958   0.00000  Uiso   1.00
Cl127  Cl    0.83479   0.10331   0.19711   0.00000  Uiso   1.00
Cl128  Cl    0.83185   0.23017   0.30272   0.00000  Uiso   1.00
H129   H     0.72262   0.22363   0.06622   0.00000  Uiso   1.00
H130   H     0.82924   0.08424   0.41781   0.00000  Uiso   1.00
H131   H     0.91977   0.06044   0.44809   0.00000  Uiso   1.00
H132   H     0.89930   0.20117   0.10783   0.00000  Uiso   1.00
H133   H     0.77188   0.13143   0.38649   0.00000  Uiso   1.00
H134   H     0.70065   0.09847   0.09497   0.00000  Uiso   1.00
H135   H     0.95700   0.21452   0.41142   0.00000  Uiso   1.00
H136   H     0.98492   0.22850   0.49900   0.00000  Uiso   1.00
H137   H     0.99674   0.06619   0.01211   0.00000  Uiso   1.00
H138   H     0.81188   0.19764   0.09696   0.00000  Uiso   1.00
N139   N     0.81362   0.15216   0.23739   0.00000  Uiso   1.00
N140   N     0.85305   0.18117   0.26260   0.00000  Uiso   1.00
O141   O     0.96386   0.24631   0.25309   0.00000  Uiso   1.00
O142   O     0.70281   0.08702   0.24690   0.00000  Uiso   1.00
O143   O     0.72488   0.23702   0.24501   0.00000  Uiso   1.00
O144   O     0.94178   0.09632   0.25498   0.00000  Uiso   1.00
O145   O     0.96995   0.17397   0.32247   0.00000  Uiso   1.00
O146   O     0.69672   0.15937   0.17753   0.00000  Uiso   1.00
O147   O     0.73098   0.16467   0.31439   0.00000  Uiso   1.00
O148   O     0.93569   0.16866   0.18561   0.00000  Uiso   1.00
Zn149  Zn    0.93700   0.17287   0.25539   0.00000  Uiso   1.00
Zn150  Zn    0.72967   0.16046   0.24460   0.00000  Uiso   1.00
C151   C     0.01443   0.59800   0.24872   0.00000  Uiso   1.00
C152   C     0.31216   0.49531   0.15898   0.00000  Uiso   1.00
C153   C     0.03070   0.50559   0.39386   0.00000  Uiso   1.00
C154   C     0.30004   0.48412   0.10680   0.00000  Uiso   1.00
C155   C     0.01137   0.53978   0.47508   0.00000  Uiso   1.00
C156   C     0.30717   0.42790   0.03313   0.00000  Uiso   1.00
C157   C     0.32862   0.53160   0.42542   0.00000  Uiso   1.00
C158   C     0.32908   0.44705   0.07967   0.00000  Uiso   1.00
C159   C     0.07914   0.48405   0.41230   0.00000  Uiso   1.00
C160   C     0.25090   0.50303   0.08705   0.00000  Uiso   1.00
C161   C     0.09610   0.49140   0.46190   0.00000  Uiso   1.00
C162   C     0.31890   0.40200   0.25125   0.00000  Uiso   1.00
C163   C     0.22459   0.47981   0.04349   0.00000  Uiso   1.00
C164   C     0.06266   0.52170   0.49314   0.00000  Uiso   1.00
C165   C     0.25455   0.44337   0.01518   0.00000  Uiso   1.00
C166   C     0.14778   0.47306   0.48018   0.00000  Uiso   1.00
C167   C     0.16923   0.49172   0.02781   0.00000  Uiso   1.00
C168   C     0.13403   0.52033   0.05874   0.00000  Uiso   1.00
C169   C     0.17872   0.43688   0.45246   0.00000  Uiso   1.00
C170   C     0.08146   0.53465   0.04163   0.00000  Uiso   1.00
C171   C     0.23102   0.42205   0.47001   0.00000  Uiso   1.00
C172   C     0.01840   0.65079   0.23956   0.00000  Uiso   1.00
C173   C     0.31492   0.34921   0.26041   0.00000  Uiso   1.00
C174   C     0.02096   0.50359   0.34106   0.00000  Uiso   1.00
Cl175  Cl    0.06052   0.66607   0.19037   0.00000  Uiso   1.00
Cl176  Cl    0.27277   0.33395   0.30958   0.00000  Uiso   1.00
Cl177  Cl    0.16813   0.43664   0.19711   0.00000  Uiso   1.00
Cl178  Cl    0.16519   0.56350   0.30272   0.00000  Uiso   1.00
H179   H     0.05596   0.55697   0.06622   0.00000  Uiso   1.00
H180   H     0.16257   0.41758   0.41781   0.00000  Uiso   1.00
H181   H     0.25311   0.39378   0.44809   0.00000  Uiso   1.00
H182   H     0.23264   0.53451   0.10783   0.00000  Uiso   1.00
H183   H     0.10522   0.46476   0.38649   0.00000  Uiso   1.00
H184   H     0.03398   0.43180   0.09497   0.00000  Uiso   1.00
H185   H     0.29033   0.54786   0.41142   0.00000  Uiso   1.00
H186   H     0.31825   0.56183   0.49900   0.00000  Uiso   1.00
H187   H     0.33007   0.39952   0.01211   0.00000  Uiso   1.00
H188   H     0.14521   0.53097   0.09696   0.00000  Uiso   1.00
N189   N     0.14695   0.48550   0.23739   0.00000  Uiso   1.00
N190   N     0.18638   0.51450   0.26260   0.00000  Uiso   1.00
O191   O     0.29719   0.57964   0.25309   0.00000  Uiso   1.00
O192   O     0.03614   0.42036   0.24690   0.00000  Uiso   1.00
O193   O     0.05822   0.57035   0.24501   0.00000  Uiso   1.00
O194   O     0.27512   0.42965   0.25498   0.00000  Uiso   1.00
O195   O     0.30328   0.50730   0.32247   0.00000  Uiso   1.00
O196   O     0.03005   0.49270   0.17753   0.00000  Uiso   1.00
O197   O     0.06431   0.49801   0.31439   0.00000  Uiso   1.00
O198   O     0.26902   0.50199   0.18561   0.00000  Uiso   1.00
Zn199  Zn    0.27033   0.50621   0.25539   0.00000  Uiso   1.00
Zn200  Zn    0.06300   0.49379   0.24460   0.00000  Uiso   1.00
C201   C     0.34776   0.59800   0.24872   0.00000  Uiso   1.00
C202   C     0.64549   0.49531   0.15898   0.00000  Uiso   1.00
C203   C     0.36403   0.50559   0.39386   0.00000  Uiso   1.00
C204   C     0.63337   0.48412   0.10680   0.00000  Uiso   1.00
C205   C     0.34471   0.53978   0.47508   0.00000  Uiso   1.00
C206   C     0.64051   0.42790   0.03313   0.00000  Uiso   1.00
C207   C     0.66195   0.53160   0.42542   0.00000  Uiso   1.00
C208   C     0.66241   0.44705   0.07967   0.00000  Uiso   1.00
C209   C     0.41248   0.48405   0.41230   0.00000  Uiso   1.00
C210   C     0.58423   0.50303   0.08705   0.00000  Uiso   1.00
C211   C     0.42943   0.49140   0.46190   0.00000  Uiso   1.00
C212   C     0.65223   0.40200   0.25125   0.00000  Uiso   1.00
C213   C     0.55792   0.47981   0.04349   0.00000  Uiso   1.00
C214   C     0.39599   0.52170   0.49314   0.00000  Uiso   1.00
C215   C     0.58788   0.44337   0.01518   0.00000  Uiso   1.00
C216   C     0.48111   0.47306   0.48018   0.00000  Uiso   1.00
C217   C     0.50256   0.49172   0.02781   0.00000  Uiso   1.00
C218   C     0.46737   0.52033   0.05874   0.00000  Uiso   1.00
C219   C     0.51206   0.43688   0.45246   0.00000  Uiso   1.00
C220   C     0.41479   0.53465   0.04163   0.00000  Uiso   1.00
C221   C     0.56435   0.42205   0.47001   0.00000  Uiso   1.00
C222   C     0.35173   0.65079   0.23956   0.00000  Uiso   1.00
C223   C     0.64825   0.34921   0.26041   0.00000  Uiso   1.00
C224   C     0.35429   0.50359   0.34106   0.00000  Uiso   1.00
Cl225  Cl    0.39385   0.66607   0.19037   0.00000  Uiso   1.00
Cl226  Cl    0.60611   0.33395   0.30958   0.00000  Uiso   1.00
Cl227  Cl    0.50146   0.43664   0.19711   0.00000  Uiso   1.00
Cl228  Cl    0.49852   0.56350   0.30272   0.00000  Uiso   1.00
H229   H     0.38929   0.55697   0.06622   0.00000  Uiso   1.00
H230   H     0.49590   0.41758   0.41781   0.00000  Uiso   1.00
H231   H     0.58644   0.39378   0.44809   0.00000  Uiso   1.00
H232   H     0.56597   0.53451   0.10783   0.00000  Uiso   1.00
H233   H     0.43855   0.46476   0.38649   0.00000  Uiso   1.00
H234   H     0.36731   0.43180   0.09497   0.00000  Uiso   1.00
H235   H     0.62367   0.54786   0.41142   0.00000  Uiso   1.00
H236   H     0.65158   0.56183   0.49900   0.00000  Uiso   1.00
H237   H     0.66340   0.39952   0.01211   0.00000  Uiso   1.00
H238   H     0.47854   0.53097   0.09696   0.00000  Uiso   1.00
N239   N     0.48029   0.48550   0.23739   0.00000  Uiso   1.00
N240   N     0.51971   0.51450   0.26260   0.00000  Uiso   1.00
O241   O     0.63052   0.57964   0.25309   0.00000  Uiso   1.00
O242   O     0.36948   0.42036   0.24690   0.00000  Uiso   1.00
O243   O     0.39155   0.57035   0.24501   0.00000  Uiso   1.00
O244   O     0.60845   0.42965   0.25498   0.00000  Uiso   1.00
O245   O     0.63662   0.50730   0.32247   0.00000  Uiso   1.00
O246   O     0.36338   0.49270   0.17753   0.00000  Uiso   1.00
O247   O     0.39764   0.49801   0.31439   0.00000  Uiso   1.00
O248   O     0.60236   0.50199   0.18561   0.00000  Uiso   1.00
Zn249  Zn    0.60366   0.50621   0.25539   0.00000  Uiso   1.00
Zn250  Zn    0.39634   0.49379   0.24460   0.00000  Uiso   1.00
C251   C     0.68110   0.59800   0.24872   0.00000  Uiso   1.00
C252   C     0.97882   0.49531   0.15898   0.00000  Uiso   1.00
C253   C     0.69736   0.50559   0.39386   0.00000  Uiso   1.00
C254   C     0.96671   0.48412   0.10680   0.00000  Uiso   1.00
C255   C     0.67804   0.53978   0.47508   0.00000  Uiso   1.00
C256   C     0.97384   0.42790   0.03313   0.00000  Uiso   1.00
C257   C     0.99528   0.53160   0.42542   0.00000  Uiso   1.00
C258   C     0.99574   0.44705   0.07967   0.00000  Uiso   1.00
C259   C     0.74581   0.48405   0.41230   0.00000  Uiso   1.00
C260   C     0.91756   0.50303   0.08705   0.00000  Uiso   1.00
C261   C     0.76277   0.49140   0.46190   0.00000  Uiso   1.00
C262   C     0.98556   0.40200   0.25125   0.00000  Uiso   1.00
C263   C     0.89126   0.47981   0.04349   0.00000  Uiso   1.00
C264   C     0.72933   0.52170   0.49314   0.00000  Uiso   1.00
C265   C     0.92122   0.44337   0.01518   0.00000  Uiso   1.00
C266   C     0.81445   0.47306   0.48018   0.00000  Uiso   1.00
C267   C     0.83589   0.49172   0.02781   0.00000  Uiso   1.00
C268   C     0.80070   0.52033   0.05874   0.00000  Uiso   1.00
C269   C     0.84539   0.43688   0.45246   0.00000  Uiso   1.00
C270   C     0.74812   0.53465   0.04163   0.00000  Uiso   1.00
C271   C     0.89769   0.42205   0.47001   0.00000  Uiso   1.00
C272   C     0.68506   0.65079   0.23956   0.00000  Uiso   1.00
C273   C     0.98159   0.34921   0.26041   0.00000  Uiso   1.00
C274   C     0.68763   0.50359   0.34106   0.00000  Uiso   1.00
Cl275  Cl    0.72719   0.66607   0.19037   0.00000  Uiso   1.00
Cl276  Cl    0.93944   0.33395   0.30958   0.00000  Uiso   1.00
Cl277  Cl    0.83479   0.43664   0.19711   0.00000  Uiso   1.00
Cl278  Cl    0.83185   0.56350   0.30272   0.00000  Uiso   1.00
H279   H     0.72262   0.55697   0.06622   0.00000  Uiso   1.00
H280   H     0.82924   0.41758   0.41781   0.00000  Uiso   1.00
H281   H     0.91977   0.39378   0.44809   0.00000  Uiso   1.00
H282   H     0.89930   0.53451   0.10783   0.00000  Uiso   1.00
H283   H     0.77188   0.46476   0.38649   0.00000  Uiso   1.00
H284   H     0.70065   0.43180   0.09497   0.00000  Uiso   1.00
H285   H     0.95700   0.54786   0.41142   0.00000  Uiso   1.00
H286   H     0.98492   0.56183   0.49900   0.00000  Uiso   1.00
H287   H     0.99674   0.39952   0.01211   0.00000  Uiso   1.00
H288   H     0.81188   0.53097   0.09696   0.00000  Uiso   1.00
N289   N     0.81362   0.48550   0.23739   0.00000  Uiso   1.00
N290   N     0.85305   0.51450   0.26260   0.00000  Uiso   1.00
O291   O     0.96386   0.57964   0.25309   0.00000  Uiso   1.00
O292   O     0.70281   0.42036   0.24690   0.00000  Uiso   1.00
O293   O     0.72488   0.57035   0.24501   0.00000  Uiso   1.00
O294   O     0.94178   0.42965   0.25498   0.00000  Uiso   1.00
O295   O     0.96995   0.50730   0.32247   0.00000  Uiso   1.00
O296   O     0.69672   0.49270   0.17753   0.00000  Uiso   1.00
O297   O     0.73098   0.49801   0.31439   0.00000  Uiso   1.00
O298   O     0.93569   0.50199   0.18561   0.00000  Uiso   1.00
Zn299  Zn    0.93700   0.50621   0.25539   0.00000  Uiso   1.00
Zn300  Zn    0.72967   0.49379   0.24460   0.00000  Uiso   1.00
C301   C     0.01443   0.93134   0.24872   0.00000  Uiso   1.00
C302   C     0.31216   0.82864   0.15898   0.00000  Uiso   1.00
C303   C     0.03070   0.83892   0.39386   0.00000  Uiso   1.00
C304   C     0.30004   0.81745   0.10680   0.00000  Uiso   1.00
C305   C     0.01137   0.87311   0.47508   0.00000  Uiso   1.00
C306   C     0.30717   0.76123   0.03313   0.00000  Uiso   1.00
C307   C     0.32862   0.86493   0.42542   0.00000  Uiso   1.00
C308   C     0.32908   0.78039   0.07967   0.00000  Uiso   1.00
C309   C     0.07914   0.81739   0.41230   0.00000  Uiso   1.00
C310   C     0.25090   0.83636   0.08705   0.00000  Uiso   1.00
C311   C     0.09610   0.82474   0.46190   0.00000  Uiso   1.00
C312   C     0.31890   0.73533   0.25125   0.00000  Uiso   1.00
C313   C     0.22459   0.81314   0.04349   0.00000  Uiso   1.00
C314   C     0.06266   0.85504   0.49314   0.00000  Uiso   1.00
C315   C     0.25455   0.77671   0.01518   0.00000  Uiso   1.00
C316   C     0.14778   0.80640   0.48018   0.00000  Uiso   1.00
C317   C     0.16923   0.82505   0.02781   0.00000  Uiso   1.00
C318   C     0.13403   0.85367   0.05874   0.00000  Uiso   1.00
C319   C     0.17872   0.77021   0.45246   0.00000  Uiso   1.00
C320   C     0.08146   0.86798   0.04163   0.00000  Uiso   1.00
C321   C     0.23102   0.75539   0.47001   0.00000  Uiso   1.00
C322   C     0.01840   0.98412   0.23956   0.00000  Uiso   1.00
C323   C     0.31492   0.68255   0.26041   0.00000  Uiso   1.00
C324   C     0.02096   0.83692   0.34106   0.00000  Uiso   1.00
Cl325  Cl    0.06052   0.99941   0.19037   0.00000  Uiso   1.00
Cl326  Cl    0.27277   0.66728   0.30958   0.00000  Uiso   1.00
Cl327  Cl    0.16813   0.76997   0.19711   0.00000  Uiso   1.00
Cl328  Cl    0.16519   0.89684   0.30272   0.00000  Uiso   1.00
H329   H     0.05596   0.89030   0.06622   0.00000  Uiso   1.00
H330   H     0.16257   0.75091   0.41781   0.00000  Uiso   1.00
H331   H     0.25311   0.72711   0.44809   0.00000  Uiso   1.00
H332   H     0.23264   0.86784   0.10783   0.00000  Uiso   1.00
H333   H     0.10522   0.79809   0.38649   0.00000  Uiso   1.00
H334   H     0.03398   0.76514   0.09497   0.00000  Uiso   1.00
H335   H     0.29033   0.88119   0.41142   0.00000  Uiso   1.00
H336   H     0.31825   0.89517   0.49900   0.00000  Uiso   1.00
H337   H     0.33007   0.73286   0.01211   0.00000  Uiso   1.00
H338   H     0.14521   0.86431   0.09696   0.00000  Uiso   1.00
N339   N     0.14695   0.81883   0.23739   0.00000  Uiso   1.00
N340   N     0.18638   0.84784   0.26260   0.00000  Uiso   1.00
O341   O     0.29719   0.91298   0.25309   0.00000  Uiso   1.00
O342   O     0.03614   0.75369   0.24690   0.00000  Uiso   1.00
O343   O     0.05822   0.90368   0.24501   0.00000  Uiso   1.00
O344   O     0.27512   0.76298   0.25498   0.00000  Uiso   1.00
O345   O     0.30328   0.84063   0.32247   0.00000  Uiso   1.00
O346   O     0.03005   0.82603   0.17753   0.00000  Uiso   1.00
O347   O     0.06431   0.83134   0.31439   0.00000  Uiso   1.00
O348   O     0.26902   0.83533   0.18561   0.00000  Uiso   1.00
Zn349  Zn    0.27033   0.83954   0.25539   0.00000  Uiso   1.00
Zn350  Zn    0.06300   0.82713   0.24460   0.00000  Uiso   1.00
C351   C     0.34776   0.93134   0.24872   0.00000  Uiso   1.00
C352   C     0.64549   0.82864   0.15898   0.00000  Uiso   1.00
C353   C     0.36403   0.83892   0.39386   0.00000  Uiso   1.00
C354   C     0.63337   0.81745   0.10680   0.00000  Uiso   1.00
C355   C     0.34471   0.87311   0.47508   0.00000  Uiso   1.00
C356   C     0.64051   0.76123   0.03313   0.00000  Uiso   1.00
C357   C     0.66195   0.86493   0.42542   0.00000  Uiso   1.00
C358   C     0.66241   0.78039   0.07967   0.00000  Uiso   1.00
C359   C     0.41248   0.81739   0.41230   0.00000  Uiso   1.00
C360   C     0.58423   0.83636   0.08705   0.00000  Uiso   1.00
C361   C     0.42943   0.82474   0.46190   0.00000  Uiso   1.00
C362   C     0.65223   0.73533   0.25125   0.00000  Uiso   1.00
C363   C     0.55792   0.81314   0.04349   0.00000  Uiso   1.00
C364   C     0.39599   0.85504   0.49314   0.00000  Uiso   1.00
C365   C     0.58788   0.77671   0.01518   0.00000  Uiso   1.00
C366   C     0.48111   0.80640   0.48018   0.00000  Uiso   1.00
C367   C     0.50256   0.82505   0.02781   0.00000  Uiso   1.00
C368   C     0.46737   0.85367   0.05874   0.00000  Uiso   1.00
C369   C     0.51206   0.77021   0.45246   0.00000  Uiso   1.00
C370   C     0.41479   0.86798   0.04163   0.00000  Uiso   1.00
C371   C     0.56435   0.75539   0.47001   0.00000  Uiso   1.00
C372   C     0.35173   0.98412   0.23956   0.00000  Uiso   1.00
C373   C     0.64825   0.68255   0.26041   0.00000  Uiso   1.00
C374   C     0.35429   0.83692   0.34106   0.00000  Uiso   1.00
Cl375  Cl    0.39385   0.99941   0.19037   0.00000  Uiso   1.00
Cl376  Cl    0.60611   0.66728   0.30958   0.00000  Uiso   1.00
Cl377  Cl    0.50146   0.76997   0.19711   0.00000  Uiso   1.00
Cl378  Cl    0.49852   0.89684   0.30272   0.00000  Uiso   1.00
H379   H     0.38929   0.89030   0.06622   0.00000  Uiso   1.00
H380   H     0.49590   0.75091   0.41781   0.00000  Uiso   1.00
H381   H     0.58644   0.72711   0.44809   0.00000  Uiso   1.00
H382   H     0.56597   0.86784   0.10783   0.00000  Uiso   1.00
H383   H     0.43855   0.79809   0.38649   0.00000  Uiso   1.00
H384   H     0.36731   0.76514   0.09497   0.00000  Uiso   1.00
H385   H     0.62367   0.88119   0.41142   0.00000  Uiso   1.00
H386   H     0.65158   0.89517   0.49900   0.00000  Uiso   1.00
H387   H     0.66340   0.73286   0.01211   0.00000  Uiso   1.00
H388   H     0.47854   0.86431   0.09696   0.00000  Uiso   1.00
N389   N     0.48029   0.81883   0.23739   0.00000  Uiso   1.00
N390   N     0.51971   0.84784   0.26260   0.00000  Uiso   1.00
O391   O     0.63052   0.91298   0.25309   0.00000  Uiso   1.00
O392   O     0.36948   0.75369   0.24690   0.00000  Uiso   1.00
O393   O     0.39155   0.90368   0.24501   0.00000  Uiso   1.00
O394   O     0.60845   0.76298   0.25498   0.00000  Uiso   1.00
O395   O     0.63662   0.84063   0.32247   0.00000  Uiso   1.00
O396   O     0.36338   0.82603   0.17753   0.00000  Uiso   1.00
O397   O     0.39764   0.83134   0.31439   0.00000  Uiso   1.00
O398   O     0.60236   0.83533   0.18561   0.00000  Uiso   1.00
Zn399  Zn    0.60366   0.83954   0.25539   0.00000  Uiso   1.00
Zn400  Zn    0.39634   0.82713   0.24460   0.00000  Uiso   1.00
C401   C     0.68110   0.93134   0.24872   0.00000  Uiso   1.00
C402   C     0.97882   0.82864   0.15898   0.00000  Uiso   1.00
C403   C     0.69736   0.83892   0.39386   0.00000  Uiso   1.00
C404   C     0.96671   0.81745   0.10680   0.00000  Uiso   1.00
C405   C     0.67804   0.87311   0.47508   0.00000  Uiso   1.00
C406   C     0.97384   0.76123   0.03313   0.00000  Uiso   1.00
C407   C     0.99528   0.86493   0.42542   0.00000  Uiso   1.00
C408   C     0.99574   0.78039   0.07967   0.00000  Uiso   1.00
C409   C     0.74581   0.81739   0.41230   0.00000  Uiso   1.00
C410   C     0.91756   0.83636   0.08705   0.00000  Uiso   1.00
C411   C     0.76277   0.82474   0.46190   0.00000  Uiso   1.00
C412   C     0.98556   0.73533   0.25125   0.00000  Uiso   1.00
C413   C     0.89126   0.81314   0.04349   0.00000  Uiso   1.00
C414   C     0.72933   0.85504   0.49314   0.00000  Uiso   1.00
C415   C     0.92122   0.77671   0.01518   0.00000  Uiso   1.00
C416   C     0.81445   0.80640   0.48018   0.00000  Uiso   1.00
C417   C     0.83589   0.82505   0.02781   0.00000  Uiso   1.00
C418   C     0.80070   0.85367   0.05874   0.00000  Uiso   1.00
C419   C     0.84539   0.77021   0.45246   0.00000  Uiso   1.00
C420   C     0.74812   0.86798   0.04163   0.00000  Uiso   1.00
C421   C     0.89769   0.75539   0.47001   0.00000  Uiso   1.00
C422   C     0.68506   0.98412   0.23956   0.00000  Uiso   1.00
C423   C     0.98159   0.68255   0.26041   0.00000  Uiso   1.00
C424   C     0.68763   0.83692   0.34106   0.00000  Uiso   1.00
Cl425  Cl    0.72719   0.99941   0.19037   0.00000  Uiso   1.00
Cl426  Cl    0.93944   0.66728   0.30958   0.00000  Uiso   1.00
Cl427  Cl    0.83479   0.76997   0.19711   0.00000  Uiso   1.00
Cl428  Cl    0.83185   0.89684   0.30272   0.00000  Uiso   1.00
H429   H     0.72262   0.89030   0.06622   0.00000  Uiso   1.00
H430   H     0.82924   0.75091   0.41781   0.00000  Uiso   1.00
H431   H     0.91977   0.72711   0.44809   0.00000  Uiso   1.00
H432   H     0.89930   0.86784   0.10783   0.00000  Uiso   1.00
H433   H     0.77188   0.79809   0.38649   0.00000  Uiso   1.00
H434   H     0.70065   0.76514   0.09497   0.00000  Uiso   1.00
H435   H     0.95700   0.88119   0.41142   0.00000  Uiso   1.00
H436   H     0.98492   0.89517   0.49900   0.00000  Uiso   1.00
H437   H     0.99674   0.73286   0.01211   0.00000  Uiso   1.00
H438   H     0.81188   0.86431   0.09696   0.00000  Uiso   1.00
N439   N     0.81362   0.81883   0.23739   0.00000  Uiso   1.00
N440   N     0.85305   0.84784   0.26260   0.00000  Uiso   1.00
O441   O     0.96386   0.91298   0.25309   0.00000  Uiso   1.00
O442   O     0.70281   0.75369   0.24690   0.00000  Uiso   1.00
O443   O     0.72488   0.90368   0.24501   0.00000  Uiso   1.00
O444   O     0.94178   0.76298   0.25498   0.00000  Uiso   1.00
O445   O     0.96995   0.84063   0.32247   0.00000  Uiso   1.00
O446   O     0.69672   0.82603   0.17753   0.00000  Uiso   1.00
O447   O     0.73098   0.83134   0.31439   0.00000  Uiso   1.00
O448   O     0.93569   0.83533   0.18561   0.00000  Uiso   1.00
Zn449  Zn    0.93700   0.83954   0.25539   0.00000  Uiso   1.00
Zn450  Zn    0.72967   0.82713   0.24460   0.00000  Uiso   1.00
C451   C     0.01443   0.26467   0.74872   0.00000  Uiso   1.00
C452   C     0.31216   0.16197   0.65898   0.00000  Uiso   1.00
C453   C     0.03070   0.17225   0.89386   0.00000  Uiso   1.00
C454   C     0.30004   0.15079   0.60680   0.00000  Uiso   1.00
C455   C     0.01137   0.20644   0.97508   0.00000  Uiso   1.00
C456   C     0.30717   0.09457   0.53313   0.00000  Uiso   1.00
C457   C     0.32862   0.19827   0.92542   0.00000  Uiso   1.00
C458   C     0.32908   0.11372   0.57967   0.00000  Uiso   1.00
C459   C     0.07914   0.15072   0.91230   0.00000  Uiso   1.00
C460   C     0.25090   0.16969   0.58705   0.00000  Uiso   1.00
C461   C     0.09610   0.15807   0.96190   0.00000  Uiso   1.00
C462   C     0.31890   0.06866   0.75125   0.00000  Uiso   1.00
C463   C     0.22459   0.14648   0.54349   0.00000  Uiso   1.00
C464   C     0.06266   0.18837   0.99314   0.00000  Uiso   1.00
C465   C     0.25455   0.11004   0.51518   0.00000  Uiso   1.00
C466   C     0.14778   0.13973   0.98018   0.00000  Uiso   1.00
C467   C     0.16923   0.15838   0.52781   0.00000  Uiso   1.00
C468   C     0.13403   0.18700   0.55874   0.00000  Uiso   1.00
C469   C     0.17872   0.10354   0.95246   0.00000  Uiso   1.00
C470   C     0.08146   0.20132   0.54163   0.00000  Uiso   1.00
C471   C     0.23102   0.08872   0.97001   0.00000  Uiso   1.00
C472   C     0.01840   0.31746   0.73956   0.00000  Uiso   1.00
C473   C     0.31492   0.01588   0.76041   0.00000  Uiso   1.00
C474   C     0.02096   0.17025   0.84106   0.00000  Uiso   1.00
Cl475  Cl    0.06052   0.33274   0.69037   0.00000  Uiso   1.00
Cl476  Cl    0.27277   0.00062   0.80958   0.00000  Uiso   1.00
Cl477  Cl    0.16813   0.10331   0.69711   0.00000  Uiso   1.00
Cl478  Cl    0.16519   0.23017   0.80272   0.00000  Uiso   1.00
H479   H     0.05596   0.22363   0.56622   0.00000  Uiso   1.00
H480   H     0.16257   0.08424   0.91781   0.00000  Uiso   1.00
H481   H     0.25311   0.06044   0.94809   0.00000  Uiso   1.00
H482   H     0.23264   0.20117   0.60783   0.00000  Uiso   1.00
H483   H     0.10522   0.13143   0.88649   0.00000  Uiso   1.00
H484   H     0.03398   0.09847   0.59497   0.00000  Uiso   1.00
H485   H     0.29033   0.21452   0.91142   0.00000  Uiso   1.00
H486   H     0.31825   0.22850   0.99900   0.00000  Uiso   1.00
H487   H     0.33007   0.06619   0.51211   0.00000  Uiso   1.00
H488   H     0.14521   0.19764   0.59696   0.00000  Uiso   1.00
N489   N     0.14695   0.15216   0.73739   0.00000  Uiso   1.00
N490   N     0.18638   0.18117   0.76260   0.00000  Uiso   1.00
O491   O     0.29719   0.24631   0.75309   0.00000  Uiso   1.00
O492   O     0.03614   0.08702   0.74690   0.00000  Uiso   1.00
O493   O     0.05822   0.23702   0.74501   0.00000  Uiso   1.00
O494   O     0.27512   0.09632   0.75498   0.00000  Uiso   1.00
O495   O     0.30328   0.17397   0.82247   0.00000  Uiso   1.00
O496   O     0.03005   0.15937   0.67753   0.00000  Uiso   1.00
O497   O     0.06431   0.16467   0.81439   0.00000  Uiso   1.00
O498   O     0.26902   0.16866   0.68561   0.00000  Uiso   1.00
Zn499  Zn    0.27033   0.17287   0.75539   0.00000  Uiso   1.00
Zn500  Zn    0.06300   0.16046   0.74460   0.00000  Uiso   1.00
C501   C     0.34776   0.26467   0.74872   0.00000  Uiso   1.00
C502   C     0.64549   0.16197   0.65898   0.00000  Uiso   1.00
C503   C     0.36403   0.17225   0.89386   0.00000  Uiso   1.00
C504   C     0.63337   0.15079   0.60680   0.00000  Uiso   1.00
C505   C     0.34471   0.20644   0.97508   0.00000  Uiso   1.00
C506   C     0.64051   0.09457   0.53313   0.00000  Uiso   1.00
C507   C     0.66195   0.19827   0.92542   0.00000  Uiso   1.00
C508   C     0.66241   0.11372   0.57967   0.00000  Uiso   1.00
C509   C     0.41248   0.15072   0.91230   0.00000  Uiso   1.00
C510   C     0.58423   0.16969   0.58705   0.00000  Uiso   1.00
C511   C     0.42943   0.15807   0.96190   0.00000  Uiso   1.00
C512   C     0.65223   0.06866   0.75125   0.00000  Uiso   1.00
C513   C     0.55792   0.14648   0.54349   0.00000  Uiso   1.00
C514   C     0.39599   0.18837   0.99314   0.00000  Uiso   1.00
C515   C     0.58788   0.11004   0.51518   0.00000  Uiso   1.00
C516   C     0.48111   0.13973   0.98018   0.00000  Uiso   1.00
C517   C     0.50256   0.15838   0.52781   0.00000  Uiso   1.00
C518   C     0.46737   0.18700   0.55874   0.00000  Uiso   1.00
C519   C     0.51206   0.10354   0.95246   0.00000  Uiso   1.00
C520   C     0.41479   0.20132   0.54163   0.00000  Uiso   1.00
C521   C     0.56435   0.08872   0.97001   0.00000  Uiso   1.00
C522   C     0.35173   0.31746   0.73956   0.00000  Uiso   1.00
C523   C     0.64825   0.01588   0.76041   0.00000  Uiso   1.00
C524   C     0.35429   0.17025   0.84106   0.00000  Uiso   1.00
Cl525  Cl    0.39385   0.33274   0.69037   0.00000  Uiso   1.00
Cl526  Cl    0.60611   0.00062   0.80958   0.00000  Uiso   1.00
Cl527  Cl    0.50146   0.10331   0.69711   0.00000  Uiso   1.00
Cl528  Cl    0.49852   0.23017   0.80272   0.00000  Uiso   1.00
H529   H     0.38929   0.22363   0.56622   0.00000  Uiso   1.00
H530   H     0.49590   0.08424   0.91781   0.00000  Uiso   1.00
H531   H     0.58644   0.06044   0.94809   0.00000  Uiso   1.00
H532   H     0.56597   0.20117   0.60783   0.00000  Uiso   1.00
H533   H     0.43855   0.13143   0.88649   0.00000  Uiso   1.00
H534   H     0.36731   0.09847   0.59497   0.00000  Uiso   1.00
H535   H     0.62367   0.21452   0.91142   0.00000  Uiso   1.00
H536   H     0.65158   0.22850   0.99900   0.00000  Uiso   1.00
H537   H     0.66340   0.06619   0.51211   0.00000  Uiso   1.00
H538   H     0.47854   0.19764   0.59696   0.00000  Uiso   1.00
N539   N     0.48029   0.15216   0.73739   0.00000  Uiso   1.00
N540   N     0.51971   0.18117   0.76260   0.00000  Uiso   1.00
O541   O     0.63052   0.24631   0.75309   0.00000  Uiso   1.00
O542   O     0.36948   0.08702   0.74690   0.00000  Uiso   1.00
O543   O     0.39155   0.23702   0.74501   0.00000  Uiso   1.00
O544   O     0.60845   0.09632   0.75498   0.00000  Uiso   1.00
O545   O     0.63662   0.17397   0.82247   0.00000  Uiso   1.00
O546   O     0.36338   0.15937   0.67753   0.00000  Uiso   1.00
O547   O     0.39764   0.16467   0.81439   0.00000  Uiso   1.00
O548   O     0.60236   0.16866   0.68561   0.00000  Uiso   1.00
Zn549  Zn    0.60366   0.17287   0.75539   0.00000  Uiso   1.00
Zn550  Zn    0.39634   0.16046   0.74460   0.00000  Uiso   1.00
C551   C     0.68110   0.26467   0.74872   0.00000  Uiso   1.00
C552   C     0.97882   0.16197   0.65898   0.00000  Uiso   1.00
C553   C     0.69736   0.17225   0.89386   0.00000  Uiso   1.00
C554   C     0.96671   0.15079   0.60680   0.00000  Uiso   1.00
C555   C     0.67804   0.20644   0.97508   0.00000  Uiso   1.00
C556   C     0.97384   0.09457   0.53313   0.00000  Uiso   1.00
C557   C     0.99528   0.19827   0.92542   0.00000  Uiso   1.00
C558   C     0.99574   0.11372   0.57967   0.00000  Uiso   1.00
C559   C     0.74581   0.15072   0.91230   0.00000  Uiso   1.00
C560   C     0.91756   0.16969   0.58705   0.00000  Uiso   1.00
C561   C     0.76277   0.15807   0.96190   0.00000  Uiso   1.00
C562   C     0.98556   0.06866   0.75125   0.00000  Uiso   1.00
C563   C     0.89126   0.14648   0.54349   0.00000  Uiso   1.00
C564   C     0.72933   0.18837   0.99314   0.00000  Uiso   1.00
C565   C     0.92122   0.11004   0.51518   0.00000  Uiso   1.00
C566   C     0.81445   0.13973   0.98018   0.00000  Uiso   1.00
C567   C     0.83589   0.15838   0.52781   0.00000  Uiso   1.00
C568   C     0.80070   0.18700   0.55874   0.00000  Uiso   1.00
C569   C     0.84539   0.10354   0.95246   0.00000  Uiso   1.00
C570   C     0.74812   0.20132   0.54163   0.00000  Uiso   1.00
C571   C     0.89769   0.08872   0.97001   0.00000  Uiso   1.00
C572   C     0.68506   0.31746   0.73956   0.00000  Uiso   1.00
C573   C     0.98159   0.01588   0.76041   0.00000  Uiso   1.00
C574   C     0.68763   0.17025   0.84106   0.00000  Uiso   1.00
Cl575  Cl    0.72719   0.33274   0.69037   0.00000  Uiso   1.00
Cl576  Cl    0.93944   0.00062   0.80958   0.00000  Uiso   1.00
Cl577  Cl    0.83479   0.10331   0.69711   0.00000  Uiso   1.00
Cl578  Cl    0.83185   0.23017   0.80272   0.00000  Uiso   1.00
H579   H     0.72262   0.22363   0.56622   0.00000  Uiso   1.00
H580   H     0.82924   0.08424   0.91781   0.00000  Uiso   1.00
H581   H     0.91977   0.06044   0.94809   0.00000  Uiso   1.00
H582   H     0.89930   0.20117   0.60783   0.00000  Uiso   1.00
H583   H     0.77188   0.13143   0.88649   0.00000  Uiso   1.00
H584   H     0.70065   0.09847   0.59497   0.00000  Uiso   1.00
H585   H     0.95700   0.21452   0.91142   0.00000  Uiso   1.00
H586   H     0.98492   0.22850   0.99900   0.00000  Uiso   1.00
H587   H     0.99674   0.06619   0.51211   0.00000  Uiso   1.00
H588   H     0.81188   0.19764   0.59696   0.00000  Uiso   1.00
N589   N     0.81362   0.15216   0.73739   0.00000  Uiso   1.00
N590   N     0.85305   0.18117   0.76260   0.00000  Uiso   1.00
O591   O     0.96386   0.24631   0.75309   0.00000  Uiso   1.00
O592   O     0.70281   0.08702   0.74690   0.00000  Uiso   1.00
O593   O     0.72488   0.23702   0.74501   0.00000  Uiso   1.00
O594   O     0.94178   0.09632   0.75498   0.00000  Uiso   1.00
O595   O     0.96995   0.17397   0.82247   0.00000  Uiso   1.00
O596   O     0.69672   0.15937   0.67753   0.00000  Uiso   1.00
O597   O     0.73098   0.16467   0.81439   0.00000  Uiso   1.00
O598   O     0.93569   0.16866   0.68561   0.00000  Uiso   1.00
Zn599  Zn    0.93700   0.17287   0.75539   0.00000  Uiso   1.00
Zn600  Zn    0.72967   0.16046   0.74460   0.00000  Uiso   1.00
C601   C     0.01443   0.59800   0.74872   0.00000  Uiso   1.00
C602   C     0.31216   0.49531   0.65898   0.00000  Uiso   1.00
C603   C     0.03070   0.50559   0.89386   0.00000  Uiso   1.00
C604   C     0.30004   0.48412   0.60680   0.00000  Uiso   1.00
C605   C     0.01137   0.53978   0.97508   0.00000  Uiso   1.00
C606   C     0.30717   0.42790   0.53313   0.00000  Uiso   1.00
C607   C     0.32862   0.53160   0.92542   0.00000  Uiso   1.00
C608   C     0.32908   0.44705   0.57967   0.00000  Uiso   1.00
C609   C     0.07914   0.48405   0.91230   0.00000  Uiso   1.00
C610   C     0.25090   0.50303   0.58705   0.00000  Uiso   1.00
C611   C     0.09610   0.49140   0.96190   0.00000  Uiso   1.00
C612   C     0.31890   0.40200   0.75125   0.00000  Uiso   1.00
C613   C     0.22459   0.47981   0.54349   0.00000  Uiso   1.00
C614   C     0.06266   0.52170   0.99314   0.00000  Uiso   1.00
C615   C     0.25455   0.44337   0.51518   0.00000  Uiso   1.00
C616   C     0.14778   0.47306   0.98018   0.00000  Uiso   1.00
C617   C     0.16923   0.49172   0.52781   0.00000  Uiso   1.00
C618   C     0.13403   0.52033   0.55874   0.00000  Uiso   1.00
C619   C     0.17872   0.43688   0.95246   0.00000  Uiso   1.00
C620   C     0.08146   0.53465   0.54163   0.00000  Uiso   1.00
C621   C     0.23102   0.42205   0.97001   0.00000  Uiso   1.00
C622   C     0.01840   0.65079   0.73956   0.00000  Uiso   1.00
C623   C     0.31492   0.34921   0.76041   0.00000  Uiso   1.00
C624   C     0.02096   0.50359   0.84106   0.00000  Uiso   1.00
Cl625  Cl    0.06052   0.66607   0.69037   0.00000  Uiso   1.00
Cl626  Cl    0.27277   0.33395   0.80958   0.00000  Uiso   1.00
Cl627  Cl    0.16813   0.43664   0.69711   0.00000  Uiso   1.00
Cl628  Cl    0.16519   0.56350   0.80272   0.00000  Uiso   1.00
H629   H     0.05596   0.55697   0.56622   0.00000  Uiso   1.00
H630   H     0.16257   0.41758   0.91781   0.00000  Uiso   1.00
H631   H     0.25311   0.39378   0.94809   0.00000  Uiso   1.00
H632   H     0.23264   0.53451   0.60783   0.00000  Uiso   1.00
H633   H     0.10522   0.46476   0.88649   0.00000  Uiso   1.00
H634   H     0.03398   0.43180   0.59497   0.00000  Uiso   1.00
H635   H     0.29033   0.54786   0.91142   0.00000  Uiso   1.00
H636   H     0.31825   0.56183   0.99900   0.00000  Uiso   1.00
H637   H     0.33007   0.39952   0.51211   0.00000  Uiso   1.00
H638   H     0.14521   0.53097   0.59696   0.00000  Uiso   1.00
N639   N     0.14695   0.48550   0.73739   0.00000  Uiso   1.00
N640   N     0.18638   0.51450   0.76260   0.00000  Uiso   1.00
O641   O     0.29719   0.57964   0.75309   0.00000  Uiso   1.00
O642   O     0.03614   0.42036   0.74690   0.00000  Uiso   1.00
O643   O     0.05822   0.57035   0.74501   0.00000  Uiso   1.00
O644   O     0.27512   0.42965   0.75498   0.00000  Uiso   1.00
O645   O     0.30328   0.50730   0.82247   0.00000  Uiso   1.00
O646   O     0.03005   0.49270   0.67753   0.00000  Uiso   1.00
O647   O     0.06431   0.49801   0.81439   0.00000  Uiso   1.00
O648   O     0.26902   0.50199   0.68561   0.00000  Uiso   1.00
Zn649  Zn    0.27033   0.50621   0.75539   0.00000  Uiso   1.00
Zn650  Zn    0.06300   0.49379   0.74460   0.00000  Uiso   1.00
C651   C     0.34776   0.59800   0.74872   0.00000  Uiso   1.00
C652   C     0.64549   0.49531   0.65898   0.00000  Uiso   1.00
C653   C     0.36403   0.50559   0.89386   0.00000  Uiso   1.00
C654   C     0.63337   0.48412   0.60680   0.00000  Uiso   1.00
C655   C     0.34471   0.53978   0.97508   0.00000  Uiso   1.00
C656   C     0.64051   0.42790   0.53313   0.00000  Uiso   1.00
C657   C     0.66195   0.53160   0.92542   0.00000  Uiso   1.00
C658   C     0.66241   0.44705   0.57967   0.00000  Uiso   1.00
C659   C     0.41248   0.48405   0.91230   0.00000  Uiso   1.00
C660   C     0.58423   0.50303   0.58705   0.00000  Uiso   1.00
C661   C     0.42943   0.49140   0.96190   0.00000  Uiso   1.00
C662   C     0.65223   0.40200   0.75125   0.00000  Uiso   1.00
C663   C     0.55792   0.47981   0.54349   0.00000  Uiso   1.00
C664   C     0.39599   0.52170   0.99314   0.00000  Uiso   1.00
C665   C     0.58788   0.44337   0.51518   0.00000  Uiso   1.00
C666   C     0.48111   0.47306   0.98018   0.00000  Uiso   1.00
C667   C     0.50256   0.49172   0.52781   0.00000  Uiso   1.00
C668   C     0.46737   0.52033   0.55874   0.00000  Uiso   1.00
C669   C     0.51206   0.43688   0.95246   0.00000  Uiso   1.00
C670   C     0.41479   0.53465   0.54163   0.00000  Uiso   1.00
C671   C     0.56435   0.42205   0.97001   0.00000  Uiso   1.00
C672   C     0.35173   0.65079   0.73956   0.00000  Uiso   1.00
C673   C     0.64825   0.34921   0.76041   0.00000  Uiso   1.00
C674   C     0.35429   0.50359   0.84106   0.00000  Uiso   1.00
Cl675  Cl    0.39385   0.66607   0.69037   0.00000  Uiso   1.00
Cl676  Cl    0.60611   0.33395   0.80958   0.00000  Uiso   1.00
Cl677  Cl    0.50146   0.43664   0.69711   0.00000  Uiso   1.00
Cl678  Cl    0.49852   0.56350   0.80272   0.00000  Uiso   1.00
H679   H     0.38929   0.55697   0.56622   0.00000  Uiso   1.00
H680   H     0.49590   0.41758   0.91781   0.00000  Uiso   1.00
H681   H     0.58644   0.39378   0.94809   0.00000  Uiso   1.00
H682   H     0.56597   0.53451   0.60783   0.00000  Uiso   1.00
H683   H     0.43855   0.46476   0.88649   0.00000  Uiso   1.00
H684   H     0.36731   0.43180   0.59497   0.00000  Uiso   1.00
H685   H     0.62367   0.54786   0.91142   0.00000  Uiso   1.00
H686   H     0.65158   0.56183   0.99900   0.00000  Uiso   1.00
H687   H     0.66340   0.39952   0.51211   0.00000  Uiso   1.00
H688   H     0.47854   0.53097   0.59696   0.00000  Uiso   1.00
N689   N     0.48029   0.48550   0.73739   0.00000  Uiso   1.00
N690   N     0.51971   0.51450   0.76260   0.00000  Uiso   1.00
O691   O     0.63052   0.57964   0.75309   0.00000  Uiso   1.00
O692   O     0.36948   0.42036   0.74690   0.00000  Uiso   1.00
O693   O     0.39155   0.57035   0.74501   0.00000  Uiso   1.00
O694   O     0.60845   0.42965   0.75498   0.00000  Uiso   1.00
O695   O     0.63662   0.50730   0.82247   0.00000  Uiso   1.00
O696   O     0.36338   0.49270   0.67753   0.00000  Uiso   1.00
O697   O     0.39764   0.49801   0.81439   0.00000  Uiso   1.00
O698   O     0.60236   0.50199   0.68561   0.00000  Uiso   1.00
Zn699  Zn    0.60366   0.50621   0.75539   0.00000  Uiso   1.00
Zn700  Zn    0.39634   0.49379   0.74460   0.00000  Uiso   1.00
C701   C     0.68110   0.59800   0.74872   0.00000  Uiso   1.00
C702   C     0.97882   0.49531   0.65898   0.00000  Uiso   1.00
C703   C     0.69736   0.50559   0.89386   0.00000  Uiso   1.00
C704   C     0.96671   0.48412   0.60680   0.00000  Uiso   1.00
C705   C     0.67804   0.53978   0.97508   0.00000  Uiso   1.00
C706   C     0.97384   0.42790   0.53313   0.00000  Uiso   1.00
C707   C     0.99528   0.53160   0.92542   0.00000  Uiso   1.00
C708   C     0.99574   0.44705   0.57967   0.00000  Uiso   1.00
C709   C     0.74581   0.48405   0.91230   0.00000  Uiso   1.00
C710   C     0.91756   0.50303   0.58705   0.00000  Uiso   1.00
C711   C     0.76277   0.49140   0.96190   0.00000  Uiso   1.00
C712   C     0.98556   0.40200   0.75125   0.00000  Uiso   1.00
C713   C     0.89126   0.47981   0.54349   0.00000  Uiso   1.00
C714   C     0.72933   0.52170   0.99314   0.00000  Uiso   1.00
C715   C     0.92122   0.44337   0.51518   0.00000  Uiso   1.00
C716   C     0.81445   0.47306   0.98018   0.00000  Uiso   1.00
C717   C     0.83589   0.49172   0.52781   0.00000  Uiso   1.00
C718   C     0.80070   0.52033   0.55874   0.00000  Uiso   1.00
C719   C     0.84539   0.43688   0.95246   0.00000  Uiso   1.00
C720   C     0.74812   0.53465   0.54163   0.00000  Uiso   1.00
C721   C     0.89769   0.42205   0.97001   0.00000  Uiso   1.00
C722   C     0.68506   0.65079   0.73956   0.00000  Uiso   1.00
C723   C     0.98159   0.34921   0.76041   0.00000  Uiso   1.00
C724   C     0.68763   0.50359   0.84106   0.00000  Uiso   1.00
Cl725  Cl    0.72719   0.66607   0.69037   0.00000  Uiso   1.00
Cl726  Cl    0.93944   0.33395   0.80958   0.00000  Uiso   1.00
Cl727  Cl    0.83479   0.43664   0.69711   0.00000  Uiso   1.00
Cl728  Cl    0.83185   0.56350   0.80272   0.00000  Uiso   1.00
H729   H     0.72262   0.55697   0.56622   0.00000  Uiso   1.00
H730   H     0.82924   0.41758   0.91781   0.00000  Uiso   1.00
H731   H     0.91977   0.39378   0.94809   0.00000  Uiso   1.00
H732   H     0.89930   0.53451   0.60783   0.00000  Uiso   1.00
H733   H     0.77188   0.46476   0.88649   0.00000  Uiso   1.00
H734   H     0.70065   0.43180   0.59497   0.00000  Uiso   1.00
H735   H     0.95700   0.54786   0.91142   0.00000  Uiso   1.00
H736   H     0.98492   0.56183   0.99900   0.00000  Uiso   1.00
H737   H     0.99674   0.39952   0.51211   0.00000  Uiso   1.00
H738   H     0.81188   0.53097   0.59696   0.00000  Uiso   1.00
N739   N     0.81362   0.48550   0.73739   0.00000  Uiso   1.00
N740   N     0.85305   0.51450   0.76260   0.00000  Uiso   1.00
O741   O     0.96386   0.57964   0.75309   0.00000  Uiso   1.00
O742   O     0.70281   0.42036   0.74690   0.00000  Uiso   1.00
O743   O     0.72488   0.57035   0.74501   0.00000  Uiso   1.00
O744   O     0.94178   0.42965   0.75498   0.00000  Uiso   1.00
O745   O     0.96995   0.50730   0.82247   0.00000  Uiso   1.00
O746   O     0.69672   0.49270   0.67753   0.00000  Uiso   1.00
O747   O     0.73098   0.49801   0.81439   0.00000  Uiso   1.00
O748   O     0.93569   0.50199   0.68561   0.00000  Uiso   1.00
Zn749  Zn    0.93700   0.50621   0.75539   0.00000  Uiso   1.00
Zn750  Zn    0.72967   0.49379   0.74460   0.00000  Uiso   1.00
C751   C     0.01443   0.93134   0.74872   0.00000  Uiso   1.00
C752   C     0.31216   0.82864   0.65898   0.00000  Uiso   1.00
C753   C     0.03070   0.83892   0.89386   0.00000  Uiso   1.00
C754   C     0.30004   0.81745   0.60680   0.00000  Uiso   1.00
C755   C     0.01137   0.87311   0.97508   0.00000  Uiso   1.00
C756   C     0.30717   0.76123   0.53313   0.00000  Uiso   1.00
C757   C     0.32862   0.86493   0.92542   0.00000  Uiso   1.00
C758   C     0.32908   0.78039   0.57967   0.00000  Uiso   1.00
C759   C     0.07914   0.81739   0.91230   0.00000  Uiso   1.00
C760   C     0.25090   0.83636   0.58705   0.00000  Uiso   1.00
C761   C     0.09610   0.82474   0.96190   0.00000  Uiso   1.00
C762   C     0.31890   0.73533   0.75125   0.00000  Uiso   1.00
C763   C     0.22459   0.81314   0.54349   0.00000  Uiso   1.00
C764   C     0.06266   0.85504   0.99314   0.00000  Uiso   1.00
C765   C     0.25455   0.77671   0.51518   0.00000  Uiso   1.00
C766   C     0.14778   0.80640   0.98018   0.00000  Uiso   1.00
C767   C     0.16923   0.82505   0.52781   0.00000  Uiso   1.00
C768   C     0.13403   0.85367   0.55874   0.00000  Uiso   1.00
C769   C     0.17872   0.77021   0.95246   0.00000  Uiso   1.00
C770   C     0.08146   0.86798   0.54163   0.00000  Uiso   1.00
C771   C     0.23102   0.75539   0.97001   0.00000  Uiso   1.00
C772   C     0.01840   0.98412   0.73956   0.00000  Uiso   1.00
C773   C     0.31492   0.68255   0.76041   0.00000  Uiso   1.00
C774   C     0.02096   0.83692   0.84106   0.00000  Uiso   1.00
Cl775  Cl    0.06052   0.99941   0.69037   0.00000  Uiso   1.00
Cl776  Cl    0.27277   0.66728   0.80958   0.00000  Uiso   1.00
Cl777  Cl    0.16813   0.76997   0.69711   0.00000  Uiso   1.00
Cl778  Cl    0.16519   0.89684   0.80272   0.00000  Uiso   1.00
H779   H     0.05596   0.89030   0.56622   0.00000  Uiso   1.00
H780   H     0.16257   0.75091   0.91781   0.00000  Uiso   1.00
H781   H     0.25311   0.72711   0.94809   0.00000  Uiso   1.00
H782   H     0.23264   0.86784   0.60783   0.00000  Uiso   1.00
H783   H     0.10522   0.79809   0.88649   0.00000  Uiso   1.00
H784   H     0.03398   0.76514   0.59497   0.00000  Uiso   1.00
H785   H     0.29033   0.88119   0.91142   0.00000  Uiso   1.00
H786   H     0.31825   0.89517   0.99900   0.00000  Uiso   1.00
H787   H     0.33007   0.73286   0.51211   0.00000  Uiso   1.00
H788   H     0.14521   0.86431   0.59696   0.00000  Uiso   1.00
N789   N     0.14695   0.81883   0.73739   0.00000  Uiso   1.00
N790   N     0.18638   0.84784   0.76260   0.00000  Uiso   1.00
O791   O     0.29719   0.91298   0.75309   0.00000  Uiso   1.00
O792   O     0.03614   0.75369   0.74690   0.00000  Uiso   1.00
O793   O     0.05822   0.90368   0.74501   0.00000  Uiso   1.00
O794   O     0.27512   0.76298   0.75498   0.00000  Uiso   1.00
O795   O     0.30328   0.84063   0.82247   0.00000  Uiso   1.00
O796   O     0.03005   0.82603   0.67753   0.00000  Uiso   1.00
O797   O     0.06431   0.83134   0.81439   0.00000  Uiso   1.00
O798   O     0.26902   0.83533   0.68561   0.00000  Uiso   1.00
Zn799  Zn    0.27033   0.83954   0.75539   0.00000  Uiso   1.00
Zn800  Zn    0.06300   0.82713   0.74460   0.00000  Uiso   1.00
C801   C     0.34776   0.93134   0.74872   0.00000  Uiso   1.00
C802   C     0.64549   0.82864   0.65898   0.00000  Uiso   1.00
C803   C     0.36403   0.83892   0.89386   0.00000  Uiso   1.00
C804   C     0.63337   0.81745   0.60680   0.00000  Uiso   1.00
C805   C     0.34471   0.87311   0.97508   0.00000  Uiso   1.00
C806   C     0.64051   0.76123   0.53313   0.00000  Uiso   1.00
C807   C     0.66195   0.86493   0.92542   0.00000  Uiso   1.00
C808   C     0.66241   0.78039   0.57967   0.00000  Uiso   1.00
C809   C     0.41248   0.81739   0.91230   0.00000  Uiso   1.00
C810   C     0.58423   0.83636   0.58705   0.00000  Uiso   1.00
C811   C     0.42943   0.82474   0.96190   0.00000  Uiso   1.00
C812   C     0.65223   0.73533   0.75125   0.00000  Uiso   1.00
C813   C     0.55792   0.81314   0.54349   0.00000  Uiso   1.00
C814   C     0.39599   0.85504   0.99314   0.00000  Uiso   1.00
C815   C     0.58788   0.77671   0.51518   0.00000  Uiso   1.00
C816   C     0.48111   0.80640   0.98018   0.00000  Uiso   1.00
C817   C     0.50256   0.82505   0.52781   0.00000  Uiso   1.00
C818   C     0.46737   0.85367   0.55874   0.00000  Uiso   1.00
C819   C     0.51206   0.77021   0.95246   0.00000  Uiso   1.00
C820   C     0.41479   0.86798   0.54163   0.00000  Uiso   1.00
C821   C     0.56435   0.75539   0.97001   0.00000  Uiso   1.00
C822   C     0.35173   0.98412   0.73956   0.00000  Uiso   1.00
C823   C     0.64825   0.68255   0.76041   0.00000  Uiso   1.00
C824   C     0.35429   0.83692   0.84106   0.00000  Uiso   1.00
Cl825  Cl    0.39385   0.99941   0.69037   0.00000  Uiso   1.00
Cl826  Cl    0.60611   0.66728   0.80958   0.00000  Uiso   1.00
Cl827  Cl    0.50146   0.76997   0.69711   0.00000  Uiso   1.00
Cl828  Cl    0.49852   0.89684   0.80272   0.00000  Uiso   1.00
H829   H     0.38929   0.89030   0.56622   0.00000  Uiso   1.00
H830   H     0.49590   0.75091   0.91781   0.00000  Uiso   1.00
H831   H     0.58644   0.72711   0.94809   0.00000  Uiso   1.00
H832   H     0.56597   0.86784   0.60783   0.00000  Uiso   1.00
H833   H     0.43855   0.79809   0.88649   0.00000  Uiso   1.00
H834   H     0.36731   0.76514   0.59497   0.00000  Uiso   1.00
H835   H     0.62367   0.88119   0.91142   0.00000  Uiso   1.00
H836   H     0.65158   0.89517   0.99900   0.00000  Uiso   1.00
H837   H     0.66340   0.73286   0.51211   0.00000  Uiso   1.00
H838   H     0.47854   0.86431   0.59696   0.00000  Uiso   1.00
N839   N     0.48029   0.81883   0.73739   0.00000  Uiso   1.00
N840   N     0.51971   0.84784   0.76260   0.00000  Uiso   1.00
O841   O     0.63052   0.91298   0.75309   0.00000  Uiso   1.00
O842   O     0.36948   0.75369   0.74690   0.00000  Uiso   1.00
O843   O     0.39155   0.90368   0.74501   0.00000  Uiso   1.00
O844   O     0.60845   0.76298   0.75498   0.00000  Uiso   1.00
O845   O     0.63662   0.84063   0.82247   0.00000  Uiso   1.00
O846   O     0.36338   0.82603   0.67753   0.00000  Uiso   1.00
O847   O     0.39764   0.83134   0.81439   0.00000  Uiso   1.00
O848   O     0.60236   0.83533   0.68561   0.00000  Uiso   1.00
Zn849  Zn    0.60366   0.83954   0.75539   0.00000  Uiso   1.00
Zn850  Zn    0.39634   0.82713   0.74460   0.00000  Uiso   1.00
C851   C     0.68110   0.93134   0.74872   0.00000  Uiso   1.00
C852   C     0.97882   0.82864   0.65898   0.00000  Uiso   1.00
C853   C     0.69736   0.83892   0.89386   0.00000  Uiso   1.00
C854   C     0.96671   0.81745   0.60680   0.00000  Uiso   1.00
C855   C     0.67804   0.87311   0.97508   0.00000  Uiso   1.00
C856   C     0.97384   0.76123   0.53313   0.00000  Uiso   1.00
C857   C     0.99528   0.86493   0.92542   0.00000  Uiso   1.00
C858   C     0.99574   0.78039   0.57967   0.00000  Uiso   1.00
C859   C     0.74581   0.81739   0.91230   0.00000  Uiso   1.00
C860   C     0.91756   0.83636   0.58705   0.00000  Uiso   1.00
C861   C     0.76277   0.82474   0.96190   0.00000  Uiso   1.00
C862   C     0.98556   0.73533   0.75125   0.00000  Uiso   1.00
C863   C     0.89126   0.81314   0.54349   0.00000  Uiso   1.00
C864   C     0.72933   0.85504   0.99314   0.00000  Uiso   1.00
C865   C     0.92122   0.77671   0.51518   0.00000  Uiso   1.00
C866   C     0.81445   0.80640   0.98018   0.00000  Uiso   1.00
C867   C     0.83589   0.82505   0.52781   0.00000  Uiso   1.00
C868   C     0.80070   0.85367   0.55874   0.00000  Uiso   1.00
C869   C     0.84539   0.77021   0.95246   0.00000  Uiso   1.00
C870   C     0.74812   0.86798   0.54163   0.00000  Uiso   1.00
C871   C     0.89769   0.75539   0.97001   0.00000  Uiso   1.00
C872   C     0.68506   0.98412   0.73956   0.00000  Uiso   1.00
C873   C     0.98159   0.68255   0.76041   0.00000  Uiso   1.00
C874   C     0.68763   0.83692   0.84106   0.00000  Uiso   1.00
Cl875  Cl    0.72719   0.99941   0.69037   0.00000  Uiso   1.00
Cl876  Cl    0.93944   0.66728   0.80958   0.00000  Uiso   1.00
Cl877  Cl    0.83479   0.76997   0.69711   0.00000  Uiso   1.00
Cl878  Cl    0.83185   0.89684   0.80272   0.00000  Uiso   1.00
H879   H     0.72262   0.89030   0.56622   0.00000  Uiso   1.00
H880   H     0.82924   0.75091   0.91781   0.00000  Uiso   1.00
H881   H     0.91977   0.72711   0.94809   0.00000  Uiso   1.00
H882   H     0.89930   0.86784   0.60783   0.00000  Uiso   1.00
H883   H     0.77188   0.79809   0.88649   0.00000  Uiso   1.00
H884   H     0.70065   0.76514   0.59497   0.00000  Uiso   1.00
H885   H     0.95700   0.88119   0.91142   0.00000  Uiso   1.00
H886   H     0.98492   0.89517   0.99900   0.00000  Uiso   1.00
H887   H     0.99674   0.73286   0.51211   0.00000  Uiso   1.00
H888   H     0.81188   0.86431   0.59696   0.00000  Uiso   1.00
N889   N     0.81362   0.81883   0.73739   0.00000  Uiso   1.00
N890   N     0.85305   0.84784   0.76260   0.00000  Uiso   1.00
O891   O     0.96386   0.91298   0.75309   0.00000  Uiso   1.00
O892   O     0.70281   0.75369   0.74690   0.00000  Uiso   1.00
O893   O     0.72488   0.90368   0.74501   0.00000  Uiso   1.00
O894   O     0.94178   0.76298   0.75498   0.00000  Uiso   1.00
O895   O     0.96995   0.84063   0.82247   0.00000  Uiso   1.00
O896   O     0.69672   0.82603   0.67753   0.00000  Uiso   1.00
O897   O     0.73098   0.83134   0.81439   0.00000  Uiso   1.00
O898   O     0.93569   0.83533   0.68561   0.00000  Uiso   1.00
Zn899  Zn    0.93700   0.83954   0.75539   0.00000  Uiso   1.00
Zn900  Zn    0.72967   0.82713   0.74460   0.00000  Uiso   1.00
loop_
_geom_bond_atom_site_label_1
_geom_bond_atom_site_label_2
_geom_bond_distance
_geom_bond_site_symmetry_2
_ccdc_geom_bond_type
C1     C22     1.398   .     S
C1     O43     1.295   .     A
C1     O141    1.278   1_455 S
C2     C4      1.449   .     S
C2     O48     1.301   .     A
C2     O96     1.296   .     S
C3     C9      1.389   .     A
C3     C24     1.452   .     S
C3     C107    1.399   1_455 S
C4     C8      1.400   .     A
C4     C10     1.385   .     A
C5     C14     1.403   .     A
C5     C107    1.392   1_455 S
C5     H136    1.084   1_455 S
C6     H37     1.084   .     S
C6     C8      1.394   .     A
C6     C15     1.404   .     A
C7     H35     1.083   .     S
C7     C53     1.399   .     S
C7     C55     1.392   .     S
C8     H84     1.083   .     S
C9     C11     1.393   .     A
C9     H33     1.077   .     S
C10    C13     1.392   .     A
C10    H32     1.079   .     S
C11    C16     1.416   .     A
C11    C14     1.419   .     A
C12    O44     1.295   .     A
C12    C23     1.398   .     S
C12    O92     1.278   .     S
C13    C17     1.414   .     A
C13    C15     1.418   .     A
C14    C470    1.389   .     S
C15    C471    1.390   1_554 S
C16    C19     1.419   .     A
C16    C467    1.414   .     S
C17    C18     1.418   .     A
C17    C466    1.414   1_554 S
C18    C20     1.386   .     A
C18    H38     1.078   .     S
C19    H30     1.078   .     S
C19    C21     1.388   .     A
C20    H29     1.084   .     S
C20    C464    1.389   1_554 S
C21    H31     1.084   .     S
C21    C465    1.390   .     S
C22    Cl25    1.779   .     S
C22    C273    1.349   1_455 S
C23    Cl26    1.779   .     S
C23    C372    1.349   1_545 S
C24    O47     1.303   .     A
C24    O145    1.296   1_455 S
Cl27   N39     1.724   .     S
Cl28   N40     1.724   .     S
H34    C108    1.083   1_455 S
H36    C55     1.084   .     S
N39    Zn50    2.031   .     S
N39    N40     1.294   .     D
N40    Zn49    2.031   .     S
O41    Zn49    1.965   .     S
O41    C51     1.278   .     S
O42    Zn50    1.965   .     S
O42    C112    1.278   1_455 S
O43    Zn50    1.977   .     S
O44    Zn49    1.977   .     S
O45    Zn49    1.957   .     S
O45    C74     1.296   .     S
O46    Zn50    1.957   .     S
O46    C102    1.296   1_455 S
O47    Zn50    1.910   .     S
O48    Zn49    1.910   .     S
C51    C72     1.398   .     S
C51    O93     1.295   .     A
C52    C54     1.449   .     S
C52    O98     1.301   .     A
C52    O146    1.296   .     S
C53    C59     1.389   .     A
C53    C74     1.452   .     S
C54    C58     1.400   .     A
C54    C60     1.385   .     A
C55    C64     1.403   .     A
C56    H87     1.084   .     S
C56    C58     1.394   .     A
C56    C65     1.404   .     A
C57    H85     1.083   .     S
C57    C103    1.399   .     S
C57    C105    1.392   .     S
C58    H134    1.083   .     S
C59    C61     1.393   .     A
C59    H83     1.077   .     S
C60    C63     1.392   .     A
C60    H82     1.079   .     S
C61    C66     1.416   .     A
C61    C64     1.419   .     A
C62    O94     1.295   .     A
C62    C73     1.398   .     S
C62    O142    1.278   .     S
C63    C67     1.414   .     A
C63    C65     1.418   .     A
C64    C520    1.389   .     S
C65    C521    1.390   1_554 S
C66    C69     1.419   .     A
C66    C517    1.414   .     S
C67    C68     1.418   .     A
C67    C516    1.414   1_554 S
C68    C70     1.386   .     A
C68    H88     1.078   .     S
C69    H80     1.078   .     S
C69    C71     1.388   .     A
C70    H79     1.084   .     S
C70    C514    1.389   1_554 S
C71    H81     1.084   .     S
C71    C515    1.390   .     S
C72    Cl75    1.779   .     S
C72    C173    1.349   .     S
C73    Cl76    1.779   .     S
C73    C422    1.349   1_545 S
C74    O97     1.303   .     A
Cl77   N89     1.724   .     S
Cl78   N90     1.724   .     S
H86    C105    1.084   .     S
N89    Zn100   2.031   .     S
N89    N90     1.294   .     D
N90    Zn99    2.031   .     S
O91    Zn99    1.965   .     S
O91    C101    1.278   .     S
O92    Zn100   1.965   .     S
O93    Zn100   1.977   .     S
O94    Zn99    1.977   .     S
O95    Zn99    1.957   .     S
O95    C124    1.296   .     S
O96    Zn100   1.957   .     S
O97    Zn100   1.910   .     S
O98    Zn99    1.910   .     S
C101   C122    1.398   .     S
C101   O143    1.295   .     A
C102   C104    1.449   .     S
C102   O148    1.301   .     A
C102   O46     1.296   1_655 S
C103   C109    1.389   .     A
C103   C124    1.452   .     S
C104   C108    1.400   .     A
C104   C110    1.385   .     A
C105   C114    1.403   .     A
C106   H137    1.084   .     S
C106   C108    1.394   .     A
C106   C115    1.404   .     A
C107   H135    1.083   .     S
C107   C3      1.399   1_655 S
C107   C5      1.392   1_655 S
C108   H34     1.083   1_655 S
C109   C111    1.393   .     A
C109   H133    1.077   .     S
C110   C113    1.392   .     A
C110   H132    1.079   .     S
C111   C116    1.416   .     A
C111   C114    1.419   .     A
C112   O144    1.295   .     A
C112   C123    1.398   .     S
C112   O42     1.278   1_655 S
C113   C117    1.414   .     A
C113   C115    1.418   .     A
C114   C570    1.389   .     S
C115   C571    1.390   1_554 S
C116   C119    1.419   .     A
C116   C567    1.414   .     S
C117   C118    1.418   .     A
C117   C566    1.414   1_554 S
C118   C120    1.386   .     A
C118   H138    1.078   .     S
C119   H130    1.078   .     S
C119   C121    1.388   .     A
C120   H129    1.084   .     S
C120   C564    1.389   1_554 S
C121   H131    1.084   .     S
C121   C565    1.390   .     S
C122   Cl125   1.779   .     S
C122   C223    1.349   .     S
C123   Cl126   1.779   .     S
C123   C322    1.349   1_645 S
C124   O147    1.303   .     A
Cl127  N139    1.724   .     S
Cl128  N140    1.724   .     S
H136   C5      1.084   1_655 S
N139   Zn150   2.031   .     S
N139   N140    1.294   .     D
N140   Zn149   2.031   .     S
O141   Zn149   1.965   .     S
O141   C1      1.278   1_655 S
O142   Zn150   1.965   .     S
O143   Zn150   1.977   .     S
O144   Zn149   1.977   .     S
O145   Zn149   1.957   .     S
O145   C24     1.296   1_655 S
O146   Zn150   1.957   .     S
O147   Zn150   1.910   .     S
O148   Zn149   1.910   .     S
C151   C172    1.398   .     S
C151   O193    1.295   .     A
C151   O291    1.278   1_455 S
C152   C154    1.449   .     S
C152   O198    1.301   .     A
C152   O246    1.296   .     S
C153   C159    1.389   .     A
C153   C174    1.452   .     S
C153   C257    1.399   1_455 S
C154   C158    1.400   .     A
C154   C160    1.385   .     A
C155   C164    1.403   .     A
C155   C257    1.392   1_455 S
C155   H286    1.084   1_455 S
C156   H187    1.084   .     S
C156   C158    1.394   .     A
C156   C165    1.404   .     A
C157   H185    1.083   .     S
C157   C203    1.399   .     S
C157   C205    1.392   .     S
C158   H234    1.083   .     S
C159   C161    1.393   .     A
C159   H183    1.077   .     S
C160   C163    1.392   .     A
C160   H182    1.079   .     S
C161   C166    1.416   .     A
C161   C164    1.419   .     A
C162   O194    1.295   .     A
C162   C173    1.398   .     S
C162   O242    1.278   .     S
C163   C167    1.414   .     A
C163   C165    1.418   .     A
C164   C620    1.389   .     S
C165   C621    1.390   1_554 S
C166   C169    1.419   .     A
C166   C617    1.414   .     S
C167   C168    1.418   .     A
C167   C616    1.414   1_554 S
C168   C170    1.386   .     A
C168   H188    1.078   .     S
C169   H180    1.078   .     S
C169   C171    1.388   .     A
C170   H179    1.084   .     S
C170   C614    1.389   1_554 S
C171   H181    1.084   .     S
C171   C615    1.390   .     S
C172   Cl175   1.779   .     S
C172   C423    1.349   1_455 S
C173   Cl176   1.779   .     S
C174   O197    1.303   .     A
C174   O295    1.296   1_455 S
Cl177  N189    1.724   .     S
Cl178  N190    1.724   .     S
H184   C258    1.083   1_455 S
H186   C205    1.084   .     S
N189   Zn200   2.031   .     S
N189   N190    1.294   .     D
N190   Zn199   2.031   .     S
O191   Zn199   1.965   .     S
O191   C201    1.278   .     S
O192   Zn200   1.965   .     S
O192   C262    1.278   1_455 S
O193   Zn200   1.977   .     S
O194   Zn199   1.977   .     S
O195   Zn199   1.957   .     S
O195   C224    1.296   .     S
O196   Zn200   1.957   .     S
O196   C252    1.296   1_455 S
O197   Zn200   1.910   .     S
O198   Zn199   1.910   .     S
C201   C222    1.398   .     S
C201   O243    1.295   .     A
C202   C204    1.449   .     S
C202   O248    1.301   .     A
C202   O296    1.296   .     S
C203   C209    1.389   .     A
C203   C224    1.452   .     S
C204   C208    1.400   .     A
C204   C210    1.385   .     A
C205   C214    1.403   .     A
C206   H237    1.084   .     S
C206   C208    1.394   .     A
C206   C215    1.404   .     A
C207   H235    1.083   .     S
C207   C253    1.399   .     S
C207   C255    1.392   .     S
C208   H284    1.083   .     S
C209   C211    1.393   .     A
C209   H233    1.077   .     S
C210   C213    1.392   .     A
C210   H232    1.079   .     S
C211   C216    1.416   .     A
C211   C214    1.419   .     A
C212   O244    1.295   .     A
C212   C223    1.398   .     S
C212   O292    1.278   .     S
C213   C217    1.414   .     A
C213   C215    1.418   .     A
C214   C670    1.389   .     S
C215   C671    1.390   1_554 S
C216   C219    1.419   .     A
C216   C667    1.414   .     S
C217   C218    1.418   .     A
C217   C666    1.414   1_554 S
C218   C220    1.386   .     A
C218   H238    1.078   .     S
C219   H230    1.078   .     S
C219   C221    1.388   .     A
C220   H229    1.084   .     S
C220   C664    1.389   1_554 S
C221   H231    1.084   .     S
C221   C665    1.390   .     S
C222   Cl225   1.779   .     S
C222   C323    1.349   .     S
C223   Cl226   1.779   .     S
C224   O247    1.303   .     A
Cl227  N239    1.724   .     S
Cl228  N240    1.724   .     S
H236   C255    1.084   .     S
N239   Zn250   2.031   .     S
N239   N240    1.294   .     D
N240   Zn249   2.031   .     S
O241   Zn249   1.965   .     S
O241   C251    1.278   .     S
O242   Zn250   1.965   .     S
O243   Zn250   1.977   .     S
O244   Zn249   1.977   .     S
O245   Zn249   1.957   .     S
O245   C274    1.296   .     S
O246   Zn250   1.957   .     S
O247   Zn250   1.910   .     S
O248   Zn249   1.910   .     S
C251   C272    1.398   .     S
C251   O293    1.295   .     A
C252   C254    1.449   .     S
C252   O298    1.301   .     A
C252   O196    1.296   1_655 S
C253   C259    1.389   .     A
C253   C274    1.452   .     S
C254   C258    1.400   .     A
C254   C260    1.385   .     A
C255   C264    1.403   .     A
C256   H287    1.084   .     S
C256   C258    1.394   .     A
C256   C265    1.404   .     A
C257   H285    1.083   .     S
C257   C153    1.399   1_655 S
C257   C155    1.392   1_655 S
C258   H184    1.083   1_655 S
C259   C261    1.393   .     A
C259   H283    1.077   .     S
C260   C263    1.392   .     A
C260   H282    1.079   .     S
C261   C266    1.416   .     A
C261   C264    1.419   .     A
C262   O294    1.295   .     A
C262   C273    1.398   .     S
C262   O192    1.278   1_655 S
C263   C267    1.414   .     A
C263   C265    1.418   .     A
C264   C720    1.389   .     S
C265   C721    1.390   1_554 S
C266   C269    1.419   .     A
C266   C717    1.414   .     S
C267   C268    1.418   .     A
C267   C716    1.414   1_554 S
C268   C270    1.386   .     A
C268   H288    1.078   .     S
C269   H280    1.078   .     S
C269   C271    1.388   .     A
C270   H279    1.084   .     S
C270   C714    1.389   1_554 S
C271   H281    1.084   .     S
C271   C715    1.390   .     S
C272   Cl275   1.779   .     S
C272   C373    1.349   .     S
C273   Cl276   1.779   .     S
C273   C22     1.349   1_655 S
C274   O297    1.303   .     A
Cl277  N289    1.724   .     S
Cl278  N290    1.724   .     S
H286   C155    1.084   1_655 S
N289   Zn300   2.031   .     S
N289   N290    1.294   .     D
N290   Zn299   2.031   .     S
O291   Zn299   1.965   .     S
O291   C151    1.278   1_655 S
O292   Zn300   1.965   .     S
O293   Zn300   1.977   .     S
O294   Zn299   1.977   .     S
O295   Zn299   1.957   .     S
O295   C174    1.296   1_655 S
O296   Zn300   1.957   .     S
O297   Zn300   1.910   .     S
O298   Zn299   1.910   .     S
C301   C322    1.398   .     S
C301   O343    1.295   .     A
C301   O441    1.278   1_455 S
C302   C304    1.449   .     S
C302   O348    1.301   .     A
C302   O396    1.296   .     S
C303   C309    1.389   .     A
C303   C324    1.452   .     S
C303   C407    1.399   1_455 S
C304   C308    1.400   .     A
C304   C310    1.385   .     A
C305   C314    1.403   .     A
C305   C407    1.392   1_455 S
C305   H436    1.084   1_455 S
C306   H337    1.084   .     S
C306   C308    1.394   .     A
C306   C315    1.404   .     A
C307   H335    1.083   .     S
C307   C353    1.399   .     S
C307   C355    1.392   .     S
C308   H384    1.083   .     S
C309   C311    1.393   .     A
C309   H333    1.077   .     S
C310   C313    1.392   .     A
C310   H332    1.079   .     S
C311   C316    1.416   .     A
C311   C314    1.419   .     A
C312   O344    1.295   .     A
C312   C323    1.398   .     S
C312   O392    1.278   .     S
C313   C317    1.414   .     A
C313   C315    1.418   .     A
C314   C770    1.389   .     S
C315   C771    1.390   1_554 S
C316   C319    1.419   .     A
C316   C767    1.414   .     S
C317   C318    1.418   .     A
C317   C766    1.414   1_554 S
C318   C320    1.386   .     A
C318   H338    1.078   .     S
C319   H330    1.078   .     S
C319   C321    1.388   .     A
C320   H329    1.084   .     S
C320   C764    1.389   1_554 S
C321   H331    1.084   .     S
C321   C765    1.390   .     S
C322   Cl325   1.779   .     S
C322   C123    1.349   1_465 S
C323   Cl326   1.779   .     S
C324   O347    1.303   .     A
C324   O445    1.296   1_455 S
Cl327  N339    1.724   .     S
Cl328  N340    1.724   .     S
H334   C408    1.083   1_455 S
H336   C355    1.084   .     S
N339   Zn350   2.031   .     S
N339   N340    1.294   .     D
N340   Zn349   2.031   .     S
O341   Zn349   1.965   .     S
O341   C351    1.278   .     S
O342   Zn350   1.965   .     S
O342   C412    1.278   1_455 S
O343   Zn350   1.977   .     S
O344   Zn349   1.977   .     S
O345   Zn349   1.957   .     S
O345   C374    1.296   .     S
O346   Zn350   1.957   .     S
O346   C402    1.296   1_455 S
O347   Zn350   1.910   .     S
O348   Zn349   1.910   .     S
C351   C372    1.398   .     S
C351   O393    1.295   .     A
C352   C354    1.449   .     S
C352   O398    1.301   .     A
C352   O446    1.296   .     S
C353   C359    1.389   .     A
C353   C374    1.452   .     S
C354   C358    1.400   .     A
C354   C360    1.385   .     A
C355   C364    1.403   .     A
C356   H387    1.084   .     S
C356   C358    1.394   .     A
C356   C365    1.404   .     A
C357   H385    1.083   .     S
C357   C403    1.399   .     S
C357   C405    1.392   .     S
C358   H434    1.083   .     S
C359   C361    1.393   .     A
C359   H383    1.077   .     S
C360   C363    1.392   .     A
C360   H382    1.079   .     S
C361   C366    1.416   .     A
C361   C364    1.419   .     A
C362   O394    1.295   .     A
C362   C373    1.398   .     S
C362   O442    1.278   .     S
C363   C367    1.414   .     A
C363   C365    1.418   .     A
C364   C820    1.389   .     S
C365   C821    1.390   1_554 S
C366   C369    1.419   .     A
C366   C817    1.414   .     S
C367   C368    1.418   .     A
C367   C816    1.414   1_554 S
C368   C370    1.386   .     A
C368   H388    1.078   .     S
C369   H380    1.078   .     S
C369   C371    1.388   .     A
C370   H379    1.084   .     S
C370   C814    1.389   1_554 S
C371   H381    1.084   .     S
C371   C815    1.390   .     S
C372   Cl375   1.779   .     S
C372   C23     1.349   1_565 S
C373   Cl376   1.779   .     S
C374   O397    1.303   .     A
Cl377  N389    1.724   .     S
Cl378  N390    1.724   .     S
H386   C405    1.084   .     S
N389   Zn400   2.031   .     S
N389   N390    1.294   .     D
N390   Zn399   2.031   .     S
O391   Zn399   1.965   .     S
O391   C401    1.278   .     S
O392   Zn400   1.965   .     S
O393   Zn400   1.977   .     S
O394   Zn399   1.977   .     S
O395   Zn399   1.957   .     S
O395   C424    1.296   .     S
O396   Zn400   1.957   .     S
O397   Zn400   1.910   .     S
O398   Zn399   1.910   .     S
C401   C422    1.398   .     S
C401   O443    1.295   .     A
C402   C404    1.449   .     S
C402   O448    1.301   .     A
C402   O346    1.296   1_655 S
C403   C409    1.389   .     A
C403   C424    1.452   .     S
C404   C408    1.400   .     A
C404   C410    1.385   .     A
C405   C414    1.403   .     A
C406   H437    1.084   .     S
C406   C408    1.394   .     A
C406   C415    1.404   .     A
C407   H435    1.083   .     S
C407   C303    1.399   1_655 S
C407   C305    1.392   1_655 S
C408   H334    1.083   1_655 S
C409   C411    1.393   .     A
C409   H433    1.077   .     S
C410   C413    1.392   .     A
C410   H432    1.079   .     S
C411   C416    1.416   .     A
C411   C414    1.419   .     A
C412   O444    1.295   .     A
C412   C423    1.398   .     S
C412   O342    1.278   1_655 S
C413   C417    1.414   .     A
C413   C415    1.418   .     A
C414   C870    1.389   .     S
C415   C871    1.390   1_554 S
C416   C419    1.419   .     A
C416   C867    1.414   .     S
C417   C418    1.418   .     A
C417   C866    1.414   1_554 S
C418   C420    1.386   .     A
C418   H438    1.078   .     S
C419   H430    1.078   .     S
C419   C421    1.388   .     A
C420   H429    1.084   .     S
C420   C864    1.389   1_554 S
C421   H431    1.084   .     S
C421   C865    1.390   .     S
C422   Cl425   1.779   .     S
C422   C73     1.349   1_565 S
C423   Cl426   1.779   .     S
C423   C172    1.349   1_655 S
C424   O447    1.303   .     A
Cl427  N439    1.724   .     S
Cl428  N440    1.724   .     S
H436   C305    1.084   1_655 S
N439   Zn450   2.031   .     S
N439   N440    1.294   .     D
N440   Zn449   2.031   .     S
O441   Zn449   1.965   .     S
O441   C301    1.278   1_655 S
O442   Zn450   1.965   .     S
O443   Zn450   1.977   .     S
O444   Zn449   1.977   .     S
O445   Zn449   1.957   .     S
O445   C324    1.296   1_655 S
O446   Zn450   1.957   .     S
O447   Zn450   1.910   .     S
O448   Zn449   1.910   .     S
C451   C472    1.398   .     S
C451   O493    1.295   .     A
C451   O591    1.278   1_455 S
C452   C454    1.449   .     S
C452   O498    1.301   .     A
C452   O546    1.296   .     S
C453   C459    1.389   .     A
C453   C474    1.452   .     S
C453   C557    1.399   1_455 S
C454   C458    1.400   .     A
C454   C460    1.385   .     A
C455   C464    1.403   .     A
C455   C557    1.392   1_455 S
C455   H586    1.084   1_455 S
C456   H487    1.084   .     S
C456   C458    1.394   .     A
C456   C465    1.404   .     A
C457   H485    1.083   .     S
C457   C503    1.399   .     S
C457   C505    1.392   .     S
C458   H534    1.083   .     S
C459   C461    1.393   .     A
C459   H483    1.077   .     S
C460   C463    1.392   .     A
C460   H482    1.079   .     S
C461   C466    1.416   .     A
C461   C464    1.419   .     A
C462   O494    1.295   .     A
C462   C473    1.398   .     S
C462   O542    1.278   .     S
C463   C467    1.414   .     A
C463   C465    1.418   .     A
C464   C20     1.389   1_556 S
C466   C469    1.419   .     A
C466   C17     1.414   1_556 S
C467   C468    1.418   .     A
C468   C470    1.386   .     A
C468   H488    1.078   .     S
C469   H480    1.078   .     S
C469   C471    1.388   .     A
C470   H479    1.084   .     S
C471   H481    1.084   .     S
C471   C15     1.390   1_556 S
C472   Cl475   1.779   .     S
C472   C723    1.349   1_455 S
C473   Cl476   1.779   .     S
C473   C822    1.349   1_545 S
C474   O497    1.303   .     A
C474   O595    1.296   1_455 S
Cl477  N489    1.724   .     S
Cl478  N490    1.724   .     S
H484   C558    1.083   1_455 S
H486   C505    1.084   .     S
N489   Zn500   2.031   .     S
N489   N490    1.294   .     D
N490   Zn499   2.031   .     S
O491   Zn499   1.965   .     S
O491   C501    1.278   .     S
O492   Zn500   1.965   .     S
O492   C562    1.278   1_455 S
O493   Zn500   1.977   .     S
O494   Zn499   1.977   .     S
O495   Zn499   1.957   .     S
O495   C524    1.296   .     S
O496   Zn500   1.957   .     S
O496   C552    1.296   1_455 S
O497   Zn500   1.910   .     S
O498   Zn499   1.910   .     S
C501   C522    1.398   .     S
C501   O543    1.295   .     A
C502   C504    1.449   .     S
C502   O548    1.301   .     A
C502   O596    1.296   .     S
C503   C509    1.389   .     A
C503   C524    1.452   .     S
C504   C508    1.400   .     A
C504   C510    1.385   .     A
C505   C514    1.403   .     A
C506   H537    1.084   .     S
C506   C508    1.394   .     A
C506   C515    1.404   .     A
C507   H535    1.083   .     S
C507   C553    1.399   .     S
C507   C555    1.392   .     S
C508   H584    1.083   .     S
C509   C511    1.393   .     A
C509   H533    1.077   .     S
C510   C513    1.392   .     A
C510   H532    1.079   .     S
C511   C516    1.416   .     A
C511   C514    1.419   .     A
C512   O544    1.295   .     A
C512   C523    1.398   .     S
C512   O592    1.278   .     S
C513   C517    1.414   .     A
C513   C515    1.418   .     A
C514   C70     1.389   1_556 S
C516   C519    1.419   .     A
C516   C67     1.414   1_556 S
C517   C518    1.418   .     A
C518   C520    1.386   .     A
C518   H538    1.078   .     S
C519   H530    1.078   .     S
C519   C521    1.388   .     A
C520   H529    1.084   .     S
C521   H531    1.084   .     S
C521   C65     1.390   1_556 S
C522   Cl525   1.779   .     S
C522   C623    1.349   .     S
C523   Cl526   1.779   .     S
C523   C872    1.349   1_545 S
C524   O547    1.303   .     A
Cl527  N539    1.724   .     S
Cl528  N540    1.724   .     S
H536   C555    1.084   .     S
N539   Zn550   2.031   .     S
N539   N540    1.294   .     D
N540   Zn549   2.031   .     S
O541   Zn549   1.965   .     S
O541   C551    1.278   .     S
O542   Zn550   1.965   .     S
O543   Zn550   1.977   .     S
O544   Zn549   1.977   .     S
O545   Zn549   1.957   .     S
O545   C574    1.296   .     S
O546   Zn550   1.957   .     S
O547   Zn550   1.910   .     S
O548   Zn549   1.910   .     S
C551   C572    1.398   .     S
C551   O593    1.295   .     A
C552   C554    1.449   .     S
C552   O598    1.301   .     A
C552   O496    1.296   1_655 S
C553   C559    1.389   .     A
C553   C574    1.452   .     S
C554   C558    1.400   .     A
C554   C560    1.385   .     A
C555   C564    1.403   .     A
C556   H587    1.084   .     S
C556   C558    1.394   .     A
C556   C565    1.404   .     A
C557   H585    1.083   .     S
C557   C453    1.399   1_655 S
C557   C455    1.392   1_655 S
C558   H484    1.083   1_655 S
C559   C561    1.393   .     A
C559   H583    1.077   .     S
C560   C563    1.392   .     A
C560   H582    1.079   .     S
C561   C566    1.416   .     A
C561   C564    1.419   .     A
C562   O594    1.295   .     A
C562   C573    1.398   .     S
C562   O492    1.278   1_655 S
C563   C567    1.414   .     A
C563   C565    1.418   .     A
C564   C120    1.389   1_556 S
C566   C569    1.419   .     A
C566   C117    1.414   1_556 S
C567   C568    1.418   .     A
C568   C570    1.386   .     A
C568   H588    1.078   .     S
C569   H580    1.078   .     S
C569   C571    1.388   .     A
C570   H579    1.084   .     S
C571   H581    1.084   .     S
C571   C115    1.390   1_556 S
C572   Cl575   1.779   .     S
C572   C673    1.349   .     S
C573   Cl576   1.779   .     S
C573   C772    1.349   1_645 S
C574   O597    1.303   .     A
Cl577  N589    1.724   .     S
Cl578  N590    1.724   .     S
H586   C455    1.084   1_655 S
N589   Zn600   2.031   .     S
N589   N590    1.294   .     D
N590   Zn599   2.031   .     S
O591   Zn599   1.965   .     S
O591   C451    1.278   1_655 S
O592   Zn600   1.965   .     S
O593   Zn600   1.977   .     S
O594   Zn599   1.977   .     S
O595   Zn599   1.957   .     S
O595   C474    1.296   1_655 S
O596   Zn600   1.957   .     S
O597   Zn600   1.910   .     S
O598   Zn599   1.910   .     S
C601   C622    1.398   .     S
C601   O643    1.295   .     A
C601   O741    1.278   1_455 S
C602   C604    1.449   .     S
C602   O648    1.301   .     A
C602   O696    1.296   .     S
C603   C609    1.389   .     A
C603   C624    1.452   .     S
C603   C707    1.399   1_455 S
C604   C608    1.400   .     A
C604   C610    1.385   .     A
C605   C614    1.403   .     A
C605   C707    1.392   1_455 S
C605   H736    1.084   1_455 S
C606   H637    1.084   .     S
C606   C608    1.394   .     A
C606   C615    1.404   .     A
C607   H635    1.083   .     S
C607   C653    1.399   .     S
C607   C655    1.392   .     S
C608   H684    1.083   .     S
C609   C611    1.393   .     A
C609   H633    1.077   .     S
C610   C613    1.392   .     A
C610   H632    1.079   .     S
C611   C616    1.416   .     A
C611   C614    1.419   .     A
C612   O644    1.295   .     A
C612   C623    1.398   .     S
C612   O692    1.278   .     S
C613   C617    1.414   .     A
C613   C615    1.418   .     A
C614   C170    1.389   1_556 S
C616   C619    1.419   .     A
C616   C167    1.414   1_556 S
C617   C618    1.418   .     A
C618   C620    1.386   .     A
C618   H638    1.078   .     S
C619   H630    1.078   .     S
C619   C621    1.388   .     A
C620   H629    1.084   .     S
C621   H631    1.084   .     S
C621   C165    1.390   1_556 S
C622   Cl625   1.779   .     S
C622   C873    1.349   1_455 S
C623   Cl626   1.779   .     S
C624   O647    1.303   .     A
C624   O745    1.296   1_455 S
Cl627  N639    1.724   .     S
Cl628  N640    1.724   .     S
H634   C708    1.083   1_455 S
H636   C655    1.084   .     S
N639   Zn650   2.031   .     S
N639   N640    1.294   .     D
N640   Zn649   2.031   .     S
O641   Zn649   1.965   .     S
O641   C651    1.278   .     S
O642   Zn650   1.965   .     S
O642   C712    1.278   1_455 S
O643   Zn650   1.977   .     S
O644   Zn649   1.977   .     S
O645   Zn649   1.957   .     S
O645   C674    1.296   .     S
O646   Zn650   1.957   .     S
O646   C702    1.296   1_455 S
O647   Zn650   1.910   .     S
O648   Zn649   1.910   .     S
C651   C672    1.398   .     S
C651   O693    1.295   .     A
C652   C654    1.449   .     S
C652   O698    1.301   .     A
C652   O746    1.296   .     S
C653   C659    1.389   .     A
C653   C674    1.452   .     S
C654   C658    1.400   .     A
C654   C660    1.385   .     A
C655   C664    1.403   .     A
C656   H687    1.084   .     S
C656   C658    1.394   .     A
C656   C665    1.404   .     A
C657   H685    1.083   .     S
C657   C703    1.399   .     S
C657   C705    1.392   .     S
C658   H734    1.083   .     S
C659   C661    1.393   .     A
C659   H683    1.077   .     S
C660   C663    1.392   .     A
C660   H682    1.079   .     S
C661   C666    1.416   .     A
C661   C664    1.419   .     A
C662   O694    1.295   .     A
C662   C673    1.398   .     S
C662   O742    1.278   .     S
C663   C667    1.414   .     A
C663   C665    1.418   .     A
C664   C220    1.389   1_556 S
C666   C669    1.419   .     A
C666   C217    1.414   1_556 S
C667   C668    1.418   .     A
C668   C670    1.386   .     A
C668   H688    1.078   .     S
C669   H680    1.078   .     S
C669   C671    1.388   .     A
C670   H679    1.084   .     S
C671   H681    1.084   .     S
C671   C215    1.390   1_556 S
C672   Cl675   1.779   .     S
C672   C773    1.349   .     S
C673   Cl676   1.779   .     S
C674   O697    1.303   .     A
Cl677  N689    1.724   .     S
Cl678  N690    1.724   .     S
H686   C705    1.084   .     S
N689   Zn700   2.031   .     S
N689   N690    1.294   .     D
N690   Zn699   2.031   .     S
O691   Zn699   1.965   .     S
O691   C701    1.278   .     S
O692   Zn700   1.965   .     S
O693   Zn700   1.977   .     S
O694   Zn699   1.977   .     S
O695   Zn699   1.957   .     S
O695   C724    1.296   .     S
O696   Zn700   1.957   .     S
O697   Zn700   1.910   .     S
O698   Zn699   1.910   .     S
C701   C722    1.398   .     S
C701   O743    1.295   .     A
C702   C704    1.449   .     S
C702   O748    1.301   .     A
C702   O646    1.296   1_655 S
C703   C709    1.389   .     A
C703   C724    1.452   .     S
C704   C708    1.400   .     A
C704   C710    1.385   .     A
C705   C714    1.403   .     A
C706   H737    1.084   .     S
C706   C708    1.394   .     A
C706   C715    1.404   .     A
C707   H735    1.083   .     S
C707   C603    1.399   1_655 S
C707   C605    1.392   1_655 S
C708   H634    1.083   1_655 S
C709   C711    1.393   .     A
C709   H733    1.077   .     S
C710   C713    1.392   .     A
C710   H732    1.079   .     S
C711   C716    1.416   .     A
C711   C714    1.419   .     A
C712   O744    1.295   .     A
C712   C723    1.398   .     S
C712   O642    1.278   1_655 S
C713   C717    1.414   .     A
C713   C715    1.418   .     A
C714   C270    1.389   1_556 S
C716   C719    1.419   .     A
C716   C267    1.414   1_556 S
C717   C718    1.418   .     A
C718   C720    1.386   .     A
C718   H738    1.078   .     S
C719   H730    1.078   .     S
C719   C721    1.388   .     A
C720   H729    1.084   .     S
C721   H731    1.084   .     S
C721   C265    1.390   1_556 S
C722   Cl725   1.779   .     S
C722   C823    1.349   .     S
C723   Cl726   1.779   .     S
C723   C472    1.349   1_655 S
C724   O747    1.303   .     A
Cl727  N739    1.724   .     S
Cl728  N740    1.724   .     S
H736   C605    1.084   1_655 S
N739   Zn750   2.031   .     S
N739   N740    1.294   .     D
N740   Zn749   2.031   .     S
O741   Zn749   1.965   .     S
O741   C601    1.278   1_655 S
O742   Zn750   1.965   .     S
O743   Zn750   1.977   .     S
O744   Zn749   1.977   .     S
O745   Zn749   1.957   .     S
O745   C624    1.296   1_655 S
O746   Zn750   1.957   .     S
O747   Zn750   1.910   .     S
O748   Zn749   1.910   .     S
C751   C772    1.398   .     S
C751   O793    1.295   .     A
C751   O891    1.278   1_455 S
C752   C754    1.449   .     S
C752   O798    1.301   .     A
C752   O846    1.296   .     S
C753   C759    1.389   .     A
C753   C774    1.452   .     S
C753   C857    1.399   1_455 S
C754   C758    1.400   .     A
C754   C760    1.385   .     A
C755   C764    1.403   .     A
C755   C857    1.392   1_455 S
C755   H886    1.084   1_455 S
C756   H787    1.084   .     S
C756   C758    1.394   .     A
C756   C765    1.404   .     A
C757   H785    1.083   .     S
C757   C803    1.399   .     S
C757   C805    1.392   .     S
C758   H834    1.083   .     S
C759   C761    1.393   .     A
C759   H783    1.077   .     S
C760   C763    1.392   .     A
C760   H782    1.079   .     S
C761   C766    1.416   .     A
C761   C764    1.419   .     A
C762   O794    1.295   .     A
C762   C773    1.398   .     S
C762   O842    1.278   .     S
C763   C767    1.414   .     A
C763   C765    1.418   .     A
C764   C320    1.389   1_556 S
C766   C769    1.419   .     A
C766   C317    1.414   1_556 S
C767   C768    1.418   .     A
C768   C770    1.386   .     A
C768   H788    1.078   .     S
C769   H780    1.078   .     S
C769   C771    1.388   .     A
C770   H779    1.084   .     S
C771   H781    1.084   .     S
C771   C315    1.390   1_556 S
C772   Cl775   1.779   .     S
C772   C573    1.349   1_465 S
C773   Cl776   1.779   .     S
C774   O797    1.303   .     A
C774   O895    1.296   1_455 S
Cl777  N789    1.724   .     S
Cl778  N790    1.724   .     S
H784   C858    1.083   1_455 S
H786   C805    1.084   .     S
N789   Zn800   2.031   .     S
N789   N790    1.294   .     D
N790   Zn799   2.031   .     S
O791   Zn799   1.965   .     S
O791   C801    1.278   .     S
O792   Zn800   1.965   .     S
O792   C862    1.278   1_455 S
O793   Zn800   1.977   .     S
O794   Zn799   1.977   .     S
O795   Zn799   1.957   .     S
O795   C824    1.296   .     S
O796   Zn800   1.957   .     S
O796   C852    1.296   1_455 S
O797   Zn800   1.910   .     S
O798   Zn799   1.910   .     S
C801   C822    1.398   .     S
C801   O843    1.295   .     A
C802   C804    1.449   .     S
C802   O848    1.301   .     A
C802   O896    1.296   .     S
C803   C809    1.389   .     A
C803   C824    1.452   .     S
C804   C808    1.400   .     A
C804   C810    1.385   .     A
C805   C814    1.403   .     A
C806   H837    1.084   .     S
C806   C808    1.394   .     A
C806   C815    1.404   .     A
C807   H835    1.083   .     S
C807   C853    1.399   .     S
C807   C855    1.392   .     S
C808   H884    1.083   .     S
C809   C811    1.393   .     A
C809   H833    1.077   .     S
C810   C813    1.392   .     A
C810   H832    1.079   .     S
C811   C816    1.416   .     A
C811   C814    1.419   .     A
C812   O844    1.295   .     A
C812   C823    1.398   .     S
C812   O892    1.278   .     S
C813   C817    1.414   .     A
C813   C815    1.418   .     A
C814   C370    1.389   1_556 S
C816   C819    1.419   .     A
C816   C367    1.414   1_556 S
C817   C818    1.418   .     A
C818   C820    1.386   .     A
C818   H838    1.078   .     S
C819   H830    1.078   .     S
C819   C821    1.388   .     A
C820   H829    1.084   .     S
C821   H831    1.084   .     S
C821   C365    1.390   1_556 S
C822   Cl825   1.779   .     S
C822   C473    1.349   1_565 S
C823   Cl826   1.779   .     S
C824   O847    1.303   .     A
Cl827  N839    1.724   .     S
Cl828  N840    1.724   .     S
H836   C855    1.084   .     S
N839   Zn850   2.031   .     S
N839   N840    1.294   .     D
N840   Zn849   2.031   .     S
O841   Zn849   1.965   .     S
O841   C851    1.278   .     S
O842   Zn850   1.965   .     S
O843   Zn850   1.977   .     S
O844   Zn849   1.977   .     S
O845   Zn849   1.957   .     S
O845   C874    1.296   .     S
O846   Zn850   1.957   .     S
O847   Zn850   1.910   .     S
O848   Zn849   1.910   .     S
C851   C872    1.398   .     S
C851   O893    1.295   .     A
C852   C854    1.449   .     S
C852   O898    1.301   .     A
C852   O796    1.296   1_655 S
C853   C859    1.389   .     A
C853   C874    1.452   .     S
C854   C858    1.400   .     A
C854   C860    1.385   .     A
C855   C864    1.403   .     A
C856   H887    1.084   .     S
C856   C858    1.394   .     A
C856   C865    1.404   .     A
C857   H885    1.083   .     S
C857   C753    1.399   1_655 S
C857   C755    1.392   1_655 S
C858   H784    1.083   1_655 S
C859   C861    1.393   .     A
C859   H883    1.077   .     S
C860   C863    1.392   .     A
C860   H882    1.079   .     S
C861   C866    1.416   .     A
C861   C864    1.419   .     A
C862   O894    1.295   .     A
C862   C873    1.398   .     S
C862   O792    1.278   1_655 S
C863   C867    1.414   .     A
C863   C865    1.418   .     A
C864   C420    1.389   1_556 S
C866   C869    1.419   .     A
C866   C417    1.414   1_556 S
C867   C868    1.418   .     A
C868   C870    1.386   .     A
C868   H888    1.078   .     S
C869   H880    1.078   .     S
C869   C871    1.388   .     A
C870   H879    1.084   .     S
C871   H881    1.084   .     S
C871   C415    1.390   1_556 S
C872   Cl875   1.779   .     S
C872   C523    1.349   1_565 S
C873   Cl876   1.779   .     S
C873   C622    1.349   1_655 S
C874   O897    1.303   .     A
Cl877  N889    1.724   .     S
Cl878  N890    1.724   .     S
H886   C755    1.084   1_655 S
N889   Zn900   2.031   .     S
N889   N890    1.294   .     D
N890   Zn899   2.031   .     S
O891   Zn899   1.965   .     S
O891   C751    1.278   1_655 S
O892   Zn900   1.965   .     S
O893   Zn900   1.977   .     S
O894   Zn899   1.977   .     S
O895   Zn899   1.957   .     S
O895   C774    1.296   1_655 S
O896   Zn900   1.957   .     S
O897   Zn900   1.910   .     S
O898   Zn899   1.910   .     S
