data_str_m3_o1_o2_pcu_sym.120
_audit_creation_date              2020-01-03
_audit_creation_method            'Materials Studio'
_symmetry_space_group_name_H-M    'P1'
_symmetry_Int_Tables_number       1
_symmetry_cell_setting            triclinic
loop_
_symmetry_equiv_pos_as_xyz
  x,y,z
_cell_length_a                    32.0672
_cell_length_b                    29.8047
_cell_length_c                    29.9171
_cell_angle_alpha                 88.9670
_cell_angle_beta                  91.0020
_cell_angle_gamma                 89.5694
loop_
_atom_site_label
_atom_site_type_symbol
_atom_site_fract_x
_atom_site_fract_y
_atom_site_fract_z
_atom_site_U_iso_or_equiv
_atom_site_adp_type
_atom_site_occupancy
C1     C     0.08674   0.16678   0.24979   0.00000  Uiso   1.00
C2     C     0.24660   0.16655   0.25021   0.00000  Uiso   1.00
C3     C     0.16634   0.16711   0.16427   0.00000  Uiso   1.00
C4     C     0.16685   0.16638   0.33573   0.00000  Uiso   1.00
C5     C     0.19018   0.02251   0.28071   0.00000  Uiso   1.00
C6     C     0.14313   0.31072   0.21928   0.00000  Uiso   1.00
C7     C     0.14289   0.02514   0.21979   0.00000  Uiso   1.00
C8     C     0.19041   0.30808   0.28027   0.00000  Uiso   1.00
C9     C     0.02140   0.12839   0.23634   0.00000  Uiso   1.00
C10    C     0.31194   0.20496   0.26366   0.00000  Uiso   1.00
C11    C     0.31202   0.12817   0.23673   0.00000  Uiso   1.00
C12    C     0.02133   0.20517   0.26331   0.00000  Uiso   1.00
C13    C     0.20099   0.18363   0.04776   0.00000  Uiso   1.00
C14    C     0.20181   0.15442   0.45400   0.00000  Uiso   1.00
C15    C     0.13011   0.18171   0.45107   0.00000  Uiso   1.00
C16    C     0.12985   0.15582   0.04694   0.00000  Uiso   1.00
C17    C     0.20163   0.18269   0.09397   0.00000  Uiso   1.00
C18    C     0.20265   0.15412   0.40785   0.00000  Uiso   1.00
C19    C     0.12992   0.18012   0.40493   0.00000  Uiso   1.00
C20    C     0.12944   0.15619   0.09310   0.00000  Uiso   1.00
C21    C     0.16587   0.16840   0.11656   0.00000  Uiso   1.00
C22    C     0.16630   0.16612   0.38341   0.00000  Uiso   1.00
C23    C     0.16551   0.16941   0.02418   0.00000  Uiso   1.00
C24    C     0.16579   0.16850   0.47570   0.00000  Uiso   1.00
C25    C     0.29080   0.16647   0.25033   0.00000  Uiso   1.00
C26    C     0.04255   0.16687   0.24968   0.00000  Uiso   1.00
H27    H     0.22826   0.19541   0.03034   0.00000  Uiso   1.00
H28    H     0.22944   0.14382   0.47283   0.00000  Uiso   1.00
H29    H     0.10245   0.19363   0.46759   0.00000  Uiso   1.00
H30    H     0.10230   0.14471   0.02895   0.00000  Uiso   1.00
H31    H     0.03776   0.09874   0.22536   0.00000  Uiso   1.00
H32    H     0.29559   0.23462   0.27461   0.00000  Uiso   1.00
H33    H     0.29571   0.09842   0.22598   0.00000  Uiso   1.00
H34    H     0.03764   0.23490   0.27410   0.00000  Uiso   1.00
N35    N     0.16667   0.28573   0.25000   0.00000  Uiso   1.00
N36    N     0.16667   0.04760   0.25000   0.00000  Uiso   1.00
O37    O     0.10559   0.20487   0.25000   0.00000  Uiso   1.00
O38    O     0.22774   0.12846   0.25001   0.00000  Uiso   1.00
O39    O     0.22774   0.20487   0.25001   0.00000  Uiso   1.00
O40    O     0.10559   0.12846   0.24999   0.00000  Uiso   1.00
O41    O     0.16666   0.20489   0.18453   0.00000  Uiso   1.00
O42    O     0.16667   0.12845   0.31547   0.00000  Uiso   1.00
O43    O     0.16667   0.20489   0.31547   0.00000  Uiso   1.00
O44    O     0.16666   0.12845   0.18453   0.00000  Uiso   1.00
Zn45   Zn    0.16667   0.21771   0.25000   0.00000  Uiso   1.00
Zn46   Zn    0.16667   0.11563   0.25000   0.00000  Uiso   1.00
N47    N     0.21405   0.04345   0.31508   0.00000  Uiso   1.00
H48    H     0.19357   0.05744   0.33772   0.00000  Uiso   1.00
H49    H     0.23333   0.06762   0.30113   0.00000  Uiso   1.00
N50    N     0.11906   0.28965   0.18502   0.00000  Uiso   1.00
H51    H     0.13921   0.27536   0.16223   0.00000  Uiso   1.00
H52    H     0.09960   0.26565   0.19900   0.00000  Uiso   1.00
N53    N     0.11763   0.05025   0.18835   0.00000  Uiso   1.00
H54    H     0.12681   0.04189   0.15616   0.00000  Uiso   1.00
H55    H     0.08662   0.04050   0.19214   0.00000  Uiso   1.00
N56    N     0.21554   0.28279   0.31182   0.00000  Uiso   1.00
H57    H     0.20616   0.29086   0.34400   0.00000  Uiso   1.00
H58    H     0.24655   0.29259   0.30830   0.00000  Uiso   1.00
N59    N     0.23896   0.19581   0.11723   0.00000  Uiso   1.00
H60    H     0.24877   0.16929   0.13832   0.00000  Uiso   1.00
H61    H     0.23209   0.22345   0.13689   0.00000  Uiso   1.00
N62    N     0.24108   0.14332   0.38660   0.00000  Uiso   1.00
H63    H     0.23648   0.11523   0.36691   0.00000  Uiso   1.00
H64    H     0.24917   0.17026   0.36569   0.00000  Uiso   1.00
N65    N     0.09256   0.19276   0.38065   0.00000  Uiso   1.00
H66    H     0.08367   0.16607   0.36046   0.00000  Uiso   1.00
H67    H     0.09896   0.22043   0.36001   0.00000  Uiso   1.00
N68    N     0.09143   0.14551   0.11532   0.00000  Uiso   1.00
H69    H     0.09671   0.11768   0.13630   0.00000  Uiso   1.00
H70    H     0.08315   0.17265   0.13507   0.00000  Uiso   1.00
C71    C     0.42007   0.16678   0.24979   0.00000  Uiso   1.00
C72    C     0.57993   0.16655   0.25021   0.00000  Uiso   1.00
C73    C     0.49968   0.16711   0.16427   0.00000  Uiso   1.00
C74    C     0.50018   0.16638   0.33573   0.00000  Uiso   1.00
C75    C     0.52351   0.02251   0.28071   0.00000  Uiso   1.00
C76    C     0.47646   0.31072   0.21928   0.00000  Uiso   1.00
C77    C     0.47622   0.02514   0.21979   0.00000  Uiso   1.00
C78    C     0.52374   0.30808   0.28027   0.00000  Uiso   1.00
C79    C     0.35473   0.12839   0.23634   0.00000  Uiso   1.00
C80    C     0.64528   0.20496   0.26366   0.00000  Uiso   1.00
C81    C     0.64535   0.12817   0.23673   0.00000  Uiso   1.00
C82    C     0.35466   0.20517   0.26331   0.00000  Uiso   1.00
C83    C     0.53432   0.18363   0.04776   0.00000  Uiso   1.00
C84    C     0.53515   0.15442   0.45400   0.00000  Uiso   1.00
C85    C     0.46344   0.18171   0.45107   0.00000  Uiso   1.00
C86    C     0.46318   0.15582   0.04694   0.00000  Uiso   1.00
C87    C     0.53497   0.18269   0.09397   0.00000  Uiso   1.00
C88    C     0.53598   0.15412   0.40785   0.00000  Uiso   1.00
C89    C     0.46325   0.18012   0.40493   0.00000  Uiso   1.00
C90    C     0.46278   0.15619   0.09310   0.00000  Uiso   1.00
C91    C     0.49921   0.16840   0.11656   0.00000  Uiso   1.00
C92    C     0.49963   0.16612   0.38341   0.00000  Uiso   1.00
C93    C     0.49884   0.16941   0.02418   0.00000  Uiso   1.00
C94    C     0.49913   0.16850   0.47570   0.00000  Uiso   1.00
C95    C     0.62413   0.16647   0.25033   0.00000  Uiso   1.00
C96    C     0.37588   0.16687   0.24968   0.00000  Uiso   1.00
H97    H     0.56160   0.19541   0.03034   0.00000  Uiso   1.00
H98    H     0.56277   0.14382   0.47283   0.00000  Uiso   1.00
H99    H     0.43579   0.19363   0.46759   0.00000  Uiso   1.00
H100   H     0.43563   0.14471   0.02895   0.00000  Uiso   1.00
H101   H     0.37109   0.09874   0.22536   0.00000  Uiso   1.00
H102   H     0.62892   0.23462   0.27461   0.00000  Uiso   1.00
H103   H     0.62904   0.09842   0.22598   0.00000  Uiso   1.00
H104   H     0.37098   0.23490   0.27410   0.00000  Uiso   1.00
N105   N     0.50000   0.28573   0.25000   0.00000  Uiso   1.00
N106   N     0.50000   0.04760   0.25000   0.00000  Uiso   1.00
O107   O     0.43892   0.20487   0.25000   0.00000  Uiso   1.00
O108   O     0.56108   0.12846   0.25001   0.00000  Uiso   1.00
O109   O     0.56108   0.20487   0.25001   0.00000  Uiso   1.00
O110   O     0.43892   0.12846   0.24999   0.00000  Uiso   1.00
O111   O     0.50000   0.20489   0.18453   0.00000  Uiso   1.00
O112   O     0.50000   0.12845   0.31547   0.00000  Uiso   1.00
O113   O     0.50000   0.20489   0.31547   0.00000  Uiso   1.00
O114   O     0.50000   0.12845   0.18453   0.00000  Uiso   1.00
Zn115  Zn    0.50000   0.21771   0.25000   0.00000  Uiso   1.00
Zn116  Zn    0.50000   0.11563   0.25000   0.00000  Uiso   1.00
N117   N     0.54738   0.04345   0.31508   0.00000  Uiso   1.00
H118   H     0.52690   0.05744   0.33772   0.00000  Uiso   1.00
H119   H     0.56666   0.06762   0.30113   0.00000  Uiso   1.00
N120   N     0.45239   0.28965   0.18502   0.00000  Uiso   1.00
H121   H     0.47254   0.27536   0.16223   0.00000  Uiso   1.00
H122   H     0.43294   0.26565   0.19900   0.00000  Uiso   1.00
N123   N     0.45096   0.05025   0.18835   0.00000  Uiso   1.00
H124   H     0.46014   0.04189   0.15616   0.00000  Uiso   1.00
H125   H     0.41996   0.04050   0.19214   0.00000  Uiso   1.00
N126   N     0.54887   0.28279   0.31182   0.00000  Uiso   1.00
H127   H     0.53949   0.29086   0.34400   0.00000  Uiso   1.00
H128   H     0.57989   0.29259   0.30830   0.00000  Uiso   1.00
N129   N     0.57230   0.19581   0.11723   0.00000  Uiso   1.00
H130   H     0.58210   0.16929   0.13832   0.00000  Uiso   1.00
H131   H     0.56542   0.22345   0.13689   0.00000  Uiso   1.00
N132   N     0.57442   0.14332   0.38660   0.00000  Uiso   1.00
H133   H     0.56982   0.11523   0.36691   0.00000  Uiso   1.00
H134   H     0.58250   0.17026   0.36569   0.00000  Uiso   1.00
N135   N     0.42589   0.19276   0.38065   0.00000  Uiso   1.00
H136   H     0.41700   0.16607   0.36046   0.00000  Uiso   1.00
H137   H     0.43229   0.22043   0.36001   0.00000  Uiso   1.00
N138   N     0.42477   0.14551   0.11532   0.00000  Uiso   1.00
H139   H     0.43005   0.11768   0.13630   0.00000  Uiso   1.00
H140   H     0.41649   0.17265   0.13507   0.00000  Uiso   1.00
C141   C     0.75340   0.16678   0.24979   0.00000  Uiso   1.00
C142   C     0.91326   0.16655   0.25021   0.00000  Uiso   1.00
C143   C     0.83301   0.16711   0.16427   0.00000  Uiso   1.00
C144   C     0.83351   0.16638   0.33573   0.00000  Uiso   1.00
C145   C     0.85684   0.02251   0.28071   0.00000  Uiso   1.00
C146   C     0.80980   0.31072   0.21928   0.00000  Uiso   1.00
C147   C     0.80955   0.02514   0.21979   0.00000  Uiso   1.00
C148   C     0.85708   0.30808   0.28027   0.00000  Uiso   1.00
C149   C     0.68807   0.12839   0.23634   0.00000  Uiso   1.00
C150   C     0.97861   0.20496   0.26366   0.00000  Uiso   1.00
C151   C     0.97868   0.12817   0.23673   0.00000  Uiso   1.00
C152   C     0.68799   0.20517   0.26331   0.00000  Uiso   1.00
C153   C     0.86765   0.18363   0.04776   0.00000  Uiso   1.00
C154   C     0.86848   0.15442   0.45400   0.00000  Uiso   1.00
C155   C     0.79678   0.18171   0.45107   0.00000  Uiso   1.00
C156   C     0.79652   0.15582   0.04694   0.00000  Uiso   1.00
C157   C     0.86830   0.18269   0.09397   0.00000  Uiso   1.00
C158   C     0.86932   0.15412   0.40785   0.00000  Uiso   1.00
C159   C     0.79659   0.18012   0.40493   0.00000  Uiso   1.00
C160   C     0.79611   0.15619   0.09310   0.00000  Uiso   1.00
C161   C     0.83254   0.16840   0.11656   0.00000  Uiso   1.00
C162   C     0.83296   0.16612   0.38341   0.00000  Uiso   1.00
C163   C     0.83218   0.16941   0.02418   0.00000  Uiso   1.00
C164   C     0.83246   0.16850   0.47570   0.00000  Uiso   1.00
C165   C     0.95746   0.16647   0.25033   0.00000  Uiso   1.00
C166   C     0.70921   0.16687   0.24968   0.00000  Uiso   1.00
H167   H     0.89493   0.19541   0.03034   0.00000  Uiso   1.00
H168   H     0.89611   0.14382   0.47283   0.00000  Uiso   1.00
H169   H     0.76912   0.19363   0.46759   0.00000  Uiso   1.00
H170   H     0.76897   0.14471   0.02895   0.00000  Uiso   1.00
H171   H     0.70442   0.09874   0.22536   0.00000  Uiso   1.00
H172   H     0.96225   0.23462   0.27461   0.00000  Uiso   1.00
H173   H     0.96237   0.09842   0.22598   0.00000  Uiso   1.00
H174   H     0.70431   0.23490   0.27410   0.00000  Uiso   1.00
N175   N     0.83333   0.28573   0.25000   0.00000  Uiso   1.00
N176   N     0.83333   0.04760   0.25000   0.00000  Uiso   1.00
O177   O     0.77226   0.20487   0.25000   0.00000  Uiso   1.00
O178   O     0.89441   0.12846   0.25001   0.00000  Uiso   1.00
O179   O     0.89441   0.20487   0.25001   0.00000  Uiso   1.00
O180   O     0.77226   0.12846   0.24999   0.00000  Uiso   1.00
O181   O     0.83333   0.20489   0.18453   0.00000  Uiso   1.00
O182   O     0.83334   0.12845   0.31547   0.00000  Uiso   1.00
O183   O     0.83334   0.20489   0.31547   0.00000  Uiso   1.00
O184   O     0.83333   0.12845   0.18453   0.00000  Uiso   1.00
Zn185  Zn    0.83333   0.21771   0.25000   0.00000  Uiso   1.00
Zn186  Zn    0.83333   0.11563   0.25000   0.00000  Uiso   1.00
N187   N     0.88072   0.04345   0.31508   0.00000  Uiso   1.00
H188   H     0.86023   0.05744   0.33772   0.00000  Uiso   1.00
H189   H     0.90000   0.06762   0.30113   0.00000  Uiso   1.00
N190   N     0.78572   0.28965   0.18502   0.00000  Uiso   1.00
H191   H     0.80587   0.27536   0.16223   0.00000  Uiso   1.00
H192   H     0.76627   0.26565   0.19900   0.00000  Uiso   1.00
N193   N     0.78429   0.05025   0.18835   0.00000  Uiso   1.00
H194   H     0.79347   0.04189   0.15616   0.00000  Uiso   1.00
H195   H     0.75329   0.04050   0.19214   0.00000  Uiso   1.00
N196   N     0.88220   0.28279   0.31182   0.00000  Uiso   1.00
H197   H     0.87282   0.29086   0.34400   0.00000  Uiso   1.00
H198   H     0.91322   0.29259   0.30830   0.00000  Uiso   1.00
N199   N     0.90563   0.19581   0.11723   0.00000  Uiso   1.00
H200   H     0.91544   0.16929   0.13832   0.00000  Uiso   1.00
H201   H     0.89875   0.22345   0.13689   0.00000  Uiso   1.00
N202   N     0.90775   0.14332   0.38660   0.00000  Uiso   1.00
H203   H     0.90315   0.11523   0.36691   0.00000  Uiso   1.00
H204   H     0.91583   0.17026   0.36569   0.00000  Uiso   1.00
N205   N     0.75922   0.19276   0.38065   0.00000  Uiso   1.00
H206   H     0.75033   0.16607   0.36046   0.00000  Uiso   1.00
H207   H     0.76562   0.22043   0.36001   0.00000  Uiso   1.00
N208   N     0.75810   0.14551   0.11532   0.00000  Uiso   1.00
H209   H     0.76338   0.11768   0.13630   0.00000  Uiso   1.00
H210   H     0.74982   0.17265   0.13507   0.00000  Uiso   1.00
C211   C     0.08674   0.50011   0.24979   0.00000  Uiso   1.00
C212   C     0.24660   0.49989   0.25021   0.00000  Uiso   1.00
C213   C     0.16634   0.50044   0.16427   0.00000  Uiso   1.00
C214   C     0.16685   0.49972   0.33573   0.00000  Uiso   1.00
C215   C     0.19018   0.35584   0.28071   0.00000  Uiso   1.00
C216   C     0.14313   0.64405   0.21928   0.00000  Uiso   1.00
C217   C     0.14289   0.35847   0.21979   0.00000  Uiso   1.00
C218   C     0.19041   0.64141   0.28027   0.00000  Uiso   1.00
C219   C     0.02140   0.46172   0.23634   0.00000  Uiso   1.00
C220   C     0.31194   0.53829   0.26366   0.00000  Uiso   1.00
C221   C     0.31202   0.46150   0.23673   0.00000  Uiso   1.00
C222   C     0.02133   0.53850   0.26331   0.00000  Uiso   1.00
C223   C     0.20099   0.51696   0.04776   0.00000  Uiso   1.00
C224   C     0.20181   0.48775   0.45400   0.00000  Uiso   1.00
C225   C     0.13011   0.51505   0.45107   0.00000  Uiso   1.00
C226   C     0.12985   0.48915   0.04694   0.00000  Uiso   1.00
C227   C     0.20163   0.51602   0.09397   0.00000  Uiso   1.00
C228   C     0.20265   0.48745   0.40785   0.00000  Uiso   1.00
C229   C     0.12992   0.51346   0.40493   0.00000  Uiso   1.00
C230   C     0.12944   0.48952   0.09310   0.00000  Uiso   1.00
C231   C     0.16587   0.50173   0.11656   0.00000  Uiso   1.00
C232   C     0.16630   0.49945   0.38341   0.00000  Uiso   1.00
C233   C     0.16551   0.50275   0.02418   0.00000  Uiso   1.00
C234   C     0.16579   0.50183   0.47570   0.00000  Uiso   1.00
C235   C     0.29080   0.49981   0.25033   0.00000  Uiso   1.00
C236   C     0.04255   0.50020   0.24968   0.00000  Uiso   1.00
H237   H     0.22826   0.52874   0.03034   0.00000  Uiso   1.00
H238   H     0.22944   0.47716   0.47283   0.00000  Uiso   1.00
H239   H     0.10245   0.52696   0.46759   0.00000  Uiso   1.00
H240   H     0.10230   0.47805   0.02895   0.00000  Uiso   1.00
H241   H     0.03776   0.43208   0.22536   0.00000  Uiso   1.00
H242   H     0.29559   0.56795   0.27461   0.00000  Uiso   1.00
H243   H     0.29571   0.43175   0.22598   0.00000  Uiso   1.00
H244   H     0.03764   0.56823   0.27410   0.00000  Uiso   1.00
N245   N     0.16667   0.61907   0.25000   0.00000  Uiso   1.00
N246   N     0.16667   0.38093   0.25000   0.00000  Uiso   1.00
O247   O     0.10559   0.53821   0.25000   0.00000  Uiso   1.00
O248   O     0.22774   0.46179   0.25001   0.00000  Uiso   1.00
O249   O     0.22774   0.53821   0.25001   0.00000  Uiso   1.00
O250   O     0.10559   0.46179   0.24999   0.00000  Uiso   1.00
O251   O     0.16666   0.53822   0.18453   0.00000  Uiso   1.00
O252   O     0.16667   0.46178   0.31547   0.00000  Uiso   1.00
O253   O     0.16667   0.53822   0.31547   0.00000  Uiso   1.00
O254   O     0.16666   0.46178   0.18453   0.00000  Uiso   1.00
Zn255  Zn    0.16667   0.55104   0.25000   0.00000  Uiso   1.00
Zn256  Zn    0.16667   0.44896   0.25000   0.00000  Uiso   1.00
N257   N     0.21405   0.37678   0.31508   0.00000  Uiso   1.00
H258   H     0.19357   0.39078   0.33772   0.00000  Uiso   1.00
H259   H     0.23333   0.40096   0.30113   0.00000  Uiso   1.00
N260   N     0.11906   0.62298   0.18502   0.00000  Uiso   1.00
H261   H     0.13921   0.60869   0.16223   0.00000  Uiso   1.00
H262   H     0.09960   0.59899   0.19900   0.00000  Uiso   1.00
N263   N     0.11763   0.38358   0.18835   0.00000  Uiso   1.00
H264   H     0.12681   0.37522   0.15616   0.00000  Uiso   1.00
H265   H     0.08662   0.37383   0.19214   0.00000  Uiso   1.00
N266   N     0.21554   0.61612   0.31182   0.00000  Uiso   1.00
H267   H     0.20616   0.62420   0.34400   0.00000  Uiso   1.00
H268   H     0.24655   0.62592   0.30830   0.00000  Uiso   1.00
N269   N     0.23896   0.52915   0.11723   0.00000  Uiso   1.00
H270   H     0.24877   0.50262   0.13832   0.00000  Uiso   1.00
H271   H     0.23209   0.55678   0.13689   0.00000  Uiso   1.00
N272   N     0.24108   0.47665   0.38660   0.00000  Uiso   1.00
H273   H     0.23648   0.44857   0.36691   0.00000  Uiso   1.00
H274   H     0.24917   0.50359   0.36569   0.00000  Uiso   1.00
N275   N     0.09256   0.52609   0.38065   0.00000  Uiso   1.00
H276   H     0.08367   0.49940   0.36046   0.00000  Uiso   1.00
H277   H     0.09896   0.55376   0.36001   0.00000  Uiso   1.00
N278   N     0.09143   0.47884   0.11532   0.00000  Uiso   1.00
H279   H     0.09671   0.45102   0.13630   0.00000  Uiso   1.00
H280   H     0.08315   0.50598   0.13507   0.00000  Uiso   1.00
C281   C     0.42007   0.50011   0.24979   0.00000  Uiso   1.00
C282   C     0.57993   0.49989   0.25021   0.00000  Uiso   1.00
C283   C     0.49968   0.50044   0.16427   0.00000  Uiso   1.00
C284   C     0.50018   0.49972   0.33573   0.00000  Uiso   1.00
C285   C     0.52351   0.35584   0.28071   0.00000  Uiso   1.00
C286   C     0.47646   0.64405   0.21928   0.00000  Uiso   1.00
C287   C     0.47622   0.35847   0.21979   0.00000  Uiso   1.00
C288   C     0.52374   0.64141   0.28027   0.00000  Uiso   1.00
C289   C     0.35473   0.46172   0.23634   0.00000  Uiso   1.00
C290   C     0.64528   0.53829   0.26366   0.00000  Uiso   1.00
C291   C     0.64535   0.46150   0.23673   0.00000  Uiso   1.00
C292   C     0.35466   0.53850   0.26331   0.00000  Uiso   1.00
C293   C     0.53432   0.51696   0.04776   0.00000  Uiso   1.00
C294   C     0.53515   0.48775   0.45400   0.00000  Uiso   1.00
C295   C     0.46344   0.51505   0.45107   0.00000  Uiso   1.00
C296   C     0.46318   0.48915   0.04694   0.00000  Uiso   1.00
C297   C     0.53497   0.51602   0.09397   0.00000  Uiso   1.00
C298   C     0.53598   0.48745   0.40785   0.00000  Uiso   1.00
C299   C     0.46325   0.51346   0.40493   0.00000  Uiso   1.00
C300   C     0.46278   0.48952   0.09310   0.00000  Uiso   1.00
C301   C     0.49921   0.50173   0.11656   0.00000  Uiso   1.00
C302   C     0.49963   0.49945   0.38341   0.00000  Uiso   1.00
C303   C     0.49884   0.50275   0.02418   0.00000  Uiso   1.00
C304   C     0.49913   0.50183   0.47570   0.00000  Uiso   1.00
C305   C     0.62413   0.49981   0.25033   0.00000  Uiso   1.00
C306   C     0.37588   0.50020   0.24968   0.00000  Uiso   1.00
H307   H     0.56160   0.52874   0.03034   0.00000  Uiso   1.00
H308   H     0.56277   0.47716   0.47283   0.00000  Uiso   1.00
H309   H     0.43579   0.52696   0.46759   0.00000  Uiso   1.00
H310   H     0.43563   0.47805   0.02895   0.00000  Uiso   1.00
H311   H     0.37109   0.43208   0.22536   0.00000  Uiso   1.00
H312   H     0.62892   0.56795   0.27461   0.00000  Uiso   1.00
H313   H     0.62904   0.43175   0.22598   0.00000  Uiso   1.00
H314   H     0.37098   0.56823   0.27410   0.00000  Uiso   1.00
N315   N     0.50000   0.61907   0.25000   0.00000  Uiso   1.00
N316   N     0.50000   0.38093   0.25000   0.00000  Uiso   1.00
O317   O     0.43892   0.53821   0.25000   0.00000  Uiso   1.00
O318   O     0.56108   0.46179   0.25001   0.00000  Uiso   1.00
O319   O     0.56108   0.53821   0.25001   0.00000  Uiso   1.00
O320   O     0.43892   0.46179   0.24999   0.00000  Uiso   1.00
O321   O     0.50000   0.53822   0.18453   0.00000  Uiso   1.00
O322   O     0.50000   0.46178   0.31547   0.00000  Uiso   1.00
O323   O     0.50000   0.53822   0.31547   0.00000  Uiso   1.00
O324   O     0.50000   0.46178   0.18453   0.00000  Uiso   1.00
Zn325  Zn    0.50000   0.55104   0.25000   0.00000  Uiso   1.00
Zn326  Zn    0.50000   0.44896   0.25000   0.00000  Uiso   1.00
N327   N     0.54738   0.37678   0.31508   0.00000  Uiso   1.00
H328   H     0.52690   0.39078   0.33772   0.00000  Uiso   1.00
H329   H     0.56666   0.40096   0.30113   0.00000  Uiso   1.00
N330   N     0.45239   0.62298   0.18502   0.00000  Uiso   1.00
H331   H     0.47254   0.60869   0.16223   0.00000  Uiso   1.00
H332   H     0.43294   0.59899   0.19900   0.00000  Uiso   1.00
N333   N     0.45096   0.38358   0.18835   0.00000  Uiso   1.00
H334   H     0.46014   0.37522   0.15616   0.00000  Uiso   1.00
H335   H     0.41996   0.37383   0.19214   0.00000  Uiso   1.00
N336   N     0.54887   0.61612   0.31182   0.00000  Uiso   1.00
H337   H     0.53949   0.62420   0.34400   0.00000  Uiso   1.00
H338   H     0.57989   0.62592   0.30830   0.00000  Uiso   1.00
N339   N     0.57230   0.52915   0.11723   0.00000  Uiso   1.00
H340   H     0.58210   0.50262   0.13832   0.00000  Uiso   1.00
H341   H     0.56542   0.55678   0.13689   0.00000  Uiso   1.00
N342   N     0.57442   0.47665   0.38660   0.00000  Uiso   1.00
H343   H     0.56982   0.44857   0.36691   0.00000  Uiso   1.00
H344   H     0.58250   0.50359   0.36569   0.00000  Uiso   1.00
N345   N     0.42589   0.52609   0.38065   0.00000  Uiso   1.00
H346   H     0.41700   0.49940   0.36046   0.00000  Uiso   1.00
H347   H     0.43229   0.55376   0.36001   0.00000  Uiso   1.00
N348   N     0.42477   0.47884   0.11532   0.00000  Uiso   1.00
H349   H     0.43005   0.45102   0.13630   0.00000  Uiso   1.00
H350   H     0.41649   0.50598   0.13507   0.00000  Uiso   1.00
C351   C     0.75340   0.50011   0.24979   0.00000  Uiso   1.00
C352   C     0.91326   0.49989   0.25021   0.00000  Uiso   1.00
C353   C     0.83301   0.50044   0.16427   0.00000  Uiso   1.00
C354   C     0.83351   0.49972   0.33573   0.00000  Uiso   1.00
C355   C     0.85684   0.35584   0.28071   0.00000  Uiso   1.00
C356   C     0.80980   0.64405   0.21928   0.00000  Uiso   1.00
C357   C     0.80955   0.35847   0.21979   0.00000  Uiso   1.00
C358   C     0.85708   0.64141   0.28027   0.00000  Uiso   1.00
C359   C     0.68807   0.46172   0.23634   0.00000  Uiso   1.00
C360   C     0.97861   0.53829   0.26366   0.00000  Uiso   1.00
C361   C     0.97868   0.46150   0.23673   0.00000  Uiso   1.00
C362   C     0.68799   0.53850   0.26331   0.00000  Uiso   1.00
C363   C     0.86765   0.51696   0.04776   0.00000  Uiso   1.00
C364   C     0.86848   0.48775   0.45400   0.00000  Uiso   1.00
C365   C     0.79678   0.51505   0.45107   0.00000  Uiso   1.00
C366   C     0.79652   0.48915   0.04694   0.00000  Uiso   1.00
C367   C     0.86830   0.51602   0.09397   0.00000  Uiso   1.00
C368   C     0.86932   0.48745   0.40785   0.00000  Uiso   1.00
C369   C     0.79659   0.51346   0.40493   0.00000  Uiso   1.00
C370   C     0.79611   0.48952   0.09310   0.00000  Uiso   1.00
C371   C     0.83254   0.50173   0.11656   0.00000  Uiso   1.00
C372   C     0.83296   0.49945   0.38341   0.00000  Uiso   1.00
C373   C     0.83218   0.50275   0.02418   0.00000  Uiso   1.00
C374   C     0.83246   0.50183   0.47570   0.00000  Uiso   1.00
C375   C     0.95746   0.49981   0.25033   0.00000  Uiso   1.00
C376   C     0.70921   0.50020   0.24968   0.00000  Uiso   1.00
H377   H     0.89493   0.52874   0.03034   0.00000  Uiso   1.00
H378   H     0.89611   0.47716   0.47283   0.00000  Uiso   1.00
H379   H     0.76912   0.52696   0.46759   0.00000  Uiso   1.00
H380   H     0.76897   0.47805   0.02895   0.00000  Uiso   1.00
H381   H     0.70442   0.43208   0.22536   0.00000  Uiso   1.00
H382   H     0.96225   0.56795   0.27461   0.00000  Uiso   1.00
H383   H     0.96237   0.43175   0.22598   0.00000  Uiso   1.00
H384   H     0.70431   0.56823   0.27410   0.00000  Uiso   1.00
N385   N     0.83333   0.61907   0.25000   0.00000  Uiso   1.00
N386   N     0.83333   0.38093   0.25000   0.00000  Uiso   1.00
O387   O     0.77226   0.53821   0.25000   0.00000  Uiso   1.00
O388   O     0.89441   0.46179   0.25001   0.00000  Uiso   1.00
O389   O     0.89441   0.53821   0.25001   0.00000  Uiso   1.00
O390   O     0.77226   0.46179   0.24999   0.00000  Uiso   1.00
O391   O     0.83333   0.53822   0.18453   0.00000  Uiso   1.00
O392   O     0.83334   0.46178   0.31547   0.00000  Uiso   1.00
O393   O     0.83334   0.53822   0.31547   0.00000  Uiso   1.00
O394   O     0.83333   0.46178   0.18453   0.00000  Uiso   1.00
Zn395  Zn    0.83333   0.55104   0.25000   0.00000  Uiso   1.00
Zn396  Zn    0.83333   0.44896   0.25000   0.00000  Uiso   1.00
N397   N     0.88072   0.37678   0.31508   0.00000  Uiso   1.00
H398   H     0.86023   0.39078   0.33772   0.00000  Uiso   1.00
H399   H     0.90000   0.40096   0.30113   0.00000  Uiso   1.00
N400   N     0.78572   0.62298   0.18502   0.00000  Uiso   1.00
H401   H     0.80587   0.60869   0.16223   0.00000  Uiso   1.00
H402   H     0.76627   0.59899   0.19900   0.00000  Uiso   1.00
N403   N     0.78429   0.38358   0.18835   0.00000  Uiso   1.00
H404   H     0.79347   0.37522   0.15616   0.00000  Uiso   1.00
H405   H     0.75329   0.37383   0.19214   0.00000  Uiso   1.00
N406   N     0.88220   0.61612   0.31182   0.00000  Uiso   1.00
H407   H     0.87282   0.62420   0.34400   0.00000  Uiso   1.00
H408   H     0.91322   0.62592   0.30830   0.00000  Uiso   1.00
N409   N     0.90563   0.52915   0.11723   0.00000  Uiso   1.00
H410   H     0.91544   0.50262   0.13832   0.00000  Uiso   1.00
H411   H     0.89875   0.55678   0.13689   0.00000  Uiso   1.00
N412   N     0.90775   0.47665   0.38660   0.00000  Uiso   1.00
H413   H     0.90315   0.44857   0.36691   0.00000  Uiso   1.00
H414   H     0.91583   0.50359   0.36569   0.00000  Uiso   1.00
N415   N     0.75922   0.52609   0.38065   0.00000  Uiso   1.00
H416   H     0.75033   0.49940   0.36046   0.00000  Uiso   1.00
H417   H     0.76562   0.55376   0.36001   0.00000  Uiso   1.00
N418   N     0.75810   0.47884   0.11532   0.00000  Uiso   1.00
H419   H     0.76338   0.45102   0.13630   0.00000  Uiso   1.00
H420   H     0.74982   0.50598   0.13507   0.00000  Uiso   1.00
C421   C     0.08674   0.83345   0.24979   0.00000  Uiso   1.00
C422   C     0.24660   0.83322   0.25021   0.00000  Uiso   1.00
C423   C     0.16634   0.83377   0.16427   0.00000  Uiso   1.00
C424   C     0.16685   0.83305   0.33573   0.00000  Uiso   1.00
C425   C     0.19018   0.68917   0.28071   0.00000  Uiso   1.00
C426   C     0.14313   0.97738   0.21928   0.00000  Uiso   1.00
C427   C     0.14289   0.69181   0.21979   0.00000  Uiso   1.00
C428   C     0.19041   0.97474   0.28027   0.00000  Uiso   1.00
C429   C     0.02140   0.79505   0.23634   0.00000  Uiso   1.00
C430   C     0.31194   0.87163   0.26366   0.00000  Uiso   1.00
C431   C     0.31202   0.79483   0.23673   0.00000  Uiso   1.00
C432   C     0.02133   0.87183   0.26331   0.00000  Uiso   1.00
C433   C     0.20099   0.85029   0.04776   0.00000  Uiso   1.00
C434   C     0.20181   0.82109   0.45400   0.00000  Uiso   1.00
C435   C     0.13011   0.84838   0.45107   0.00000  Uiso   1.00
C436   C     0.12985   0.82249   0.04694   0.00000  Uiso   1.00
C437   C     0.20163   0.84935   0.09397   0.00000  Uiso   1.00
C438   C     0.20265   0.82079   0.40785   0.00000  Uiso   1.00
C439   C     0.12992   0.84679   0.40493   0.00000  Uiso   1.00
C440   C     0.12944   0.82285   0.09310   0.00000  Uiso   1.00
C441   C     0.16587   0.83507   0.11656   0.00000  Uiso   1.00
C442   C     0.16630   0.83278   0.38341   0.00000  Uiso   1.00
C443   C     0.16551   0.83608   0.02418   0.00000  Uiso   1.00
C444   C     0.16579   0.83517   0.47570   0.00000  Uiso   1.00
C445   C     0.29080   0.83314   0.25033   0.00000  Uiso   1.00
C446   C     0.04255   0.83353   0.24968   0.00000  Uiso   1.00
H447   H     0.22826   0.86207   0.03034   0.00000  Uiso   1.00
H448   H     0.22944   0.81049   0.47283   0.00000  Uiso   1.00
H449   H     0.10245   0.86030   0.46759   0.00000  Uiso   1.00
H450   H     0.10230   0.81138   0.02895   0.00000  Uiso   1.00
H451   H     0.03776   0.76541   0.22536   0.00000  Uiso   1.00
H452   H     0.29559   0.90128   0.27461   0.00000  Uiso   1.00
H453   H     0.29571   0.76508   0.22598   0.00000  Uiso   1.00
H454   H     0.03764   0.90157   0.27410   0.00000  Uiso   1.00
N455   N     0.16667   0.95240   0.25000   0.00000  Uiso   1.00
N456   N     0.16667   0.71427   0.25000   0.00000  Uiso   1.00
O457   O     0.10559   0.87154   0.25000   0.00000  Uiso   1.00
O458   O     0.22774   0.79513   0.25001   0.00000  Uiso   1.00
O459   O     0.22774   0.87154   0.25001   0.00000  Uiso   1.00
O460   O     0.10559   0.79513   0.24999   0.00000  Uiso   1.00
O461   O     0.16666   0.87155   0.18453   0.00000  Uiso   1.00
O462   O     0.16667   0.79511   0.31547   0.00000  Uiso   1.00
O463   O     0.16667   0.87155   0.31547   0.00000  Uiso   1.00
O464   O     0.16666   0.79511   0.18453   0.00000  Uiso   1.00
Zn465  Zn    0.16667   0.88437   0.25000   0.00000  Uiso   1.00
Zn466  Zn    0.16667   0.78229   0.25000   0.00000  Uiso   1.00
N467   N     0.21405   0.71012   0.31508   0.00000  Uiso   1.00
H468   H     0.19357   0.72411   0.33772   0.00000  Uiso   1.00
H469   H     0.23333   0.73429   0.30113   0.00000  Uiso   1.00
N470   N     0.11906   0.95632   0.18502   0.00000  Uiso   1.00
H471   H     0.13921   0.94203   0.16223   0.00000  Uiso   1.00
H472   H     0.09960   0.93232   0.19900   0.00000  Uiso   1.00
N473   N     0.11763   0.71692   0.18835   0.00000  Uiso   1.00
H474   H     0.12681   0.70855   0.15616   0.00000  Uiso   1.00
H475   H     0.08662   0.70717   0.19214   0.00000  Uiso   1.00
N476   N     0.21554   0.94945   0.31182   0.00000  Uiso   1.00
H477   H     0.20616   0.95753   0.34400   0.00000  Uiso   1.00
H478   H     0.24655   0.95925   0.30830   0.00000  Uiso   1.00
N479   N     0.23896   0.86248   0.11723   0.00000  Uiso   1.00
H480   H     0.24877   0.83595   0.13832   0.00000  Uiso   1.00
H481   H     0.23209   0.89011   0.13689   0.00000  Uiso   1.00
N482   N     0.24108   0.80999   0.38660   0.00000  Uiso   1.00
H483   H     0.23648   0.78190   0.36691   0.00000  Uiso   1.00
H484   H     0.24917   0.83692   0.36569   0.00000  Uiso   1.00
N485   N     0.09256   0.85943   0.38065   0.00000  Uiso   1.00
H486   H     0.08367   0.83274   0.36046   0.00000  Uiso   1.00
H487   H     0.09896   0.88709   0.36001   0.00000  Uiso   1.00
N488   N     0.09143   0.81218   0.11532   0.00000  Uiso   1.00
H489   H     0.09671   0.78435   0.13630   0.00000  Uiso   1.00
H490   H     0.08315   0.83932   0.13507   0.00000  Uiso   1.00
C491   C     0.42007   0.83345   0.24979   0.00000  Uiso   1.00
C492   C     0.57993   0.83322   0.25021   0.00000  Uiso   1.00
C493   C     0.49968   0.83377   0.16427   0.00000  Uiso   1.00
C494   C     0.50018   0.83305   0.33573   0.00000  Uiso   1.00
C495   C     0.52351   0.68917   0.28071   0.00000  Uiso   1.00
C496   C     0.47646   0.97738   0.21928   0.00000  Uiso   1.00
C497   C     0.47622   0.69181   0.21979   0.00000  Uiso   1.00
C498   C     0.52374   0.97474   0.28027   0.00000  Uiso   1.00
C499   C     0.35473   0.79505   0.23634   0.00000  Uiso   1.00
C500   C     0.64528   0.87163   0.26366   0.00000  Uiso   1.00
C501   C     0.64535   0.79483   0.23673   0.00000  Uiso   1.00
C502   C     0.35466   0.87183   0.26331   0.00000  Uiso   1.00
C503   C     0.53432   0.85029   0.04776   0.00000  Uiso   1.00
C504   C     0.53515   0.82109   0.45400   0.00000  Uiso   1.00
C505   C     0.46344   0.84838   0.45107   0.00000  Uiso   1.00
C506   C     0.46318   0.82249   0.04694   0.00000  Uiso   1.00
C507   C     0.53497   0.84935   0.09397   0.00000  Uiso   1.00
C508   C     0.53598   0.82079   0.40785   0.00000  Uiso   1.00
C509   C     0.46325   0.84679   0.40493   0.00000  Uiso   1.00
C510   C     0.46278   0.82285   0.09310   0.00000  Uiso   1.00
C511   C     0.49921   0.83507   0.11656   0.00000  Uiso   1.00
C512   C     0.49963   0.83278   0.38341   0.00000  Uiso   1.00
C513   C     0.49884   0.83608   0.02418   0.00000  Uiso   1.00
C514   C     0.49913   0.83517   0.47570   0.00000  Uiso   1.00
C515   C     0.62413   0.83314   0.25033   0.00000  Uiso   1.00
C516   C     0.37588   0.83353   0.24968   0.00000  Uiso   1.00
H517   H     0.56160   0.86207   0.03034   0.00000  Uiso   1.00
H518   H     0.56277   0.81049   0.47283   0.00000  Uiso   1.00
H519   H     0.43579   0.86030   0.46759   0.00000  Uiso   1.00
H520   H     0.43563   0.81138   0.02895   0.00000  Uiso   1.00
H521   H     0.37109   0.76541   0.22536   0.00000  Uiso   1.00
H522   H     0.62892   0.90128   0.27461   0.00000  Uiso   1.00
H523   H     0.62904   0.76508   0.22598   0.00000  Uiso   1.00
H524   H     0.37098   0.90157   0.27410   0.00000  Uiso   1.00
N525   N     0.50000   0.95240   0.25000   0.00000  Uiso   1.00
N526   N     0.50000   0.71427   0.25000   0.00000  Uiso   1.00
O527   O     0.43892   0.87154   0.25000   0.00000  Uiso   1.00
O528   O     0.56108   0.79513   0.25001   0.00000  Uiso   1.00
O529   O     0.56108   0.87154   0.25001   0.00000  Uiso   1.00
O530   O     0.43892   0.79513   0.24999   0.00000  Uiso   1.00
O531   O     0.50000   0.87155   0.18453   0.00000  Uiso   1.00
O532   O     0.50000   0.79511   0.31547   0.00000  Uiso   1.00
O533   O     0.50000   0.87155   0.31547   0.00000  Uiso   1.00
O534   O     0.50000   0.79511   0.18453   0.00000  Uiso   1.00
Zn535  Zn    0.50000   0.88437   0.25000   0.00000  Uiso   1.00
Zn536  Zn    0.50000   0.78229   0.25000   0.00000  Uiso   1.00
N537   N     0.54738   0.71012   0.31508   0.00000  Uiso   1.00
H538   H     0.52690   0.72411   0.33772   0.00000  Uiso   1.00
H539   H     0.56666   0.73429   0.30113   0.00000  Uiso   1.00
N540   N     0.45239   0.95632   0.18502   0.00000  Uiso   1.00
H541   H     0.47254   0.94203   0.16223   0.00000  Uiso   1.00
H542   H     0.43294   0.93232   0.19900   0.00000  Uiso   1.00
N543   N     0.45096   0.71692   0.18835   0.00000  Uiso   1.00
H544   H     0.46014   0.70855   0.15616   0.00000  Uiso   1.00
H545   H     0.41996   0.70717   0.19214   0.00000  Uiso   1.00
N546   N     0.54887   0.94945   0.31182   0.00000  Uiso   1.00
H547   H     0.53949   0.95753   0.34400   0.00000  Uiso   1.00
H548   H     0.57989   0.95925   0.30830   0.00000  Uiso   1.00
N549   N     0.57230   0.86248   0.11723   0.00000  Uiso   1.00
H550   H     0.58210   0.83595   0.13832   0.00000  Uiso   1.00
H551   H     0.56542   0.89011   0.13689   0.00000  Uiso   1.00
N552   N     0.57442   0.80999   0.38660   0.00000  Uiso   1.00
H553   H     0.56982   0.78190   0.36691   0.00000  Uiso   1.00
H554   H     0.58250   0.83692   0.36569   0.00000  Uiso   1.00
N555   N     0.42589   0.85943   0.38065   0.00000  Uiso   1.00
H556   H     0.41700   0.83274   0.36046   0.00000  Uiso   1.00
H557   H     0.43229   0.88709   0.36001   0.00000  Uiso   1.00
N558   N     0.42477   0.81218   0.11532   0.00000  Uiso   1.00
H559   H     0.43005   0.78435   0.13630   0.00000  Uiso   1.00
H560   H     0.41649   0.83932   0.13507   0.00000  Uiso   1.00
C561   C     0.75340   0.83345   0.24979   0.00000  Uiso   1.00
C562   C     0.91326   0.83322   0.25021   0.00000  Uiso   1.00
C563   C     0.83301   0.83377   0.16427   0.00000  Uiso   1.00
C564   C     0.83351   0.83305   0.33573   0.00000  Uiso   1.00
C565   C     0.85684   0.68917   0.28071   0.00000  Uiso   1.00
C566   C     0.80980   0.97738   0.21928   0.00000  Uiso   1.00
C567   C     0.80955   0.69181   0.21979   0.00000  Uiso   1.00
C568   C     0.85708   0.97474   0.28027   0.00000  Uiso   1.00
C569   C     0.68807   0.79505   0.23634   0.00000  Uiso   1.00
C570   C     0.97861   0.87163   0.26366   0.00000  Uiso   1.00
C571   C     0.97868   0.79483   0.23673   0.00000  Uiso   1.00
C572   C     0.68799   0.87183   0.26331   0.00000  Uiso   1.00
C573   C     0.86765   0.85029   0.04776   0.00000  Uiso   1.00
C574   C     0.86848   0.82109   0.45400   0.00000  Uiso   1.00
C575   C     0.79678   0.84838   0.45107   0.00000  Uiso   1.00
C576   C     0.79652   0.82249   0.04694   0.00000  Uiso   1.00
C577   C     0.86830   0.84935   0.09397   0.00000  Uiso   1.00
C578   C     0.86932   0.82079   0.40785   0.00000  Uiso   1.00
C579   C     0.79659   0.84679   0.40493   0.00000  Uiso   1.00
C580   C     0.79611   0.82285   0.09310   0.00000  Uiso   1.00
C581   C     0.83254   0.83507   0.11656   0.00000  Uiso   1.00
C582   C     0.83296   0.83278   0.38341   0.00000  Uiso   1.00
C583   C     0.83218   0.83608   0.02418   0.00000  Uiso   1.00
C584   C     0.83246   0.83517   0.47570   0.00000  Uiso   1.00
C585   C     0.95746   0.83314   0.25033   0.00000  Uiso   1.00
C586   C     0.70921   0.83353   0.24968   0.00000  Uiso   1.00
H587   H     0.89493   0.86207   0.03034   0.00000  Uiso   1.00
H588   H     0.89611   0.81049   0.47283   0.00000  Uiso   1.00
H589   H     0.76912   0.86030   0.46759   0.00000  Uiso   1.00
H590   H     0.76897   0.81138   0.02895   0.00000  Uiso   1.00
H591   H     0.70442   0.76541   0.22536   0.00000  Uiso   1.00
H592   H     0.96225   0.90128   0.27461   0.00000  Uiso   1.00
H593   H     0.96237   0.76508   0.22598   0.00000  Uiso   1.00
H594   H     0.70431   0.90157   0.27410   0.00000  Uiso   1.00
N595   N     0.83333   0.95240   0.25000   0.00000  Uiso   1.00
N596   N     0.83333   0.71427   0.25000   0.00000  Uiso   1.00
O597   O     0.77226   0.87154   0.25000   0.00000  Uiso   1.00
O598   O     0.89441   0.79513   0.25001   0.00000  Uiso   1.00
O599   O     0.89441   0.87154   0.25001   0.00000  Uiso   1.00
O600   O     0.77226   0.79513   0.24999   0.00000  Uiso   1.00
O601   O     0.83333   0.87155   0.18453   0.00000  Uiso   1.00
O602   O     0.83334   0.79511   0.31547   0.00000  Uiso   1.00
O603   O     0.83334   0.87155   0.31547   0.00000  Uiso   1.00
O604   O     0.83333   0.79511   0.18453   0.00000  Uiso   1.00
Zn605  Zn    0.83333   0.88437   0.25000   0.00000  Uiso   1.00
Zn606  Zn    0.83333   0.78229   0.25000   0.00000  Uiso   1.00
N607   N     0.88072   0.71012   0.31508   0.00000  Uiso   1.00
H608   H     0.86023   0.72411   0.33772   0.00000  Uiso   1.00
H609   H     0.90000   0.73429   0.30113   0.00000  Uiso   1.00
N610   N     0.78572   0.95632   0.18502   0.00000  Uiso   1.00
H611   H     0.80587   0.94203   0.16223   0.00000  Uiso   1.00
H612   H     0.76627   0.93232   0.19900   0.00000  Uiso   1.00
N613   N     0.78429   0.71692   0.18835   0.00000  Uiso   1.00
H614   H     0.79347   0.70855   0.15616   0.00000  Uiso   1.00
H615   H     0.75329   0.70717   0.19214   0.00000  Uiso   1.00
N616   N     0.88220   0.94945   0.31182   0.00000  Uiso   1.00
H617   H     0.87282   0.95753   0.34400   0.00000  Uiso   1.00
H618   H     0.91322   0.95925   0.30830   0.00000  Uiso   1.00
N619   N     0.90563   0.86248   0.11723   0.00000  Uiso   1.00
H620   H     0.91544   0.83595   0.13832   0.00000  Uiso   1.00
H621   H     0.89875   0.89011   0.13689   0.00000  Uiso   1.00
N622   N     0.90775   0.80999   0.38660   0.00000  Uiso   1.00
H623   H     0.90315   0.78190   0.36691   0.00000  Uiso   1.00
H624   H     0.91583   0.83692   0.36569   0.00000  Uiso   1.00
N625   N     0.75922   0.85943   0.38065   0.00000  Uiso   1.00
H626   H     0.75033   0.83274   0.36046   0.00000  Uiso   1.00
H627   H     0.76562   0.88709   0.36001   0.00000  Uiso   1.00
N628   N     0.75810   0.81218   0.11532   0.00000  Uiso   1.00
H629   H     0.76338   0.78435   0.13630   0.00000  Uiso   1.00
H630   H     0.74982   0.83932   0.13507   0.00000  Uiso   1.00
C631   C     0.08674   0.16678   0.74979   0.00000  Uiso   1.00
C632   C     0.24660   0.16655   0.75021   0.00000  Uiso   1.00
C633   C     0.16634   0.16711   0.66427   0.00000  Uiso   1.00
C634   C     0.16685   0.16638   0.83573   0.00000  Uiso   1.00
C635   C     0.19018   0.02251   0.78071   0.00000  Uiso   1.00
C636   C     0.14313   0.31072   0.71928   0.00000  Uiso   1.00
C637   C     0.14289   0.02514   0.71979   0.00000  Uiso   1.00
C638   C     0.19041   0.30808   0.78027   0.00000  Uiso   1.00
C639   C     0.02140   0.12839   0.73634   0.00000  Uiso   1.00
C640   C     0.31194   0.20496   0.76366   0.00000  Uiso   1.00
C641   C     0.31202   0.12817   0.73673   0.00000  Uiso   1.00
C642   C     0.02133   0.20517   0.76331   0.00000  Uiso   1.00
C643   C     0.20099   0.18363   0.54776   0.00000  Uiso   1.00
C644   C     0.20181   0.15442   0.95400   0.00000  Uiso   1.00
C645   C     0.13011   0.18171   0.95107   0.00000  Uiso   1.00
C646   C     0.12985   0.15582   0.54694   0.00000  Uiso   1.00
C647   C     0.20163   0.18269   0.59397   0.00000  Uiso   1.00
C648   C     0.20265   0.15412   0.90785   0.00000  Uiso   1.00
C649   C     0.12992   0.18012   0.90493   0.00000  Uiso   1.00
C650   C     0.12944   0.15619   0.59310   0.00000  Uiso   1.00
C651   C     0.16587   0.16840   0.61656   0.00000  Uiso   1.00
C652   C     0.16630   0.16612   0.88341   0.00000  Uiso   1.00
C653   C     0.16551   0.16941   0.52418   0.00000  Uiso   1.00
C654   C     0.16579   0.16850   0.97570   0.00000  Uiso   1.00
C655   C     0.29080   0.16647   0.75033   0.00000  Uiso   1.00
C656   C     0.04255   0.16687   0.74968   0.00000  Uiso   1.00
H657   H     0.22826   0.19541   0.53034   0.00000  Uiso   1.00
H658   H     0.22944   0.14382   0.97283   0.00000  Uiso   1.00
H659   H     0.10245   0.19363   0.96759   0.00000  Uiso   1.00
H660   H     0.10230   0.14471   0.52895   0.00000  Uiso   1.00
H661   H     0.03776   0.09874   0.72536   0.00000  Uiso   1.00
H662   H     0.29559   0.23462   0.77461   0.00000  Uiso   1.00
H663   H     0.29571   0.09842   0.72598   0.00000  Uiso   1.00
H664   H     0.03764   0.23490   0.77410   0.00000  Uiso   1.00
N665   N     0.16667   0.28573   0.75000   0.00000  Uiso   1.00
N666   N     0.16667   0.04760   0.75000   0.00000  Uiso   1.00
O667   O     0.10559   0.20487   0.75000   0.00000  Uiso   1.00
O668   O     0.22774   0.12846   0.75001   0.00000  Uiso   1.00
O669   O     0.22774   0.20487   0.75001   0.00000  Uiso   1.00
O670   O     0.10559   0.12846   0.74999   0.00000  Uiso   1.00
O671   O     0.16666   0.20489   0.68453   0.00000  Uiso   1.00
O672   O     0.16667   0.12845   0.81547   0.00000  Uiso   1.00
O673   O     0.16667   0.20489   0.81547   0.00000  Uiso   1.00
O674   O     0.16666   0.12845   0.68453   0.00000  Uiso   1.00
Zn675  Zn    0.16667   0.21771   0.75000   0.00000  Uiso   1.00
Zn676  Zn    0.16667   0.11563   0.75000   0.00000  Uiso   1.00
N677   N     0.21405   0.04345   0.81508   0.00000  Uiso   1.00
H678   H     0.19357   0.05744   0.83772   0.00000  Uiso   1.00
H679   H     0.23333   0.06762   0.80113   0.00000  Uiso   1.00
N680   N     0.11906   0.28965   0.68502   0.00000  Uiso   1.00
H681   H     0.13921   0.27536   0.66223   0.00000  Uiso   1.00
H682   H     0.09960   0.26565   0.69900   0.00000  Uiso   1.00
N683   N     0.11763   0.05025   0.68835   0.00000  Uiso   1.00
H684   H     0.12681   0.04189   0.65616   0.00000  Uiso   1.00
H685   H     0.08662   0.04050   0.69214   0.00000  Uiso   1.00
N686   N     0.21554   0.28279   0.81182   0.00000  Uiso   1.00
H687   H     0.20616   0.29086   0.84400   0.00000  Uiso   1.00
H688   H     0.24655   0.29259   0.80830   0.00000  Uiso   1.00
N689   N     0.23896   0.19581   0.61723   0.00000  Uiso   1.00
H690   H     0.24877   0.16929   0.63832   0.00000  Uiso   1.00
H691   H     0.23209   0.22345   0.63689   0.00000  Uiso   1.00
N692   N     0.24108   0.14332   0.88660   0.00000  Uiso   1.00
H693   H     0.23648   0.11523   0.86691   0.00000  Uiso   1.00
H694   H     0.24917   0.17026   0.86569   0.00000  Uiso   1.00
N695   N     0.09256   0.19276   0.88065   0.00000  Uiso   1.00
H696   H     0.08367   0.16607   0.86046   0.00000  Uiso   1.00
H697   H     0.09896   0.22043   0.86001   0.00000  Uiso   1.00
N698   N     0.09143   0.14551   0.61532   0.00000  Uiso   1.00
H699   H     0.09671   0.11768   0.63630   0.00000  Uiso   1.00
H700   H     0.08315   0.17265   0.63507   0.00000  Uiso   1.00
C701   C     0.42007   0.16678   0.74979   0.00000  Uiso   1.00
C702   C     0.57993   0.16655   0.75021   0.00000  Uiso   1.00
C703   C     0.49968   0.16711   0.66427   0.00000  Uiso   1.00
C704   C     0.50018   0.16638   0.83573   0.00000  Uiso   1.00
C705   C     0.52351   0.02251   0.78071   0.00000  Uiso   1.00
C706   C     0.47646   0.31072   0.71928   0.00000  Uiso   1.00
C707   C     0.47622   0.02514   0.71979   0.00000  Uiso   1.00
C708   C     0.52374   0.30808   0.78027   0.00000  Uiso   1.00
C709   C     0.35473   0.12839   0.73634   0.00000  Uiso   1.00
C710   C     0.64528   0.20496   0.76366   0.00000  Uiso   1.00
C711   C     0.64535   0.12817   0.73673   0.00000  Uiso   1.00
C712   C     0.35466   0.20517   0.76331   0.00000  Uiso   1.00
C713   C     0.53432   0.18363   0.54776   0.00000  Uiso   1.00
C714   C     0.53515   0.15442   0.95400   0.00000  Uiso   1.00
C715   C     0.46344   0.18171   0.95107   0.00000  Uiso   1.00
C716   C     0.46318   0.15582   0.54694   0.00000  Uiso   1.00
C717   C     0.53497   0.18269   0.59397   0.00000  Uiso   1.00
C718   C     0.53598   0.15412   0.90785   0.00000  Uiso   1.00
C719   C     0.46325   0.18012   0.90493   0.00000  Uiso   1.00
C720   C     0.46278   0.15619   0.59310   0.00000  Uiso   1.00
C721   C     0.49921   0.16840   0.61656   0.00000  Uiso   1.00
C722   C     0.49963   0.16612   0.88341   0.00000  Uiso   1.00
C723   C     0.49884   0.16941   0.52418   0.00000  Uiso   1.00
C724   C     0.49913   0.16850   0.97570   0.00000  Uiso   1.00
C725   C     0.62413   0.16647   0.75033   0.00000  Uiso   1.00
C726   C     0.37588   0.16687   0.74968   0.00000  Uiso   1.00
H727   H     0.56160   0.19541   0.53034   0.00000  Uiso   1.00
H728   H     0.56277   0.14382   0.97283   0.00000  Uiso   1.00
H729   H     0.43579   0.19363   0.96759   0.00000  Uiso   1.00
H730   H     0.43563   0.14471   0.52895   0.00000  Uiso   1.00
H731   H     0.37109   0.09874   0.72536   0.00000  Uiso   1.00
H732   H     0.62892   0.23462   0.77461   0.00000  Uiso   1.00
H733   H     0.62904   0.09842   0.72598   0.00000  Uiso   1.00
H734   H     0.37098   0.23490   0.77410   0.00000  Uiso   1.00
N735   N     0.50000   0.28573   0.75000   0.00000  Uiso   1.00
N736   N     0.50000   0.04760   0.75000   0.00000  Uiso   1.00
O737   O     0.43892   0.20487   0.75000   0.00000  Uiso   1.00
O738   O     0.56108   0.12846   0.75001   0.00000  Uiso   1.00
O739   O     0.56108   0.20487   0.75001   0.00000  Uiso   1.00
O740   O     0.43892   0.12846   0.74999   0.00000  Uiso   1.00
O741   O     0.50000   0.20489   0.68453   0.00000  Uiso   1.00
O742   O     0.50000   0.12845   0.81547   0.00000  Uiso   1.00
O743   O     0.50000   0.20489   0.81547   0.00000  Uiso   1.00
O744   O     0.50000   0.12845   0.68453   0.00000  Uiso   1.00
Zn745  Zn    0.50000   0.21771   0.75000   0.00000  Uiso   1.00
Zn746  Zn    0.50000   0.11563   0.75000   0.00000  Uiso   1.00
N747   N     0.54738   0.04345   0.81508   0.00000  Uiso   1.00
H748   H     0.52690   0.05744   0.83772   0.00000  Uiso   1.00
H749   H     0.56666   0.06762   0.80113   0.00000  Uiso   1.00
N750   N     0.45239   0.28965   0.68502   0.00000  Uiso   1.00
H751   H     0.47254   0.27536   0.66223   0.00000  Uiso   1.00
H752   H     0.43294   0.26565   0.69900   0.00000  Uiso   1.00
N753   N     0.45096   0.05025   0.68835   0.00000  Uiso   1.00
H754   H     0.46014   0.04189   0.65616   0.00000  Uiso   1.00
H755   H     0.41996   0.04050   0.69214   0.00000  Uiso   1.00
N756   N     0.54887   0.28279   0.81182   0.00000  Uiso   1.00
H757   H     0.53949   0.29086   0.84400   0.00000  Uiso   1.00
H758   H     0.57989   0.29259   0.80830   0.00000  Uiso   1.00
N759   N     0.57230   0.19581   0.61723   0.00000  Uiso   1.00
H760   H     0.58210   0.16929   0.63832   0.00000  Uiso   1.00
H761   H     0.56542   0.22345   0.63689   0.00000  Uiso   1.00
N762   N     0.57442   0.14332   0.88660   0.00000  Uiso   1.00
H763   H     0.56982   0.11523   0.86691   0.00000  Uiso   1.00
H764   H     0.58250   0.17026   0.86569   0.00000  Uiso   1.00
N765   N     0.42589   0.19276   0.88065   0.00000  Uiso   1.00
H766   H     0.41700   0.16607   0.86046   0.00000  Uiso   1.00
H767   H     0.43229   0.22043   0.86001   0.00000  Uiso   1.00
N768   N     0.42477   0.14551   0.61532   0.00000  Uiso   1.00
H769   H     0.43005   0.11768   0.63630   0.00000  Uiso   1.00
H770   H     0.41649   0.17265   0.63507   0.00000  Uiso   1.00
C771   C     0.75340   0.16678   0.74979   0.00000  Uiso   1.00
C772   C     0.91326   0.16655   0.75021   0.00000  Uiso   1.00
C773   C     0.83301   0.16711   0.66427   0.00000  Uiso   1.00
C774   C     0.83351   0.16638   0.83573   0.00000  Uiso   1.00
C775   C     0.85684   0.02251   0.78071   0.00000  Uiso   1.00
C776   C     0.80980   0.31072   0.71928   0.00000  Uiso   1.00
C777   C     0.80955   0.02514   0.71979   0.00000  Uiso   1.00
C778   C     0.85708   0.30808   0.78027   0.00000  Uiso   1.00
C779   C     0.68807   0.12839   0.73634   0.00000  Uiso   1.00
C780   C     0.97861   0.20496   0.76366   0.00000  Uiso   1.00
C781   C     0.97868   0.12817   0.73673   0.00000  Uiso   1.00
C782   C     0.68799   0.20517   0.76331   0.00000  Uiso   1.00
C783   C     0.86765   0.18363   0.54776   0.00000  Uiso   1.00
C784   C     0.86848   0.15442   0.95400   0.00000  Uiso   1.00
C785   C     0.79678   0.18171   0.95107   0.00000  Uiso   1.00
C786   C     0.79652   0.15582   0.54694   0.00000  Uiso   1.00
C787   C     0.86830   0.18269   0.59397   0.00000  Uiso   1.00
C788   C     0.86932   0.15412   0.90785   0.00000  Uiso   1.00
C789   C     0.79659   0.18012   0.90493   0.00000  Uiso   1.00
C790   C     0.79611   0.15619   0.59310   0.00000  Uiso   1.00
C791   C     0.83254   0.16840   0.61656   0.00000  Uiso   1.00
C792   C     0.83296   0.16612   0.88341   0.00000  Uiso   1.00
C793   C     0.83218   0.16941   0.52418   0.00000  Uiso   1.00
C794   C     0.83246   0.16850   0.97570   0.00000  Uiso   1.00
C795   C     0.95746   0.16647   0.75033   0.00000  Uiso   1.00
C796   C     0.70921   0.16687   0.74968   0.00000  Uiso   1.00
H797   H     0.89493   0.19541   0.53034   0.00000  Uiso   1.00
H798   H     0.89611   0.14382   0.97283   0.00000  Uiso   1.00
H799   H     0.76912   0.19363   0.96759   0.00000  Uiso   1.00
H800   H     0.76897   0.14471   0.52895   0.00000  Uiso   1.00
H801   H     0.70442   0.09874   0.72536   0.00000  Uiso   1.00
H802   H     0.96225   0.23462   0.77461   0.00000  Uiso   1.00
H803   H     0.96237   0.09842   0.72598   0.00000  Uiso   1.00
H804   H     0.70431   0.23490   0.77410   0.00000  Uiso   1.00
N805   N     0.83333   0.28573   0.75000   0.00000  Uiso   1.00
N806   N     0.83333   0.04760   0.75000   0.00000  Uiso   1.00
O807   O     0.77226   0.20487   0.75000   0.00000  Uiso   1.00
O808   O     0.89441   0.12846   0.75001   0.00000  Uiso   1.00
O809   O     0.89441   0.20487   0.75001   0.00000  Uiso   1.00
O810   O     0.77226   0.12846   0.74999   0.00000  Uiso   1.00
O811   O     0.83333   0.20489   0.68453   0.00000  Uiso   1.00
O812   O     0.83334   0.12845   0.81547   0.00000  Uiso   1.00
O813   O     0.83334   0.20489   0.81547   0.00000  Uiso   1.00
O814   O     0.83333   0.12845   0.68453   0.00000  Uiso   1.00
Zn815  Zn    0.83333   0.21771   0.75000   0.00000  Uiso   1.00
Zn816  Zn    0.83333   0.11563   0.75000   0.00000  Uiso   1.00
N817   N     0.88072   0.04345   0.81508   0.00000  Uiso   1.00
H818   H     0.86023   0.05744   0.83772   0.00000  Uiso   1.00
H819   H     0.90000   0.06762   0.80113   0.00000  Uiso   1.00
N820   N     0.78572   0.28965   0.68502   0.00000  Uiso   1.00
H821   H     0.80587   0.27536   0.66223   0.00000  Uiso   1.00
H822   H     0.76627   0.26565   0.69900   0.00000  Uiso   1.00
N823   N     0.78429   0.05025   0.68835   0.00000  Uiso   1.00
H824   H     0.79347   0.04189   0.65616   0.00000  Uiso   1.00
H825   H     0.75329   0.04050   0.69214   0.00000  Uiso   1.00
N826   N     0.88220   0.28279   0.81182   0.00000  Uiso   1.00
H827   H     0.87282   0.29086   0.84400   0.00000  Uiso   1.00
H828   H     0.91322   0.29259   0.80830   0.00000  Uiso   1.00
N829   N     0.90563   0.19581   0.61723   0.00000  Uiso   1.00
H830   H     0.91544   0.16929   0.63832   0.00000  Uiso   1.00
H831   H     0.89875   0.22345   0.63689   0.00000  Uiso   1.00
N832   N     0.90775   0.14332   0.88660   0.00000  Uiso   1.00
H833   H     0.90315   0.11523   0.86691   0.00000  Uiso   1.00
H834   H     0.91583   0.17026   0.86569   0.00000  Uiso   1.00
N835   N     0.75922   0.19276   0.88065   0.00000  Uiso   1.00
H836   H     0.75033   0.16607   0.86046   0.00000  Uiso   1.00
H837   H     0.76562   0.22043   0.86001   0.00000  Uiso   1.00
N838   N     0.75810   0.14551   0.61532   0.00000  Uiso   1.00
H839   H     0.76338   0.11768   0.63630   0.00000  Uiso   1.00
H840   H     0.74982   0.17265   0.63507   0.00000  Uiso   1.00
C841   C     0.08674   0.50011   0.74979   0.00000  Uiso   1.00
C842   C     0.24660   0.49989   0.75021   0.00000  Uiso   1.00
C843   C     0.16634   0.50044   0.66427   0.00000  Uiso   1.00
C844   C     0.16685   0.49972   0.83573   0.00000  Uiso   1.00
C845   C     0.19018   0.35584   0.78071   0.00000  Uiso   1.00
C846   C     0.14313   0.64405   0.71928   0.00000  Uiso   1.00
C847   C     0.14289   0.35847   0.71979   0.00000  Uiso   1.00
C848   C     0.19041   0.64141   0.78027   0.00000  Uiso   1.00
C849   C     0.02140   0.46172   0.73634   0.00000  Uiso   1.00
C850   C     0.31194   0.53829   0.76366   0.00000  Uiso   1.00
C851   C     0.31202   0.46150   0.73673   0.00000  Uiso   1.00
C852   C     0.02133   0.53850   0.76331   0.00000  Uiso   1.00
C853   C     0.20099   0.51696   0.54776   0.00000  Uiso   1.00
C854   C     0.20181   0.48775   0.95400   0.00000  Uiso   1.00
C855   C     0.13011   0.51505   0.95107   0.00000  Uiso   1.00
C856   C     0.12985   0.48915   0.54694   0.00000  Uiso   1.00
C857   C     0.20163   0.51602   0.59397   0.00000  Uiso   1.00
C858   C     0.20265   0.48745   0.90785   0.00000  Uiso   1.00
C859   C     0.12992   0.51346   0.90493   0.00000  Uiso   1.00
C860   C     0.12944   0.48952   0.59310   0.00000  Uiso   1.00
C861   C     0.16587   0.50173   0.61656   0.00000  Uiso   1.00
C862   C     0.16630   0.49945   0.88341   0.00000  Uiso   1.00
C863   C     0.16551   0.50275   0.52418   0.00000  Uiso   1.00
C864   C     0.16579   0.50183   0.97570   0.00000  Uiso   1.00
C865   C     0.29080   0.49981   0.75033   0.00000  Uiso   1.00
C866   C     0.04255   0.50020   0.74968   0.00000  Uiso   1.00
H867   H     0.22826   0.52874   0.53034   0.00000  Uiso   1.00
H868   H     0.22944   0.47716   0.97283   0.00000  Uiso   1.00
H869   H     0.10245   0.52696   0.96759   0.00000  Uiso   1.00
H870   H     0.10230   0.47805   0.52895   0.00000  Uiso   1.00
H871   H     0.03776   0.43208   0.72536   0.00000  Uiso   1.00
H872   H     0.29559   0.56795   0.77461   0.00000  Uiso   1.00
H873   H     0.29571   0.43175   0.72598   0.00000  Uiso   1.00
H874   H     0.03764   0.56823   0.77410   0.00000  Uiso   1.00
N875   N     0.16667   0.61907   0.75000   0.00000  Uiso   1.00
N876   N     0.16667   0.38093   0.75000   0.00000  Uiso   1.00
O877   O     0.10559   0.53821   0.75000   0.00000  Uiso   1.00
O878   O     0.22774   0.46179   0.75001   0.00000  Uiso   1.00
O879   O     0.22774   0.53821   0.75001   0.00000  Uiso   1.00
O880   O     0.10559   0.46179   0.74999   0.00000  Uiso   1.00
O881   O     0.16666   0.53822   0.68453   0.00000  Uiso   1.00
O882   O     0.16667   0.46178   0.81547   0.00000  Uiso   1.00
O883   O     0.16667   0.53822   0.81547   0.00000  Uiso   1.00
O884   O     0.16666   0.46178   0.68453   0.00000  Uiso   1.00
Zn885  Zn    0.16667   0.55104   0.75000   0.00000  Uiso   1.00
Zn886  Zn    0.16667   0.44896   0.75000   0.00000  Uiso   1.00
N887   N     0.21405   0.37678   0.81508   0.00000  Uiso   1.00
H888   H     0.19357   0.39078   0.83772   0.00000  Uiso   1.00
H889   H     0.23333   0.40096   0.80113   0.00000  Uiso   1.00
N890   N     0.11906   0.62298   0.68502   0.00000  Uiso   1.00
H891   H     0.13921   0.60869   0.66223   0.00000  Uiso   1.00
H892   H     0.09960   0.59899   0.69900   0.00000  Uiso   1.00
N893   N     0.11763   0.38358   0.68835   0.00000  Uiso   1.00
H894   H     0.12681   0.37522   0.65616   0.00000  Uiso   1.00
H895   H     0.08662   0.37383   0.69214   0.00000  Uiso   1.00
N896   N     0.21554   0.61612   0.81182   0.00000  Uiso   1.00
H897   H     0.20616   0.62420   0.84400   0.00000  Uiso   1.00
H898   H     0.24655   0.62592   0.80830   0.00000  Uiso   1.00
N899   N     0.23896   0.52915   0.61723   0.00000  Uiso   1.00
H900   H     0.24877   0.50262   0.63832   0.00000  Uiso   1.00
H901   H     0.23209   0.55678   0.63689   0.00000  Uiso   1.00
N902   N     0.24108   0.47665   0.88660   0.00000  Uiso   1.00
H903   H     0.23648   0.44857   0.86691   0.00000  Uiso   1.00
H904   H     0.24917   0.50359   0.86569   0.00000  Uiso   1.00
N905   N     0.09256   0.52609   0.88065   0.00000  Uiso   1.00
H906   H     0.08367   0.49940   0.86046   0.00000  Uiso   1.00
H907   H     0.09896   0.55376   0.86001   0.00000  Uiso   1.00
N908   N     0.09143   0.47884   0.61532   0.00000  Uiso   1.00
H909   H     0.09671   0.45102   0.63630   0.00000  Uiso   1.00
H910   H     0.08315   0.50598   0.63507   0.00000  Uiso   1.00
C911   C     0.42007   0.50011   0.74979   0.00000  Uiso   1.00
C912   C     0.57993   0.49989   0.75021   0.00000  Uiso   1.00
C913   C     0.49968   0.50044   0.66427   0.00000  Uiso   1.00
C914   C     0.50018   0.49972   0.83573   0.00000  Uiso   1.00
C915   C     0.52351   0.35584   0.78071   0.00000  Uiso   1.00
C916   C     0.47646   0.64405   0.71928   0.00000  Uiso   1.00
C917   C     0.47622   0.35847   0.71979   0.00000  Uiso   1.00
C918   C     0.52374   0.64141   0.78027   0.00000  Uiso   1.00
C919   C     0.35473   0.46172   0.73634   0.00000  Uiso   1.00
C920   C     0.64528   0.53829   0.76366   0.00000  Uiso   1.00
C921   C     0.64535   0.46150   0.73673   0.00000  Uiso   1.00
C922   C     0.35466   0.53850   0.76331   0.00000  Uiso   1.00
C923   C     0.53432   0.51696   0.54776   0.00000  Uiso   1.00
C924   C     0.53515   0.48775   0.95400   0.00000  Uiso   1.00
C925   C     0.46344   0.51505   0.95107   0.00000  Uiso   1.00
C926   C     0.46318   0.48915   0.54694   0.00000  Uiso   1.00
C927   C     0.53497   0.51602   0.59397   0.00000  Uiso   1.00
C928   C     0.53598   0.48745   0.90785   0.00000  Uiso   1.00
C929   C     0.46325   0.51346   0.90493   0.00000  Uiso   1.00
C930   C     0.46278   0.48952   0.59310   0.00000  Uiso   1.00
C931   C     0.49921   0.50173   0.61656   0.00000  Uiso   1.00
C932   C     0.49963   0.49945   0.88341   0.00000  Uiso   1.00
C933   C     0.49884   0.50275   0.52418   0.00000  Uiso   1.00
C934   C     0.49913   0.50183   0.97570   0.00000  Uiso   1.00
C935   C     0.62413   0.49981   0.75033   0.00000  Uiso   1.00
C936   C     0.37588   0.50020   0.74968   0.00000  Uiso   1.00
H937   H     0.56160   0.52874   0.53034   0.00000  Uiso   1.00
H938   H     0.56277   0.47716   0.97283   0.00000  Uiso   1.00
H939   H     0.43579   0.52696   0.96759   0.00000  Uiso   1.00
H940   H     0.43563   0.47805   0.52895   0.00000  Uiso   1.00
H941   H     0.37109   0.43208   0.72536   0.00000  Uiso   1.00
H942   H     0.62892   0.56795   0.77461   0.00000  Uiso   1.00
H943   H     0.62904   0.43175   0.72598   0.00000  Uiso   1.00
H944   H     0.37098   0.56823   0.77410   0.00000  Uiso   1.00
N945   N     0.50000   0.61907   0.75000   0.00000  Uiso   1.00
N946   N     0.50000   0.38093   0.75000   0.00000  Uiso   1.00
O947   O     0.43892   0.53821   0.75000   0.00000  Uiso   1.00
O948   O     0.56108   0.46179   0.75001   0.00000  Uiso   1.00
O949   O     0.56108   0.53821   0.75001   0.00000  Uiso   1.00
O950   O     0.43892   0.46179   0.74999   0.00000  Uiso   1.00
O951   O     0.50000   0.53822   0.68453   0.00000  Uiso   1.00
O952   O     0.50000   0.46178   0.81547   0.00000  Uiso   1.00
O953   O     0.50000   0.53822   0.81547   0.00000  Uiso   1.00
O954   O     0.50000   0.46178   0.68453   0.00000  Uiso   1.00
Zn955  Zn    0.50000   0.55104   0.75000   0.00000  Uiso   1.00
Zn956  Zn    0.50000   0.44896   0.75000   0.00000  Uiso   1.00
N957   N     0.54738   0.37678   0.81508   0.00000  Uiso   1.00
H958   H     0.52690   0.39078   0.83772   0.00000  Uiso   1.00
H959   H     0.56666   0.40096   0.80113   0.00000  Uiso   1.00
N960   N     0.45239   0.62298   0.68502   0.00000  Uiso   1.00
H961   H     0.47254   0.60869   0.66223   0.00000  Uiso   1.00
H962   H     0.43294   0.59899   0.69900   0.00000  Uiso   1.00
N963   N     0.45096   0.38358   0.68835   0.00000  Uiso   1.00
H964   H     0.46014   0.37522   0.65616   0.00000  Uiso   1.00
H965   H     0.41996   0.37383   0.69214   0.00000  Uiso   1.00
N966   N     0.54887   0.61612   0.81182   0.00000  Uiso   1.00
H967   H     0.53949   0.62420   0.84400   0.00000  Uiso   1.00
H968   H     0.57989   0.62592   0.80830   0.00000  Uiso   1.00
N969   N     0.57230   0.52915   0.61723   0.00000  Uiso   1.00
H970   H     0.58210   0.50262   0.63832   0.00000  Uiso   1.00
H971   H     0.56542   0.55678   0.63689   0.00000  Uiso   1.00
N972   N     0.57442   0.47665   0.88660   0.00000  Uiso   1.00
H973   H     0.56982   0.44857   0.86691   0.00000  Uiso   1.00
H974   H     0.58250   0.50359   0.86569   0.00000  Uiso   1.00
N975   N     0.42589   0.52609   0.88065   0.00000  Uiso   1.00
H976   H     0.41700   0.49940   0.86046   0.00000  Uiso   1.00
H977   H     0.43229   0.55376   0.86001   0.00000  Uiso   1.00
N978   N     0.42477   0.47884   0.61532   0.00000  Uiso   1.00
H979   H     0.43005   0.45102   0.63630   0.00000  Uiso   1.00
H980   H     0.41649   0.50598   0.63507   0.00000  Uiso   1.00
C981   C     0.75340   0.50011   0.74979   0.00000  Uiso   1.00
C982   C     0.91326   0.49989   0.75021   0.00000  Uiso   1.00
C983   C     0.83301   0.50044   0.66427   0.00000  Uiso   1.00
C984   C     0.83351   0.49972   0.83573   0.00000  Uiso   1.00
C985   C     0.85684   0.35584   0.78071   0.00000  Uiso   1.00
C986   C     0.80980   0.64405   0.71928   0.00000  Uiso   1.00
C987   C     0.80955   0.35847   0.71979   0.00000  Uiso   1.00
C988   C     0.85708   0.64141   0.78027   0.00000  Uiso   1.00
C989   C     0.68807   0.46172   0.73634   0.00000  Uiso   1.00
C990   C     0.97861   0.53829   0.76366   0.00000  Uiso   1.00
C991   C     0.97868   0.46150   0.73673   0.00000  Uiso   1.00
C992   C     0.68799   0.53850   0.76331   0.00000  Uiso   1.00
C993   C     0.86765   0.51696   0.54776   0.00000  Uiso   1.00
C994   C     0.86848   0.48775   0.95400   0.00000  Uiso   1.00
C995   C     0.79678   0.51505   0.95107   0.00000  Uiso   1.00
C996   C     0.79652   0.48915   0.54694   0.00000  Uiso   1.00
C997   C     0.86830   0.51602   0.59397   0.00000  Uiso   1.00
C998   C     0.86932   0.48745   0.90785   0.00000  Uiso   1.00
C999   C     0.79659   0.51346   0.90493   0.00000  Uiso   1.00
C1000  C     0.79611   0.48952   0.59310   0.00000  Uiso   1.00
C1001  C     0.83254   0.50173   0.61656   0.00000  Uiso   1.00
C1002  C     0.83296   0.49945   0.88341   0.00000  Uiso   1.00
C1003  C     0.83218   0.50275   0.52418   0.00000  Uiso   1.00
C1004  C     0.83246   0.50183   0.97570   0.00000  Uiso   1.00
C1005  C     0.95746   0.49981   0.75033   0.00000  Uiso   1.00
C1006  C     0.70921   0.50020   0.74968   0.00000  Uiso   1.00
H1007  H     0.89493   0.52874   0.53034   0.00000  Uiso   1.00
H1008  H     0.89611   0.47716   0.97283   0.00000  Uiso   1.00
H1009  H     0.76912   0.52696   0.96759   0.00000  Uiso   1.00
H1010  H     0.76897   0.47805   0.52895   0.00000  Uiso   1.00
H1011  H     0.70442   0.43208   0.72536   0.00000  Uiso   1.00
H1012  H     0.96225   0.56795   0.77461   0.00000  Uiso   1.00
H1013  H     0.96237   0.43175   0.72598   0.00000  Uiso   1.00
H1014  H     0.70431   0.56823   0.77410   0.00000  Uiso   1.00
N1015  N     0.83333   0.61907   0.75000   0.00000  Uiso   1.00
N1016  N     0.83333   0.38093   0.75000   0.00000  Uiso   1.00
O1017  O     0.77226   0.53821   0.75000   0.00000  Uiso   1.00
O1018  O     0.89441   0.46179   0.75001   0.00000  Uiso   1.00
O1019  O     0.89441   0.53821   0.75001   0.00000  Uiso   1.00
O1020  O     0.77226   0.46179   0.74999   0.00000  Uiso   1.00
O1021  O     0.83333   0.53822   0.68453   0.00000  Uiso   1.00
O1022  O     0.83334   0.46178   0.81547   0.00000  Uiso   1.00
O1023  O     0.83334   0.53822   0.81547   0.00000  Uiso   1.00
O1024  O     0.83333   0.46178   0.68453   0.00000  Uiso   1.00
Zn1025 Zn    0.83333   0.55104   0.75000   0.00000  Uiso   1.00
Zn1026 Zn    0.83333   0.44896   0.75000   0.00000  Uiso   1.00
N1027  N     0.88072   0.37678   0.81508   0.00000  Uiso   1.00
H1028  H     0.86023   0.39078   0.83772   0.00000  Uiso   1.00
H1029  H     0.90000   0.40096   0.80113   0.00000  Uiso   1.00
N1030  N     0.78572   0.62298   0.68502   0.00000  Uiso   1.00
H1031  H     0.80587   0.60869   0.66223   0.00000  Uiso   1.00
H1032  H     0.76627   0.59899   0.69900   0.00000  Uiso   1.00
N1033  N     0.78429   0.38358   0.68835   0.00000  Uiso   1.00
H1034  H     0.79347   0.37522   0.65616   0.00000  Uiso   1.00
H1035  H     0.75329   0.37383   0.69214   0.00000  Uiso   1.00
N1036  N     0.88220   0.61612   0.81182   0.00000  Uiso   1.00
H1037  H     0.87282   0.62420   0.84400   0.00000  Uiso   1.00
H1038  H     0.91322   0.62592   0.80830   0.00000  Uiso   1.00
N1039  N     0.90563   0.52915   0.61723   0.00000  Uiso   1.00
H1040  H     0.91544   0.50262   0.63832   0.00000  Uiso   1.00
H1041  H     0.89875   0.55678   0.63689   0.00000  Uiso   1.00
N1042  N     0.90775   0.47665   0.88660   0.00000  Uiso   1.00
H1043  H     0.90315   0.44857   0.86691   0.00000  Uiso   1.00
H1044  H     0.91583   0.50359   0.86569   0.00000  Uiso   1.00
N1045  N     0.75922   0.52609   0.88065   0.00000  Uiso   1.00
H1046  H     0.75033   0.49940   0.86046   0.00000  Uiso   1.00
H1047  H     0.76562   0.55376   0.86001   0.00000  Uiso   1.00
N1048  N     0.75810   0.47884   0.61532   0.00000  Uiso   1.00
H1049  H     0.76338   0.45102   0.63630   0.00000  Uiso   1.00
H1050  H     0.74982   0.50598   0.63507   0.00000  Uiso   1.00
C1051  C     0.08674   0.83345   0.74979   0.00000  Uiso   1.00
C1052  C     0.24660   0.83322   0.75021   0.00000  Uiso   1.00
C1053  C     0.16634   0.83377   0.66427   0.00000  Uiso   1.00
C1054  C     0.16685   0.83305   0.83573   0.00000  Uiso   1.00
C1055  C     0.19018   0.68917   0.78071   0.00000  Uiso   1.00
C1056  C     0.14313   0.97738   0.71928   0.00000  Uiso   1.00
C1057  C     0.14289   0.69181   0.71979   0.00000  Uiso   1.00
C1058  C     0.19041   0.97474   0.78027   0.00000  Uiso   1.00
C1059  C     0.02140   0.79505   0.73634   0.00000  Uiso   1.00
C1060  C     0.31194   0.87163   0.76366   0.00000  Uiso   1.00
C1061  C     0.31202   0.79483   0.73673   0.00000  Uiso   1.00
C1062  C     0.02133   0.87183   0.76331   0.00000  Uiso   1.00
C1063  C     0.20099   0.85029   0.54776   0.00000  Uiso   1.00
C1064  C     0.20181   0.82109   0.95400   0.00000  Uiso   1.00
C1065  C     0.13011   0.84838   0.95107   0.00000  Uiso   1.00
C1066  C     0.12985   0.82249   0.54694   0.00000  Uiso   1.00
C1067  C     0.20163   0.84935   0.59397   0.00000  Uiso   1.00
C1068  C     0.20265   0.82079   0.90785   0.00000  Uiso   1.00
C1069  C     0.12992   0.84679   0.90493   0.00000  Uiso   1.00
C1070  C     0.12944   0.82285   0.59310   0.00000  Uiso   1.00
C1071  C     0.16587   0.83507   0.61656   0.00000  Uiso   1.00
C1072  C     0.16630   0.83278   0.88341   0.00000  Uiso   1.00
C1073  C     0.16551   0.83608   0.52418   0.00000  Uiso   1.00
C1074  C     0.16579   0.83517   0.97570   0.00000  Uiso   1.00
C1075  C     0.29080   0.83314   0.75033   0.00000  Uiso   1.00
C1076  C     0.04255   0.83353   0.74968   0.00000  Uiso   1.00
H1077  H     0.22826   0.86207   0.53034   0.00000  Uiso   1.00
H1078  H     0.22944   0.81049   0.97283   0.00000  Uiso   1.00
H1079  H     0.10245   0.86030   0.96759   0.00000  Uiso   1.00
H1080  H     0.10230   0.81138   0.52895   0.00000  Uiso   1.00
H1081  H     0.03776   0.76541   0.72536   0.00000  Uiso   1.00
H1082  H     0.29559   0.90128   0.77461   0.00000  Uiso   1.00
H1083  H     0.29571   0.76508   0.72598   0.00000  Uiso   1.00
H1084  H     0.03764   0.90157   0.77410   0.00000  Uiso   1.00
N1085  N     0.16667   0.95240   0.75000   0.00000  Uiso   1.00
N1086  N     0.16667   0.71427   0.75000   0.00000  Uiso   1.00
O1087  O     0.10559   0.87154   0.75000   0.00000  Uiso   1.00
O1088  O     0.22774   0.79513   0.75001   0.00000  Uiso   1.00
O1089  O     0.22774   0.87154   0.75001   0.00000  Uiso   1.00
O1090  O     0.10559   0.79513   0.74999   0.00000  Uiso   1.00
O1091  O     0.16666   0.87155   0.68453   0.00000  Uiso   1.00
O1092  O     0.16667   0.79511   0.81547   0.00000  Uiso   1.00
O1093  O     0.16667   0.87155   0.81547   0.00000  Uiso   1.00
O1094  O     0.16666   0.79511   0.68453   0.00000  Uiso   1.00
Zn1095 Zn    0.16667   0.88437   0.75000   0.00000  Uiso   1.00
Zn1096 Zn    0.16667   0.78229   0.75000   0.00000  Uiso   1.00
N1097  N     0.21405   0.71012   0.81508   0.00000  Uiso   1.00
H1098  H     0.19357   0.72411   0.83772   0.00000  Uiso   1.00
H1099  H     0.23333   0.73429   0.80113   0.00000  Uiso   1.00
N1100  N     0.11906   0.95632   0.68502   0.00000  Uiso   1.00
H1101  H     0.13921   0.94203   0.66223   0.00000  Uiso   1.00
H1102  H     0.09960   0.93232   0.69900   0.00000  Uiso   1.00
N1103  N     0.11763   0.71692   0.68835   0.00000  Uiso   1.00
H1104  H     0.12681   0.70855   0.65616   0.00000  Uiso   1.00
H1105  H     0.08662   0.70717   0.69214   0.00000  Uiso   1.00
N1106  N     0.21554   0.94945   0.81182   0.00000  Uiso   1.00
H1107  H     0.20616   0.95753   0.84400   0.00000  Uiso   1.00
H1108  H     0.24655   0.95925   0.80830   0.00000  Uiso   1.00
N1109  N     0.23896   0.86248   0.61723   0.00000  Uiso   1.00
H1110  H     0.24877   0.83595   0.63832   0.00000  Uiso   1.00
H1111  H     0.23209   0.89011   0.63689   0.00000  Uiso   1.00
N1112  N     0.24108   0.80999   0.88660   0.00000  Uiso   1.00
H1113  H     0.23648   0.78190   0.86691   0.00000  Uiso   1.00
H1114  H     0.24917   0.83692   0.86569   0.00000  Uiso   1.00
N1115  N     0.09256   0.85943   0.88065   0.00000  Uiso   1.00
H1116  H     0.08367   0.83274   0.86046   0.00000  Uiso   1.00
H1117  H     0.09896   0.88709   0.86001   0.00000  Uiso   1.00
N1118  N     0.09143   0.81218   0.61532   0.00000  Uiso   1.00
H1119  H     0.09671   0.78435   0.63630   0.00000  Uiso   1.00
H1120  H     0.08315   0.83932   0.63507   0.00000  Uiso   1.00
C1121  C     0.42007   0.83345   0.74979   0.00000  Uiso   1.00
C1122  C     0.57993   0.83322   0.75021   0.00000  Uiso   1.00
C1123  C     0.49968   0.83377   0.66427   0.00000  Uiso   1.00
C1124  C     0.50018   0.83305   0.83573   0.00000  Uiso   1.00
C1125  C     0.52351   0.68917   0.78071   0.00000  Uiso   1.00
C1126  C     0.47646   0.97738   0.71928   0.00000  Uiso   1.00
C1127  C     0.47622   0.69181   0.71979   0.00000  Uiso   1.00
C1128  C     0.52374   0.97474   0.78027   0.00000  Uiso   1.00
C1129  C     0.35473   0.79505   0.73634   0.00000  Uiso   1.00
C1130  C     0.64528   0.87163   0.76366   0.00000  Uiso   1.00
C1131  C     0.64535   0.79483   0.73673   0.00000  Uiso   1.00
C1132  C     0.35466   0.87183   0.76331   0.00000  Uiso   1.00
C1133  C     0.53432   0.85029   0.54776   0.00000  Uiso   1.00
C1134  C     0.53515   0.82109   0.95400   0.00000  Uiso   1.00
C1135  C     0.46344   0.84838   0.95107   0.00000  Uiso   1.00
C1136  C     0.46318   0.82249   0.54694   0.00000  Uiso   1.00
C1137  C     0.53497   0.84935   0.59397   0.00000  Uiso   1.00
C1138  C     0.53598   0.82079   0.90785   0.00000  Uiso   1.00
C1139  C     0.46325   0.84679   0.90493   0.00000  Uiso   1.00
C1140  C     0.46278   0.82285   0.59310   0.00000  Uiso   1.00
C1141  C     0.49921   0.83507   0.61656   0.00000  Uiso   1.00
C1142  C     0.49963   0.83278   0.88341   0.00000  Uiso   1.00
C1143  C     0.49884   0.83608   0.52418   0.00000  Uiso   1.00
C1144  C     0.49913   0.83517   0.97570   0.00000  Uiso   1.00
C1145  C     0.62413   0.83314   0.75033   0.00000  Uiso   1.00
C1146  C     0.37588   0.83353   0.74968   0.00000  Uiso   1.00
H1147  H     0.56160   0.86207   0.53034   0.00000  Uiso   1.00
H1148  H     0.56277   0.81049   0.97283   0.00000  Uiso   1.00
H1149  H     0.43579   0.86030   0.96759   0.00000  Uiso   1.00
H1150  H     0.43563   0.81138   0.52895   0.00000  Uiso   1.00
H1151  H     0.37109   0.76541   0.72536   0.00000  Uiso   1.00
H1152  H     0.62892   0.90128   0.77461   0.00000  Uiso   1.00
H1153  H     0.62904   0.76508   0.72598   0.00000  Uiso   1.00
H1154  H     0.37098   0.90157   0.77410   0.00000  Uiso   1.00
N1155  N     0.50000   0.95240   0.75000   0.00000  Uiso   1.00
N1156  N     0.50000   0.71427   0.75000   0.00000  Uiso   1.00
O1157  O     0.43892   0.87154   0.75000   0.00000  Uiso   1.00
O1158  O     0.56108   0.79513   0.75001   0.00000  Uiso   1.00
O1159  O     0.56108   0.87154   0.75001   0.00000  Uiso   1.00
O1160  O     0.43892   0.79513   0.74999   0.00000  Uiso   1.00
O1161  O     0.50000   0.87155   0.68453   0.00000  Uiso   1.00
O1162  O     0.50000   0.79511   0.81547   0.00000  Uiso   1.00
O1163  O     0.50000   0.87155   0.81547   0.00000  Uiso   1.00
O1164  O     0.50000   0.79511   0.68453   0.00000  Uiso   1.00
Zn1165 Zn    0.50000   0.88437   0.75000   0.00000  Uiso   1.00
Zn1166 Zn    0.50000   0.78229   0.75000   0.00000  Uiso   1.00
N1167  N     0.54738   0.71012   0.81508   0.00000  Uiso   1.00
H1168  H     0.52690   0.72411   0.83772   0.00000  Uiso   1.00
H1169  H     0.56666   0.73429   0.80113   0.00000  Uiso   1.00
N1170  N     0.45239   0.95632   0.68502   0.00000  Uiso   1.00
H1171  H     0.47254   0.94203   0.66223   0.00000  Uiso   1.00
H1172  H     0.43294   0.93232   0.69900   0.00000  Uiso   1.00
N1173  N     0.45096   0.71692   0.68835   0.00000  Uiso   1.00
H1174  H     0.46014   0.70855   0.65616   0.00000  Uiso   1.00
H1175  H     0.41996   0.70717   0.69214   0.00000  Uiso   1.00
N1176  N     0.54887   0.94945   0.81182   0.00000  Uiso   1.00
H1177  H     0.53949   0.95753   0.84400   0.00000  Uiso   1.00
H1178  H     0.57989   0.95925   0.80830   0.00000  Uiso   1.00
N1179  N     0.57230   0.86248   0.61723   0.00000  Uiso   1.00
H1180  H     0.58210   0.83595   0.63832   0.00000  Uiso   1.00
H1181  H     0.56542   0.89011   0.63689   0.00000  Uiso   1.00
N1182  N     0.57442   0.80999   0.88660   0.00000  Uiso   1.00
H1183  H     0.56982   0.78190   0.86691   0.00000  Uiso   1.00
H1184  H     0.58250   0.83692   0.86569   0.00000  Uiso   1.00
N1185  N     0.42589   0.85943   0.88065   0.00000  Uiso   1.00
H1186  H     0.41700   0.83274   0.86046   0.00000  Uiso   1.00
H1187  H     0.43229   0.88709   0.86001   0.00000  Uiso   1.00
N1188  N     0.42477   0.81218   0.61532   0.00000  Uiso   1.00
H1189  H     0.43005   0.78435   0.63630   0.00000  Uiso   1.00
H1190  H     0.41649   0.83932   0.63507   0.00000  Uiso   1.00
C1191  C     0.75340   0.83345   0.74979   0.00000  Uiso   1.00
C1192  C     0.91326   0.83322   0.75021   0.00000  Uiso   1.00
C1193  C     0.83301   0.83377   0.66427   0.00000  Uiso   1.00
C1194  C     0.83351   0.83305   0.83573   0.00000  Uiso   1.00
C1195  C     0.85684   0.68917   0.78071   0.00000  Uiso   1.00
C1196  C     0.80980   0.97738   0.71928   0.00000  Uiso   1.00
C1197  C     0.80955   0.69181   0.71979   0.00000  Uiso   1.00
C1198  C     0.85708   0.97474   0.78027   0.00000  Uiso   1.00
C1199  C     0.68807   0.79505   0.73634   0.00000  Uiso   1.00
C1200  C     0.97861   0.87163   0.76366   0.00000  Uiso   1.00
C1201  C     0.97868   0.79483   0.73673   0.00000  Uiso   1.00
C1202  C     0.68799   0.87183   0.76331   0.00000  Uiso   1.00
C1203  C     0.86765   0.85029   0.54776   0.00000  Uiso   1.00
C1204  C     0.86848   0.82109   0.95400   0.00000  Uiso   1.00
C1205  C     0.79678   0.84838   0.95107   0.00000  Uiso   1.00
C1206  C     0.79652   0.82249   0.54694   0.00000  Uiso   1.00
C1207  C     0.86830   0.84935   0.59397   0.00000  Uiso   1.00
C1208  C     0.86932   0.82079   0.90785   0.00000  Uiso   1.00
C1209  C     0.79659   0.84679   0.90493   0.00000  Uiso   1.00
C1210  C     0.79611   0.82285   0.59310   0.00000  Uiso   1.00
C1211  C     0.83254   0.83507   0.61656   0.00000  Uiso   1.00
C1212  C     0.83296   0.83278   0.88341   0.00000  Uiso   1.00
C1213  C     0.83218   0.83608   0.52418   0.00000  Uiso   1.00
C1214  C     0.83246   0.83517   0.97570   0.00000  Uiso   1.00
C1215  C     0.95746   0.83314   0.75033   0.00000  Uiso   1.00
C1216  C     0.70921   0.83353   0.74968   0.00000  Uiso   1.00
H1217  H     0.89493   0.86207   0.53034   0.00000  Uiso   1.00
H1218  H     0.89611   0.81049   0.97283   0.00000  Uiso   1.00
H1219  H     0.76912   0.86030   0.96759   0.00000  Uiso   1.00
H1220  H     0.76897   0.81138   0.52895   0.00000  Uiso   1.00
H1221  H     0.70442   0.76541   0.72536   0.00000  Uiso   1.00
H1222  H     0.96225   0.90128   0.77461   0.00000  Uiso   1.00
H1223  H     0.96237   0.76508   0.72598   0.00000  Uiso   1.00
H1224  H     0.70431   0.90157   0.77410   0.00000  Uiso   1.00
N1225  N     0.83333   0.95240   0.75000   0.00000  Uiso   1.00
N1226  N     0.83333   0.71427   0.75000   0.00000  Uiso   1.00
O1227  O     0.77226   0.87154   0.75000   0.00000  Uiso   1.00
O1228  O     0.89441   0.79513   0.75001   0.00000  Uiso   1.00
O1229  O     0.89441   0.87154   0.75001   0.00000  Uiso   1.00
O1230  O     0.77226   0.79513   0.74999   0.00000  Uiso   1.00
O1231  O     0.83333   0.87155   0.68453   0.00000  Uiso   1.00
O1232  O     0.83334   0.79511   0.81547   0.00000  Uiso   1.00
O1233  O     0.83334   0.87155   0.81547   0.00000  Uiso   1.00
O1234  O     0.83333   0.79511   0.68453   0.00000  Uiso   1.00
Zn1235 Zn    0.83333   0.88437   0.75000   0.00000  Uiso   1.00
Zn1236 Zn    0.83333   0.78229   0.75000   0.00000  Uiso   1.00
N1237  N     0.88072   0.71012   0.81508   0.00000  Uiso   1.00
H1238  H     0.86023   0.72411   0.83772   0.00000  Uiso   1.00
H1239  H     0.90000   0.73429   0.80113   0.00000  Uiso   1.00
N1240  N     0.78572   0.95632   0.68502   0.00000  Uiso   1.00
H1241  H     0.80587   0.94203   0.66223   0.00000  Uiso   1.00
H1242  H     0.76627   0.93232   0.69900   0.00000  Uiso   1.00
N1243  N     0.78429   0.71692   0.68835   0.00000  Uiso   1.00
H1244  H     0.79347   0.70855   0.65616   0.00000  Uiso   1.00
H1245  H     0.75329   0.70717   0.69214   0.00000  Uiso   1.00
N1246  N     0.88220   0.94945   0.81182   0.00000  Uiso   1.00
H1247  H     0.87282   0.95753   0.84400   0.00000  Uiso   1.00
H1248  H     0.91322   0.95925   0.80830   0.00000  Uiso   1.00
N1249  N     0.90563   0.86248   0.61723   0.00000  Uiso   1.00
H1250  H     0.91544   0.83595   0.63832   0.00000  Uiso   1.00
H1251  H     0.89875   0.89011   0.63689   0.00000  Uiso   1.00
N1252  N     0.90775   0.80999   0.88660   0.00000  Uiso   1.00
H1253  H     0.90315   0.78190   0.86691   0.00000  Uiso   1.00
H1254  H     0.91583   0.83692   0.86569   0.00000  Uiso   1.00
N1255  N     0.75922   0.85943   0.88065   0.00000  Uiso   1.00
H1256  H     0.75033   0.83274   0.86046   0.00000  Uiso   1.00
H1257  H     0.76562   0.88709   0.86001   0.00000  Uiso   1.00
N1258  N     0.75810   0.81218   0.61532   0.00000  Uiso   1.00
H1259  H     0.76338   0.78435   0.63630   0.00000  Uiso   1.00
H1260  H     0.74982   0.83932   0.63507   0.00000  Uiso   1.00
loop_
_geom_bond_atom_site_label_1
_geom_bond_atom_site_label_2
_geom_bond_distance
_geom_bond_site_symmetry_2
_ccdc_geom_bond_type
C1     O37     1.290   .     A
C1     C26     1.417   .     S
C1     O40     1.288   .     A
C2     O38     1.290   .     A
C2     C25     1.417   .     S
C2     O39     1.288   .     A
C3     O41     1.288   .     A
C3     O44     1.292   .     A
C3     C21     1.427   .     S
C4     O43     1.288   .     A
C4     C22     1.427   .     S
C4     O42     1.292   .     A
C5     N47     1.427   .     S
C5     N36     1.384   .     A
C5     C428    1.424   1_545 S
C6     N35     1.382   .     A
C6     N50     1.430   .     S
C6     C217    1.424   .     S
C7     N36     1.361   .     A
C7     N53     1.428   .     S
C7     C426    1.424   1_545 S
C8     N56     1.431   .     S
C8     N35     1.360   .     A
C8     C215    1.424   .     S
C9     C26     1.397   .     A
C9     H31     1.083   .     S
C9     C151    1.370   1_455 S
C10    C25     1.398   .     A
C10    H32     1.083   .     S
C10    C82     1.370   .     S
C11    C25     1.395   .     A
C11    H33     1.084   .     S
C11    C79     1.370   .     S
C12    H34     1.084   .     S
C12    C26     1.395   .     A
C12    C150    1.370   1_455 S
C13    C17     1.382   .     A
C13    C23     1.400   .     A
C13    H27     1.083   .     S
C14    C24     1.400   .     A
C14    C18     1.382   .     A
C14    H28     1.083   .     S
C15    C24     1.400   .     A
C15    C19     1.382   .     A
C15    H29     1.083   .     S
C16    C23     1.400   .     A
C16    C20     1.382   .     A
C16    H30     1.083   .     S
C17    N59     1.434   .     S
C17    C21     1.406   .     A
C18    N62     1.434   .     S
C18    C22     1.406   .     A
C19    N65     1.435   .     S
C19    C22     1.407   .     A
C20    C21     1.406   .     A
C20    N68     1.434   .     S
C23    C654    1.451   1_554 S
C24    C653    1.451   .     S
N35    Zn45    2.028   .     S
N36    Zn46    2.028   .     S
O37    Zn45    1.998   .     S
O38    Zn46    1.998   .     S
O39    Zn45    1.993   .     S
O40    Zn46    1.993   .     S
O41    Zn45    2.002   .     S
O42    Zn46    2.002   .     S
O43    Zn45    1.989   .     S
O44    Zn46    1.989   .     S
N47    H48     1.042   .     S
N47    H49     1.040   .     S
N50    H52     1.040   .     S
N50    H51     1.042   .     S
N53    H54     1.046   .     S
N53    H55     1.045   .     S
N56    H58     1.045   .     S
N56    H57     1.045   .     S
N59    H60     1.046   .     S
N59    H61     1.045   .     S
N62    H64     1.046   .     S
N62    H63     1.042   .     S
N65    H66     1.046   .     S
N65    H67     1.045   .     S
N68    H69     1.042   .     S
N68    H70     1.046   .     S
C71    O107    1.290   .     A
C71    C96     1.417   .     S
C71    O110    1.288   .     A
C72    O108    1.290   .     A
C72    C95     1.417   .     S
C72    O109    1.288   .     A
C73    O111    1.288   .     A
C73    O114    1.292   .     A
C73    C91     1.427   .     S
C74    O113    1.288   .     A
C74    C92     1.427   .     S
C74    O112    1.292   .     A
C75    N117    1.427   .     S
C75    N106    1.384   .     A
C75    C498    1.424   1_545 S
C76    N105    1.382   .     A
C76    N120    1.430   .     S
C76    C287    1.424   .     S
C77    N106    1.361   .     A
C77    N123    1.428   .     S
C77    C496    1.424   1_545 S
C78    N126    1.431   .     S
C78    N105    1.360   .     A
C78    C285    1.424   .     S
C79    C96     1.397   .     A
C79    H101    1.083   .     S
C80    C95     1.398   .     A
C80    H102    1.083   .     S
C80    C152    1.370   .     S
C81    C95     1.395   .     A
C81    H103    1.084   .     S
C81    C149    1.370   .     S
C82    H104    1.084   .     S
C82    C96     1.395   .     A
C83    C87     1.382   .     A
C83    C93     1.400   .     A
C83    H97     1.083   .     S
C84    C94     1.400   .     A
C84    C88     1.382   .     A
C84    H98     1.083   .     S
C85    C94     1.400   .     A
C85    C89     1.382   .     A
C85    H99     1.083   .     S
C86    C93     1.400   .     A
C86    C90     1.382   .     A
C86    H100    1.083   .     S
C87    N129    1.434   .     S
C87    C91     1.406   .     A
C88    N132    1.434   .     S
C88    C92     1.406   .     A
C89    N135    1.435   .     S
C89    C92     1.407   .     A
C90    C91     1.406   .     A
C90    N138    1.434   .     S
C93    C724    1.451   1_554 S
C94    C723    1.451   .     S
N105   Zn115   2.028   .     S
N106   Zn116   2.028   .     S
O107   Zn115   1.998   .     S
O108   Zn116   1.998   .     S
O109   Zn115   1.993   .     S
O110   Zn116   1.993   .     S
O111   Zn115   2.002   .     S
O112   Zn116   2.002   .     S
O113   Zn115   1.989   .     S
O114   Zn116   1.989   .     S
N117   H118    1.042   .     S
N117   H119    1.040   .     S
N120   H122    1.040   .     S
N120   H121    1.042   .     S
N123   H124    1.046   .     S
N123   H125    1.045   .     S
N126   H128    1.045   .     S
N126   H127    1.045   .     S
N129   H130    1.046   .     S
N129   H131    1.045   .     S
N132   H134    1.046   .     S
N132   H133    1.042   .     S
N135   H136    1.046   .     S
N135   H137    1.045   .     S
N138   H139    1.042   .     S
N138   H140    1.046   .     S
C141   O177    1.290   .     A
C141   C166    1.417   .     S
C141   O180    1.288   .     A
C142   O178    1.290   .     A
C142   C165    1.417   .     S
C142   O179    1.288   .     A
C143   O181    1.288   .     A
C143   O184    1.292   .     A
C143   C161    1.427   .     S
C144   O183    1.288   .     A
C144   C162    1.427   .     S
C144   O182    1.292   .     A
C145   N187    1.427   .     S
C145   N176    1.384   .     A
C145   C568    1.424   1_545 S
C146   N175    1.382   .     A
C146   N190    1.430   .     S
C146   C357    1.424   .     S
C147   N176    1.361   .     A
C147   N193    1.428   .     S
C147   C566    1.424   1_545 S
C148   N196    1.431   .     S
C148   N175    1.360   .     A
C148   C355    1.424   .     S
C149   C166    1.397   .     A
C149   H171    1.083   .     S
C150   C165    1.398   .     A
C150   H172    1.083   .     S
C150   C12     1.370   1_655 S
C151   C165    1.395   .     A
C151   H173    1.084   .     S
C151   C9      1.370   1_655 S
C152   H174    1.084   .     S
C152   C166    1.395   .     A
C153   C157    1.382   .     A
C153   C163    1.400   .     A
C153   H167    1.083   .     S
C154   C164    1.400   .     A
C154   C158    1.382   .     A
C154   H168    1.083   .     S
C155   C164    1.400   .     A
C155   C159    1.382   .     A
C155   H169    1.083   .     S
C156   C163    1.400   .     A
C156   C160    1.382   .     A
C156   H170    1.083   .     S
C157   N199    1.434   .     S
C157   C161    1.406   .     A
C158   N202    1.434   .     S
C158   C162    1.406   .     A
C159   N205    1.435   .     S
C159   C162    1.407   .     A
C160   C161    1.406   .     A
C160   N208    1.434   .     S
C163   C794    1.451   1_554 S
C164   C793    1.451   .     S
N175   Zn185   2.028   .     S
N176   Zn186   2.028   .     S
O177   Zn185   1.998   .     S
O178   Zn186   1.998   .     S
O179   Zn185   1.993   .     S
O180   Zn186   1.993   .     S
O181   Zn185   2.002   .     S
O182   Zn186   2.002   .     S
O183   Zn185   1.989   .     S
O184   Zn186   1.989   .     S
N187   H188    1.042   .     S
N187   H189    1.040   .     S
N190   H192    1.040   .     S
N190   H191    1.042   .     S
N193   H194    1.046   .     S
N193   H195    1.045   .     S
N196   H198    1.045   .     S
N196   H197    1.045   .     S
N199   H200    1.046   .     S
N199   H201    1.045   .     S
N202   H204    1.046   .     S
N202   H203    1.042   .     S
N205   H206    1.046   .     S
N205   H207    1.045   .     S
N208   H209    1.042   .     S
N208   H210    1.046   .     S
C211   O247    1.290   .     A
C211   C236    1.417   .     S
C211   O250    1.288   .     A
C212   O248    1.290   .     A
C212   C235    1.417   .     S
C212   O249    1.288   .     A
C213   O251    1.288   .     A
C213   O254    1.292   .     A
C213   C231    1.427   .     S
C214   O253    1.288   .     A
C214   C232    1.427   .     S
C214   O252    1.292   .     A
C215   N257    1.427   .     S
C215   N246    1.384   .     A
C216   N245    1.382   .     A
C216   N260    1.430   .     S
C216   C427    1.424   .     S
C217   N246    1.361   .     A
C217   N263    1.428   .     S
C218   N266    1.431   .     S
C218   N245    1.360   .     A
C218   C425    1.424   .     S
C219   C236    1.397   .     A
C219   H241    1.083   .     S
C219   C361    1.370   1_455 S
C220   C235    1.398   .     A
C220   H242    1.083   .     S
C220   C292    1.370   .     S
C221   C235    1.395   .     A
C221   H243    1.084   .     S
C221   C289    1.370   .     S
C222   H244    1.084   .     S
C222   C236    1.395   .     A
C222   C360    1.370   1_455 S
C223   C227    1.382   .     A
C223   C233    1.400   .     A
C223   H237    1.083   .     S
C224   C234    1.400   .     A
C224   C228    1.382   .     A
C224   H238    1.083   .     S
C225   C234    1.400   .     A
C225   C229    1.382   .     A
C225   H239    1.083   .     S
C226   C233    1.400   .     A
C226   C230    1.382   .     A
C226   H240    1.083   .     S
C227   N269    1.434   .     S
C227   C231    1.406   .     A
C228   N272    1.434   .     S
C228   C232    1.406   .     A
C229   N275    1.435   .     S
C229   C232    1.407   .     A
C230   C231    1.406   .     A
C230   N278    1.434   .     S
C233   C864    1.451   1_554 S
C234   C863    1.451   .     S
N245   Zn255   2.028   .     S
N246   Zn256   2.028   .     S
O247   Zn255   1.998   .     S
O248   Zn256   1.998   .     S
O249   Zn255   1.993   .     S
O250   Zn256   1.993   .     S
O251   Zn255   2.002   .     S
O252   Zn256   2.002   .     S
O253   Zn255   1.989   .     S
O254   Zn256   1.989   .     S
N257   H258    1.042   .     S
N257   H259    1.040   .     S
N260   H262    1.040   .     S
N260   H261    1.042   .     S
N263   H264    1.046   .     S
N263   H265    1.045   .     S
N266   H268    1.045   .     S
N266   H267    1.045   .     S
N269   H270    1.046   .     S
N269   H271    1.045   .     S
N272   H274    1.046   .     S
N272   H273    1.042   .     S
N275   H276    1.046   .     S
N275   H277    1.045   .     S
N278   H279    1.042   .     S
N278   H280    1.046   .     S
C281   O317    1.290   .     A
C281   C306    1.417   .     S
C281   O320    1.288   .     A
C282   O318    1.290   .     A
C282   C305    1.417   .     S
C282   O319    1.288   .     A
C283   O321    1.288   .     A
C283   O324    1.292   .     A
C283   C301    1.427   .     S
C284   O323    1.288   .     A
C284   C302    1.427   .     S
C284   O322    1.292   .     A
C285   N327    1.427   .     S
C285   N316    1.384   .     A
C286   N315    1.382   .     A
C286   N330    1.430   .     S
C286   C497    1.424   .     S
C287   N316    1.361   .     A
C287   N333    1.428   .     S
C288   N336    1.431   .     S
C288   N315    1.360   .     A
C288   C495    1.424   .     S
C289   C306    1.397   .     A
C289   H311    1.083   .     S
C290   C305    1.398   .     A
C290   H312    1.083   .     S
C290   C362    1.370   .     S
C291   C305    1.395   .     A
C291   H313    1.084   .     S
C291   C359    1.370   .     S
C292   H314    1.084   .     S
C292   C306    1.395   .     A
C293   C297    1.382   .     A
C293   C303    1.400   .     A
C293   H307    1.083   .     S
C294   C304    1.400   .     A
C294   C298    1.382   .     A
C294   H308    1.083   .     S
C295   C304    1.400   .     A
C295   C299    1.382   .     A
C295   H309    1.083   .     S
C296   C303    1.400   .     A
C296   C300    1.382   .     A
C296   H310    1.083   .     S
C297   N339    1.434   .     S
C297   C301    1.406   .     A
C298   N342    1.434   .     S
C298   C302    1.406   .     A
C299   N345    1.435   .     S
C299   C302    1.407   .     A
C300   C301    1.406   .     A
C300   N348    1.434   .     S
C303   C934    1.451   1_554 S
C304   C933    1.451   .     S
N315   Zn325   2.028   .     S
N316   Zn326   2.028   .     S
O317   Zn325   1.998   .     S
O318   Zn326   1.998   .     S
O319   Zn325   1.993   .     S
O320   Zn326   1.993   .     S
O321   Zn325   2.002   .     S
O322   Zn326   2.002   .     S
O323   Zn325   1.989   .     S
O324   Zn326   1.989   .     S
N327   H328    1.042   .     S
N327   H329    1.040   .     S
N330   H332    1.040   .     S
N330   H331    1.042   .     S
N333   H334    1.046   .     S
N333   H335    1.045   .     S
N336   H338    1.045   .     S
N336   H337    1.045   .     S
N339   H340    1.046   .     S
N339   H341    1.045   .     S
N342   H344    1.046   .     S
N342   H343    1.042   .     S
N345   H346    1.046   .     S
N345   H347    1.045   .     S
N348   H349    1.042   .     S
N348   H350    1.046   .     S
C351   O387    1.290   .     A
C351   C376    1.417   .     S
C351   O390    1.288   .     A
C352   O388    1.290   .     A
C352   C375    1.417   .     S
C352   O389    1.288   .     A
C353   O391    1.288   .     A
C353   O394    1.292   .     A
C353   C371    1.427   .     S
C354   O393    1.288   .     A
C354   C372    1.427   .     S
C354   O392    1.292   .     A
C355   N397    1.427   .     S
C355   N386    1.384   .     A
C356   N385    1.382   .     A
C356   N400    1.430   .     S
C356   C567    1.424   .     S
C357   N386    1.361   .     A
C357   N403    1.428   .     S
C358   N406    1.431   .     S
C358   N385    1.360   .     A
C358   C565    1.424   .     S
C359   C376    1.397   .     A
C359   H381    1.083   .     S
C360   C375    1.398   .     A
C360   H382    1.083   .     S
C360   C222    1.370   1_655 S
C361   C375    1.395   .     A
C361   H383    1.084   .     S
C361   C219    1.370   1_655 S
C362   H384    1.084   .     S
C362   C376    1.395   .     A
C363   C367    1.382   .     A
C363   C373    1.400   .     A
C363   H377    1.083   .     S
C364   C374    1.400   .     A
C364   C368    1.382   .     A
C364   H378    1.083   .     S
C365   C374    1.400   .     A
C365   C369    1.382   .     A
C365   H379    1.083   .     S
C366   C373    1.400   .     A
C366   C370    1.382   .     A
C366   H380    1.083   .     S
C367   N409    1.434   .     S
C367   C371    1.406   .     A
C368   N412    1.434   .     S
C368   C372    1.406   .     A
C369   N415    1.435   .     S
C369   C372    1.407   .     A
C370   C371    1.406   .     A
C370   N418    1.434   .     S
C373   C1004   1.451   1_554 S
C374   C1003   1.451   .     S
N385   Zn395   2.028   .     S
N386   Zn396   2.028   .     S
O387   Zn395   1.998   .     S
O388   Zn396   1.998   .     S
O389   Zn395   1.993   .     S
O390   Zn396   1.993   .     S
O391   Zn395   2.002   .     S
O392   Zn396   2.002   .     S
O393   Zn395   1.989   .     S
O394   Zn396   1.989   .     S
N397   H398    1.042   .     S
N397   H399    1.040   .     S
N400   H402    1.040   .     S
N400   H401    1.042   .     S
N403   H404    1.046   .     S
N403   H405    1.045   .     S
N406   H408    1.045   .     S
N406   H407    1.045   .     S
N409   H410    1.046   .     S
N409   H411    1.045   .     S
N412   H414    1.046   .     S
N412   H413    1.042   .     S
N415   H416    1.046   .     S
N415   H417    1.045   .     S
N418   H419    1.042   .     S
N418   H420    1.046   .     S
C421   O457    1.290   .     A
C421   C446    1.417   .     S
C421   O460    1.288   .     A
C422   O458    1.290   .     A
C422   C445    1.417   .     S
C422   O459    1.288   .     A
C423   O461    1.288   .     A
C423   O464    1.292   .     A
C423   C441    1.427   .     S
C424   O463    1.288   .     A
C424   C442    1.427   .     S
C424   O462    1.292   .     A
C425   N467    1.427   .     S
C425   N456    1.384   .     A
C426   N455    1.382   .     A
C426   N470    1.430   .     S
C426   C7      1.424   1_565 S
C427   N456    1.361   .     A
C427   N473    1.428   .     S
C428   N476    1.431   .     S
C428   N455    1.360   .     A
C428   C5      1.424   1_565 S
C429   C446    1.397   .     A
C429   H451    1.083   .     S
C429   C571    1.370   1_455 S
C430   C445    1.398   .     A
C430   H452    1.083   .     S
C430   C502    1.370   .     S
C431   C445    1.395   .     A
C431   H453    1.084   .     S
C431   C499    1.370   .     S
C432   H454    1.084   .     S
C432   C446    1.395   .     A
C432   C570    1.370   1_455 S
C433   C437    1.382   .     A
C433   C443    1.400   .     A
C433   H447    1.083   .     S
C434   C444    1.400   .     A
C434   C438    1.382   .     A
C434   H448    1.083   .     S
C435   C444    1.400   .     A
C435   C439    1.382   .     A
C435   H449    1.083   .     S
C436   C443    1.400   .     A
C436   C440    1.382   .     A
C436   H450    1.083   .     S
C437   N479    1.434   .     S
C437   C441    1.406   .     A
C438   N482    1.434   .     S
C438   C442    1.406   .     A
C439   N485    1.435   .     S
C439   C442    1.407   .     A
C440   C441    1.406   .     A
C440   N488    1.434   .     S
C443   C1074   1.451   1_554 S
C444   C1073   1.451   .     S
N455   Zn465   2.028   .     S
N456   Zn466   2.028   .     S
O457   Zn465   1.998   .     S
O458   Zn466   1.998   .     S
O459   Zn465   1.993   .     S
O460   Zn466   1.993   .     S
O461   Zn465   2.002   .     S
O462   Zn466   2.002   .     S
O463   Zn465   1.989   .     S
O464   Zn466   1.989   .     S
N467   H468    1.042   .     S
N467   H469    1.040   .     S
N470   H472    1.040   .     S
N470   H471    1.042   .     S
N473   H474    1.046   .     S
N473   H475    1.045   .     S
N476   H478    1.045   .     S
N476   H477    1.045   .     S
N479   H480    1.046   .     S
N479   H481    1.045   .     S
N482   H484    1.046   .     S
N482   H483    1.042   .     S
N485   H486    1.046   .     S
N485   H487    1.045   .     S
N488   H489    1.042   .     S
N488   H490    1.046   .     S
C491   O527    1.290   .     A
C491   C516    1.417   .     S
C491   O530    1.288   .     A
C492   O528    1.290   .     A
C492   C515    1.417   .     S
C492   O529    1.288   .     A
C493   O531    1.288   .     A
C493   O534    1.292   .     A
C493   C511    1.427   .     S
C494   O533    1.288   .     A
C494   C512    1.427   .     S
C494   O532    1.292   .     A
C495   N537    1.427   .     S
C495   N526    1.384   .     A
C496   N525    1.382   .     A
C496   N540    1.430   .     S
C496   C77     1.424   1_565 S
C497   N526    1.361   .     A
C497   N543    1.428   .     S
C498   N546    1.431   .     S
C498   N525    1.360   .     A
C498   C75     1.424   1_565 S
C499   C516    1.397   .     A
C499   H521    1.083   .     S
C500   C515    1.398   .     A
C500   H522    1.083   .     S
C500   C572    1.370   .     S
C501   C515    1.395   .     A
C501   H523    1.084   .     S
C501   C569    1.370   .     S
C502   H524    1.084   .     S
C502   C516    1.395   .     A
C503   C507    1.382   .     A
C503   C513    1.400   .     A
C503   H517    1.083   .     S
C504   C514    1.400   .     A
C504   C508    1.382   .     A
C504   H518    1.083   .     S
C505   C514    1.400   .     A
C505   C509    1.382   .     A
C505   H519    1.083   .     S
C506   C513    1.400   .     A
C506   C510    1.382   .     A
C506   H520    1.083   .     S
C507   N549    1.434   .     S
C507   C511    1.406   .     A
C508   N552    1.434   .     S
C508   C512    1.406   .     A
C509   N555    1.435   .     S
C509   C512    1.407   .     A
C510   C511    1.406   .     A
C510   N558    1.434   .     S
C513   C1144   1.451   1_554 S
C514   C1143   1.451   .     S
N525   Zn535   2.028   .     S
N526   Zn536   2.028   .     S
O527   Zn535   1.998   .     S
O528   Zn536   1.998   .     S
O529   Zn535   1.993   .     S
O530   Zn536   1.993   .     S
O531   Zn535   2.002   .     S
O532   Zn536   2.002   .     S
O533   Zn535   1.989   .     S
O534   Zn536   1.989   .     S
N537   H538    1.042   .     S
N537   H539    1.040   .     S
N540   H542    1.040   .     S
N540   H541    1.042   .     S
N543   H544    1.046   .     S
N543   H545    1.045   .     S
N546   H548    1.045   .     S
N546   H547    1.045   .     S
N549   H550    1.046   .     S
N549   H551    1.045   .     S
N552   H554    1.046   .     S
N552   H553    1.042   .     S
N555   H556    1.046   .     S
N555   H557    1.045   .     S
N558   H559    1.042   .     S
N558   H560    1.046   .     S
C561   O597    1.290   .     A
C561   C586    1.417   .     S
C561   O600    1.288   .     A
C562   O598    1.290   .     A
C562   C585    1.417   .     S
C562   O599    1.288   .     A
C563   O601    1.288   .     A
C563   O604    1.292   .     A
C563   C581    1.427   .     S
C564   O603    1.288   .     A
C564   C582    1.427   .     S
C564   O602    1.292   .     A
C565   N607    1.427   .     S
C565   N596    1.384   .     A
C566   N595    1.382   .     A
C566   N610    1.430   .     S
C566   C147    1.424   1_565 S
C567   N596    1.361   .     A
C567   N613    1.428   .     S
C568   N616    1.431   .     S
C568   N595    1.360   .     A
C568   C145    1.424   1_565 S
C569   C586    1.397   .     A
C569   H591    1.083   .     S
C570   C585    1.398   .     A
C570   H592    1.083   .     S
C570   C432    1.370   1_655 S
C571   C585    1.395   .     A
C571   H593    1.084   .     S
C571   C429    1.370   1_655 S
C572   H594    1.084   .     S
C572   C586    1.395   .     A
C573   C577    1.382   .     A
C573   C583    1.400   .     A
C573   H587    1.083   .     S
C574   C584    1.400   .     A
C574   C578    1.382   .     A
C574   H588    1.083   .     S
C575   C584    1.400   .     A
C575   C579    1.382   .     A
C575   H589    1.083   .     S
C576   C583    1.400   .     A
C576   C580    1.382   .     A
C576   H590    1.083   .     S
C577   N619    1.434   .     S
C577   C581    1.406   .     A
C578   N622    1.434   .     S
C578   C582    1.406   .     A
C579   N625    1.435   .     S
C579   C582    1.407   .     A
C580   C581    1.406   .     A
C580   N628    1.434   .     S
C583   C1214   1.451   1_554 S
C584   C1213   1.451   .     S
N595   Zn605   2.028   .     S
N596   Zn606   2.028   .     S
O597   Zn605   1.998   .     S
O598   Zn606   1.998   .     S
O599   Zn605   1.993   .     S
O600   Zn606   1.993   .     S
O601   Zn605   2.002   .     S
O602   Zn606   2.002   .     S
O603   Zn605   1.989   .     S
O604   Zn606   1.989   .     S
N607   H608    1.042   .     S
N607   H609    1.040   .     S
N610   H612    1.040   .     S
N610   H611    1.042   .     S
N613   H614    1.046   .     S
N613   H615    1.045   .     S
N616   H618    1.045   .     S
N616   H617    1.045   .     S
N619   H620    1.046   .     S
N619   H621    1.045   .     S
N622   H624    1.046   .     S
N622   H623    1.042   .     S
N625   H626    1.046   .     S
N625   H627    1.045   .     S
N628   H629    1.042   .     S
N628   H630    1.046   .     S
C631   O667    1.290   .     A
C631   C656    1.417   .     S
C631   O670    1.288   .     A
C632   O668    1.290   .     A
C632   C655    1.417   .     S
C632   O669    1.288   .     A
C633   O671    1.288   .     A
C633   O674    1.292   .     A
C633   C651    1.427   .     S
C634   O673    1.288   .     A
C634   C652    1.427   .     S
C634   O672    1.292   .     A
C635   N677    1.427   .     S
C635   N666    1.384   .     A
C635   C1058   1.424   1_545 S
C636   N665    1.382   .     A
C636   N680    1.430   .     S
C636   C847    1.424   .     S
C637   N666    1.361   .     A
C637   N683    1.428   .     S
C637   C1056   1.424   1_545 S
C638   N686    1.431   .     S
C638   N665    1.360   .     A
C638   C845    1.424   .     S
C639   C656    1.397   .     A
C639   H661    1.083   .     S
C639   C781    1.370   1_455 S
C640   C655    1.398   .     A
C640   H662    1.083   .     S
C640   C712    1.370   .     S
C641   C655    1.395   .     A
C641   H663    1.084   .     S
C641   C709    1.370   .     S
C642   H664    1.084   .     S
C642   C656    1.395   .     A
C642   C780    1.370   1_455 S
C643   C647    1.382   .     A
C643   C653    1.400   .     A
C643   H657    1.083   .     S
C644   C654    1.400   .     A
C644   C648    1.382   .     A
C644   H658    1.083   .     S
C645   C654    1.400   .     A
C645   C649    1.382   .     A
C645   H659    1.083   .     S
C646   C653    1.400   .     A
C646   C650    1.382   .     A
C646   H660    1.083   .     S
C647   N689    1.434   .     S
C647   C651    1.406   .     A
C648   N692    1.434   .     S
C648   C652    1.406   .     A
C649   N695    1.435   .     S
C649   C652    1.407   .     A
C650   C651    1.406   .     A
C650   N698    1.434   .     S
C654   C23     1.451   1_556 S
N665   Zn675   2.028   .     S
N666   Zn676   2.028   .     S
O667   Zn675   1.998   .     S
O668   Zn676   1.998   .     S
O669   Zn675   1.993   .     S
O670   Zn676   1.993   .     S
O671   Zn675   2.002   .     S
O672   Zn676   2.002   .     S
O673   Zn675   1.989   .     S
O674   Zn676   1.989   .     S
N677   H678    1.042   .     S
N677   H679    1.040   .     S
N680   H682    1.040   .     S
N680   H681    1.042   .     S
N683   H684    1.046   .     S
N683   H685    1.045   .     S
N686   H688    1.045   .     S
N686   H687    1.045   .     S
N689   H690    1.046   .     S
N689   H691    1.045   .     S
N692   H694    1.046   .     S
N692   H693    1.042   .     S
N695   H696    1.046   .     S
N695   H697    1.045   .     S
N698   H699    1.042   .     S
N698   H700    1.046   .     S
C701   O737    1.290   .     A
C701   C726    1.417   .     S
C701   O740    1.288   .     A
C702   O738    1.290   .     A
C702   C725    1.417   .     S
C702   O739    1.288   .     A
C703   O741    1.288   .     A
C703   O744    1.292   .     A
C703   C721    1.427   .     S
C704   O743    1.288   .     A
C704   C722    1.427   .     S
C704   O742    1.292   .     A
C705   N747    1.427   .     S
C705   N736    1.384   .     A
C705   C1128   1.424   1_545 S
C706   N735    1.382   .     A
C706   N750    1.430   .     S
C706   C917    1.424   .     S
C707   N736    1.361   .     A
C707   N753    1.428   .     S
C707   C1126   1.424   1_545 S
C708   N756    1.431   .     S
C708   N735    1.360   .     A
C708   C915    1.424   .     S
C709   C726    1.397   .     A
C709   H731    1.083   .     S
C710   C725    1.398   .     A
C710   H732    1.083   .     S
C710   C782    1.370   .     S
C711   C725    1.395   .     A
C711   H733    1.084   .     S
C711   C779    1.370   .     S
C712   H734    1.084   .     S
C712   C726    1.395   .     A
C713   C717    1.382   .     A
C713   C723    1.400   .     A
C713   H727    1.083   .     S
C714   C724    1.400   .     A
C714   C718    1.382   .     A
C714   H728    1.083   .     S
C715   C724    1.400   .     A
C715   C719    1.382   .     A
C715   H729    1.083   .     S
C716   C723    1.400   .     A
C716   C720    1.382   .     A
C716   H730    1.083   .     S
C717   N759    1.434   .     S
C717   C721    1.406   .     A
C718   N762    1.434   .     S
C718   C722    1.406   .     A
C719   N765    1.435   .     S
C719   C722    1.407   .     A
C720   C721    1.406   .     A
C720   N768    1.434   .     S
C724   C93     1.451   1_556 S
N735   Zn745   2.028   .     S
N736   Zn746   2.028   .     S
O737   Zn745   1.998   .     S
O738   Zn746   1.998   .     S
O739   Zn745   1.993   .     S
O740   Zn746   1.993   .     S
O741   Zn745   2.002   .     S
O742   Zn746   2.002   .     S
O743   Zn745   1.989   .     S
O744   Zn746   1.989   .     S
N747   H748    1.042   .     S
N747   H749    1.040   .     S
N750   H752    1.040   .     S
N750   H751    1.042   .     S
N753   H754    1.046   .     S
N753   H755    1.045   .     S
N756   H758    1.045   .     S
N756   H757    1.045   .     S
N759   H760    1.046   .     S
N759   H761    1.045   .     S
N762   H764    1.046   .     S
N762   H763    1.042   .     S
N765   H766    1.046   .     S
N765   H767    1.045   .     S
N768   H769    1.042   .     S
N768   H770    1.046   .     S
C771   O807    1.290   .     A
C771   C796    1.417   .     S
C771   O810    1.288   .     A
C772   O808    1.290   .     A
C772   C795    1.417   .     S
C772   O809    1.288   .     A
C773   O811    1.288   .     A
C773   O814    1.292   .     A
C773   C791    1.427   .     S
C774   O813    1.288   .     A
C774   C792    1.427   .     S
C774   O812    1.292   .     A
C775   N817    1.427   .     S
C775   N806    1.384   .     A
C775   C1198   1.424   1_545 S
C776   N805    1.382   .     A
C776   N820    1.430   .     S
C776   C987    1.424   .     S
C777   N806    1.361   .     A
C777   N823    1.428   .     S
C777   C1196   1.424   1_545 S
C778   N826    1.431   .     S
C778   N805    1.360   .     A
C778   C985    1.424   .     S
C779   C796    1.397   .     A
C779   H801    1.083   .     S
C780   C795    1.398   .     A
C780   H802    1.083   .     S
C780   C642    1.370   1_655 S
C781   C795    1.395   .     A
C781   H803    1.084   .     S
C781   C639    1.370   1_655 S
C782   H804    1.084   .     S
C782   C796    1.395   .     A
C783   C787    1.382   .     A
C783   C793    1.400   .     A
C783   H797    1.083   .     S
C784   C794    1.400   .     A
C784   C788    1.382   .     A
C784   H798    1.083   .     S
C785   C794    1.400   .     A
C785   C789    1.382   .     A
C785   H799    1.083   .     S
C786   C793    1.400   .     A
C786   C790    1.382   .     A
C786   H800    1.083   .     S
C787   N829    1.434   .     S
C787   C791    1.406   .     A
C788   N832    1.434   .     S
C788   C792    1.406   .     A
C789   N835    1.435   .     S
C789   C792    1.407   .     A
C790   C791    1.406   .     A
C790   N838    1.434   .     S
C794   C163    1.451   1_556 S
N805   Zn815   2.028   .     S
N806   Zn816   2.028   .     S
O807   Zn815   1.998   .     S
O808   Zn816   1.998   .     S
O809   Zn815   1.993   .     S
O810   Zn816   1.993   .     S
O811   Zn815   2.002   .     S
O812   Zn816   2.002   .     S
O813   Zn815   1.989   .     S
O814   Zn816   1.989   .     S
N817   H818    1.042   .     S
N817   H819    1.040   .     S
N820   H822    1.040   .     S
N820   H821    1.042   .     S
N823   H824    1.046   .     S
N823   H825    1.045   .     S
N826   H828    1.045   .     S
N826   H827    1.045   .     S
N829   H830    1.046   .     S
N829   H831    1.045   .     S
N832   H834    1.046   .     S
N832   H833    1.042   .     S
N835   H836    1.046   .     S
N835   H837    1.045   .     S
N838   H839    1.042   .     S
N838   H840    1.046   .     S
C841   O877    1.290   .     A
C841   C866    1.417   .     S
C841   O880    1.288   .     A
C842   O878    1.290   .     A
C842   C865    1.417   .     S
C842   O879    1.288   .     A
C843   O881    1.288   .     A
C843   O884    1.292   .     A
C843   C861    1.427   .     S
C844   O883    1.288   .     A
C844   C862    1.427   .     S
C844   O882    1.292   .     A
C845   N887    1.427   .     S
C845   N876    1.384   .     A
C846   N875    1.382   .     A
C846   N890    1.430   .     S
C846   C1057   1.424   .     S
C847   N876    1.361   .     A
C847   N893    1.428   .     S
C848   N896    1.431   .     S
C848   N875    1.360   .     A
C848   C1055   1.424   .     S
C849   C866    1.397   .     A
C849   H871    1.083   .     S
C849   C991    1.370   1_455 S
C850   C865    1.398   .     A
C850   H872    1.083   .     S
C850   C922    1.370   .     S
C851   C865    1.395   .     A
C851   H873    1.084   .     S
C851   C919    1.370   .     S
C852   H874    1.084   .     S
C852   C866    1.395   .     A
C852   C990    1.370   1_455 S
C853   C857    1.382   .     A
C853   C863    1.400   .     A
C853   H867    1.083   .     S
C854   C864    1.400   .     A
C854   C858    1.382   .     A
C854   H868    1.083   .     S
C855   C864    1.400   .     A
C855   C859    1.382   .     A
C855   H869    1.083   .     S
C856   C863    1.400   .     A
C856   C860    1.382   .     A
C856   H870    1.083   .     S
C857   N899    1.434   .     S
C857   C861    1.406   .     A
C858   N902    1.434   .     S
C858   C862    1.406   .     A
C859   N905    1.435   .     S
C859   C862    1.407   .     A
C860   C861    1.406   .     A
C860   N908    1.434   .     S
C864   C233    1.451   1_556 S
N875   Zn885   2.028   .     S
N876   Zn886   2.028   .     S
O877   Zn885   1.998   .     S
O878   Zn886   1.998   .     S
O879   Zn885   1.993   .     S
O880   Zn886   1.993   .     S
O881   Zn885   2.002   .     S
O882   Zn886   2.002   .     S
O883   Zn885   1.989   .     S
O884   Zn886   1.989   .     S
N887   H888    1.042   .     S
N887   H889    1.040   .     S
N890   H892    1.040   .     S
N890   H891    1.042   .     S
N893   H894    1.046   .     S
N893   H895    1.045   .     S
N896   H898    1.045   .     S
N896   H897    1.045   .     S
N899   H900    1.046   .     S
N899   H901    1.045   .     S
N902   H904    1.046   .     S
N902   H903    1.042   .     S
N905   H906    1.046   .     S
N905   H907    1.045   .     S
N908   H909    1.042   .     S
N908   H910    1.046   .     S
C911   O947    1.290   .     A
C911   C936    1.417   .     S
C911   O950    1.288   .     A
C912   O948    1.290   .     A
C912   C935    1.417   .     S
C912   O949    1.288   .     A
C913   O951    1.288   .     A
C913   O954    1.292   .     A
C913   C931    1.427   .     S
C914   O953    1.288   .     A
C914   C932    1.427   .     S
C914   O952    1.292   .     A
C915   N957    1.427   .     S
C915   N946    1.384   .     A
C916   N945    1.382   .     A
C916   N960    1.430   .     S
C916   C1127   1.424   .     S
C917   N946    1.361   .     A
C917   N963    1.428   .     S
C918   N966    1.431   .     S
C918   N945    1.360   .     A
C918   C1125   1.424   .     S
C919   C936    1.397   .     A
C919   H941    1.083   .     S
C920   C935    1.398   .     A
C920   H942    1.083   .     S
C920   C992    1.370   .     S
C921   C935    1.395   .     A
C921   H943    1.084   .     S
C921   C989    1.370   .     S
C922   H944    1.084   .     S
C922   C936    1.395   .     A
C923   C927    1.382   .     A
C923   C933    1.400   .     A
C923   H937    1.083   .     S
C924   C934    1.400   .     A
C924   C928    1.382   .     A
C924   H938    1.083   .     S
C925   C934    1.400   .     A
C925   C929    1.382   .     A
C925   H939    1.083   .     S
C926   C933    1.400   .     A
C926   C930    1.382   .     A
C926   H940    1.083   .     S
C927   N969    1.434   .     S
C927   C931    1.406   .     A
C928   N972    1.434   .     S
C928   C932    1.406   .     A
C929   N975    1.435   .     S
C929   C932    1.407   .     A
C930   C931    1.406   .     A
C930   N978    1.434   .     S
C934   C303    1.451   1_556 S
N945   Zn955   2.028   .     S
N946   Zn956   2.028   .     S
O947   Zn955   1.998   .     S
O948   Zn956   1.998   .     S
O949   Zn955   1.993   .     S
O950   Zn956   1.993   .     S
O951   Zn955   2.002   .     S
O952   Zn956   2.002   .     S
O953   Zn955   1.989   .     S
O954   Zn956   1.989   .     S
N957   H958    1.042   .     S
N957   H959    1.040   .     S
N960   H962    1.040   .     S
N960   H961    1.042   .     S
N963   H964    1.046   .     S
N963   H965    1.045   .     S
N966   H968    1.045   .     S
N966   H967    1.045   .     S
N969   H970    1.046   .     S
N969   H971    1.045   .     S
N972   H974    1.046   .     S
N972   H973    1.042   .     S
N975   H976    1.046   .     S
N975   H977    1.045   .     S
N978   H979    1.042   .     S
N978   H980    1.046   .     S
C981   O1017   1.290   .     A
C981   C1006   1.417   .     S
C981   O1020   1.288   .     A
C982   O1018   1.290   .     A
C982   C1005   1.417   .     S
C982   O1019   1.288   .     A
C983   O1021   1.288   .     A
C983   O1024   1.292   .     A
C983   C1001   1.427   .     S
C984   O1023   1.288   .     A
C984   C1002   1.427   .     S
C984   O1022   1.292   .     A
C985   N1027   1.427   .     S
C985   N1016   1.384   .     A
C986   N1015   1.382   .     A
C986   N1030   1.430   .     S
C986   C1197   1.424   .     S
C987   N1016   1.361   .     A
C987   N1033   1.428   .     S
C988   N1036   1.431   .     S
C988   N1015   1.360   .     A
C988   C1195   1.424   .     S
C989   C1006   1.397   .     A
C989   H1011   1.083   .     S
C990   C1005   1.398   .     A
C990   H1012   1.083   .     S
C990   C852    1.370   1_655 S
C991   C1005   1.395   .     A
C991   H1013   1.084   .     S
C991   C849    1.370   1_655 S
C992   H1014   1.084   .     S
C992   C1006   1.395   .     A
C993   C997    1.382   .     A
C993   C1003   1.400   .     A
C993   H1007   1.083   .     S
C994   C1004   1.400   .     A
C994   C998    1.382   .     A
C994   H1008   1.083   .     S
C995   C1004   1.400   .     A
C995   C999    1.382   .     A
C995   H1009   1.083   .     S
C996   C1003   1.400   .     A
C996   C1000   1.382   .     A
C996   H1010   1.083   .     S
C997   N1039   1.434   .     S
C997   C1001   1.406   .     A
C998   N1042   1.434   .     S
C998   C1002   1.406   .     A
C999   N1045   1.435   .     S
C999   C1002   1.407   .     A
C1000  C1001   1.406   .     A
C1000  N1048   1.434   .     S
C1004  C373    1.451   1_556 S
N1015  Zn1025  2.028   .     S
N1016  Zn1026  2.028   .     S
O1017  Zn1025  1.998   .     S
O1018  Zn1026  1.998   .     S
O1019  Zn1025  1.993   .     S
O1020  Zn1026  1.993   .     S
O1021  Zn1025  2.002   .     S
O1022  Zn1026  2.002   .     S
O1023  Zn1025  1.989   .     S
O1024  Zn1026  1.989   .     S
N1027  H1028   1.042   .     S
N1027  H1029   1.040   .     S
N1030  H1032   1.040   .     S
N1030  H1031   1.042   .     S
N1033  H1034   1.046   .     S
N1033  H1035   1.045   .     S
N1036  H1038   1.045   .     S
N1036  H1037   1.045   .     S
N1039  H1040   1.046   .     S
N1039  H1041   1.045   .     S
N1042  H1044   1.046   .     S
N1042  H1043   1.042   .     S
N1045  H1046   1.046   .     S
N1045  H1047   1.045   .     S
N1048  H1049   1.042   .     S
N1048  H1050   1.046   .     S
C1051  O1087   1.290   .     A
C1051  C1076   1.417   .     S
C1051  O1090   1.288   .     A
C1052  O1088   1.290   .     A
C1052  C1075   1.417   .     S
C1052  O1089   1.288   .     A
C1053  O1091   1.288   .     A
C1053  O1094   1.292   .     A
C1053  C1071   1.427   .     S
C1054  O1093   1.288   .     A
C1054  C1072   1.427   .     S
C1054  O1092   1.292   .     A
C1055  N1097   1.427   .     S
C1055  N1086   1.384   .     A
C1056  N1085   1.382   .     A
C1056  N1100   1.430   .     S
C1056  C637    1.424   1_565 S
C1057  N1086   1.361   .     A
C1057  N1103   1.428   .     S
C1058  N1106   1.431   .     S
C1058  N1085   1.360   .     A
C1058  C635    1.424   1_565 S
C1059  C1076   1.397   .     A
C1059  H1081   1.083   .     S
C1059  C1201   1.370   1_455 S
C1060  C1075   1.398   .     A
C1060  H1082   1.083   .     S
C1060  C1132   1.370   .     S
C1061  C1075   1.395   .     A
C1061  H1083   1.084   .     S
C1061  C1129   1.370   .     S
C1062  H1084   1.084   .     S
C1062  C1076   1.395   .     A
C1062  C1200   1.370   1_455 S
C1063  C1067   1.382   .     A
C1063  C1073   1.400   .     A
C1063  H1077   1.083   .     S
C1064  C1074   1.400   .     A
C1064  C1068   1.382   .     A
C1064  H1078   1.083   .     S
C1065  C1074   1.400   .     A
C1065  C1069   1.382   .     A
C1065  H1079   1.083   .     S
C1066  C1073   1.400   .     A
C1066  C1070   1.382   .     A
C1066  H1080   1.083   .     S
C1067  N1109   1.434   .     S
C1067  C1071   1.406   .     A
C1068  N1112   1.434   .     S
C1068  C1072   1.406   .     A
C1069  N1115   1.435   .     S
C1069  C1072   1.407   .     A
C1070  C1071   1.406   .     A
C1070  N1118   1.434   .     S
C1074  C443    1.451   1_556 S
N1085  Zn1095  2.028   .     S
N1086  Zn1096  2.028   .     S
O1087  Zn1095  1.998   .     S
O1088  Zn1096  1.998   .     S
O1089  Zn1095  1.993   .     S
O1090  Zn1096  1.993   .     S
O1091  Zn1095  2.002   .     S
O1092  Zn1096  2.002   .     S
O1093  Zn1095  1.989   .     S
O1094  Zn1096  1.989   .     S
N1097  H1098   1.042   .     S
N1097  H1099   1.040   .     S
N1100  H1102   1.040   .     S
N1100  H1101   1.042   .     S
N1103  H1104   1.046   .     S
N1103  H1105   1.045   .     S
N1106  H1108   1.045   .     S
N1106  H1107   1.045   .     S
N1109  H1110   1.046   .     S
N1109  H1111   1.045   .     S
N1112  H1114   1.046   .     S
N1112  H1113   1.042   .     S
N1115  H1116   1.046   .     S
N1115  H1117   1.045   .     S
N1118  H1119   1.042   .     S
N1118  H1120   1.046   .     S
C1121  O1157   1.290   .     A
C1121  C1146   1.417   .     S
C1121  O1160   1.288   .     A
C1122  O1158   1.290   .     A
C1122  C1145   1.417   .     S
C1122  O1159   1.288   .     A
C1123  O1161   1.288   .     A
C1123  O1164   1.292   .     A
C1123  C1141   1.427   .     S
C1124  O1163   1.288   .     A
C1124  C1142   1.427   .     S
C1124  O1162   1.292   .     A
C1125  N1167   1.427   .     S
C1125  N1156   1.384   .     A
C1126  N1155   1.382   .     A
C1126  N1170   1.430   .     S
C1126  C707    1.424   1_565 S
C1127  N1156   1.361   .     A
C1127  N1173   1.428   .     S
C1128  N1176   1.431   .     S
C1128  N1155   1.360   .     A
C1128  C705    1.424   1_565 S
C1129  C1146   1.397   .     A
C1129  H1151   1.083   .     S
C1130  C1145   1.398   .     A
C1130  H1152   1.083   .     S
C1130  C1202   1.370   .     S
C1131  C1145   1.395   .     A
C1131  H1153   1.084   .     S
C1131  C1199   1.370   .     S
C1132  H1154   1.084   .     S
C1132  C1146   1.395   .     A
C1133  C1137   1.382   .     A
C1133  C1143   1.400   .     A
C1133  H1147   1.083   .     S
C1134  C1144   1.400   .     A
C1134  C1138   1.382   .     A
C1134  H1148   1.083   .     S
C1135  C1144   1.400   .     A
C1135  C1139   1.382   .     A
C1135  H1149   1.083   .     S
C1136  C1143   1.400   .     A
C1136  C1140   1.382   .     A
C1136  H1150   1.083   .     S
C1137  N1179   1.434   .     S
C1137  C1141   1.406   .     A
C1138  N1182   1.434   .     S
C1138  C1142   1.406   .     A
C1139  N1185   1.435   .     S
C1139  C1142   1.407   .     A
C1140  C1141   1.406   .     A
C1140  N1188   1.434   .     S
C1144  C513    1.451   1_556 S
N1155  Zn1165  2.028   .     S
N1156  Zn1166  2.028   .     S
O1157  Zn1165  1.998   .     S
O1158  Zn1166  1.998   .     S
O1159  Zn1165  1.993   .     S
O1160  Zn1166  1.993   .     S
O1161  Zn1165  2.002   .     S
O1162  Zn1166  2.002   .     S
O1163  Zn1165  1.989   .     S
O1164  Zn1166  1.989   .     S
N1167  H1168   1.042   .     S
N1167  H1169   1.040   .     S
N1170  H1172   1.040   .     S
N1170  H1171   1.042   .     S
N1173  H1174   1.046   .     S
N1173  H1175   1.045   .     S
N1176  H1178   1.045   .     S
N1176  H1177   1.045   .     S
N1179  H1180   1.046   .     S
N1179  H1181   1.045   .     S
N1182  H1184   1.046   .     S
N1182  H1183   1.042   .     S
N1185  H1186   1.046   .     S
N1185  H1187   1.045   .     S
N1188  H1189   1.042   .     S
N1188  H1190   1.046   .     S
C1191  O1227   1.290   .     A
C1191  C1216   1.417   .     S
C1191  O1230   1.288   .     A
C1192  O1228   1.290   .     A
C1192  C1215   1.417   .     S
C1192  O1229   1.288   .     A
C1193  O1231   1.288   .     A
C1193  O1234   1.292   .     A
C1193  C1211   1.427   .     S
C1194  O1233   1.288   .     A
C1194  C1212   1.427   .     S
C1194  O1232   1.292   .     A
C1195  N1237   1.427   .     S
C1195  N1226   1.384   .     A
C1196  N1225   1.382   .     A
C1196  N1240   1.430   .     S
C1196  C777    1.424   1_565 S
C1197  N1226   1.361   .     A
C1197  N1243   1.428   .     S
C1198  N1246   1.431   .     S
C1198  N1225   1.360   .     A
C1198  C775    1.424   1_565 S
C1199  C1216   1.397   .     A
C1199  H1221   1.083   .     S
C1200  C1215   1.398   .     A
C1200  H1222   1.083   .     S
C1200  C1062   1.370   1_655 S
C1201  C1215   1.395   .     A
C1201  H1223   1.084   .     S
C1201  C1059   1.370   1_655 S
C1202  H1224   1.084   .     S
C1202  C1216   1.395   .     A
C1203  C1207   1.382   .     A
C1203  C1213   1.400   .     A
C1203  H1217   1.083   .     S
C1204  C1214   1.400   .     A
C1204  C1208   1.382   .     A
C1204  H1218   1.083   .     S
C1205  C1214   1.400   .     A
C1205  C1209   1.382   .     A
C1205  H1219   1.083   .     S
C1206  C1213   1.400   .     A
C1206  C1210   1.382   .     A
C1206  H1220   1.083   .     S
C1207  N1249   1.434   .     S
C1207  C1211   1.406   .     A
C1208  N1252   1.434   .     S
C1208  C1212   1.406   .     A
C1209  N1255   1.435   .     S
C1209  C1212   1.407   .     A
C1210  C1211   1.406   .     A
C1210  N1258   1.434   .     S
C1214  C583    1.451   1_556 S
N1225  Zn1235  2.028   .     S
N1226  Zn1236  2.028   .     S
O1227  Zn1235  1.998   .     S
O1228  Zn1236  1.998   .     S
O1229  Zn1235  1.993   .     S
O1230  Zn1236  1.993   .     S
O1231  Zn1235  2.002   .     S
O1232  Zn1236  2.002   .     S
O1233  Zn1235  1.989   .     S
O1234  Zn1236  1.989   .     S
N1237  H1238   1.042   .     S
N1237  H1239   1.040   .     S
N1240  H1242   1.040   .     S
N1240  H1241   1.042   .     S
N1243  H1244   1.046   .     S
N1243  H1245   1.045   .     S
N1246  H1248   1.045   .     S
N1246  H1247   1.045   .     S
N1249  H1250   1.046   .     S
N1249  H1251   1.045   .     S
N1252  H1254   1.046   .     S
N1252  H1253   1.042   .     S
N1255  H1256   1.046   .     S
N1255  H1257   1.045   .     S
N1258  H1259   1.042   .     S
N1258  H1260   1.046   .     S
