data_str_m3_o1_o2_pcu_sym.16
_audit_creation_date              2020-01-03
_audit_creation_method            'Materials Studio'
_symmetry_space_group_name_H-M    'P1'
_symmetry_Int_Tables_number       1
_symmetry_cell_setting            triclinic
loop_
_symmetry_equiv_pos_as_xyz
  x,y,z
_cell_length_a                    32.0914
_cell_length_b                    29.5348
_cell_length_c                    29.9350
_cell_angle_alpha                 90.0368
_cell_angle_beta                  90.1196
_cell_angle_gamma                 90.0163
loop_
_atom_site_label
_atom_site_type_symbol
_atom_site_fract_x
_atom_site_fract_y
_atom_site_fract_z
_atom_site_U_iso_or_equiv
_atom_site_adp_type
_atom_site_occupancy
C1     C     0.08664   0.16666   0.24996   0.00000  Uiso   1.00
C2     C     0.31197   0.20572   0.23671   0.00000  Uiso   1.00
C3     C     0.31201   0.12763   0.26333   0.00000  Uiso   1.00
C4     C     0.02133   0.20570   0.23663   0.00000  Uiso   1.00
C5     C     0.13232   0.18440   0.04691   0.00000  Uiso   1.00
C6     C     0.13228   0.14930   0.45297   0.00000  Uiso   1.00
C7     C     0.20076   0.18443   0.45317   0.00000  Uiso   1.00
C8     C     0.20074   0.14916   0.04694   0.00000  Uiso   1.00
C9     C     0.13164   0.18427   0.09329   0.00000  Uiso   1.00
C10    C     0.13162   0.14931   0.40658   0.00000  Uiso   1.00
C11    C     0.20152   0.18429   0.40680   0.00000  Uiso   1.00
C12    C     0.24669   0.16667   0.25004   0.00000  Uiso   1.00
C13    C     0.20149   0.14919   0.09332   0.00000  Uiso   1.00
C14    C     0.16657   0.16667   0.11629   0.00000  Uiso   1.00
C15    C     0.16661   0.16673   0.38371   0.00000  Uiso   1.00
C16    C     0.16651   0.16681   0.02410   0.00000  Uiso   1.00
C17    C     0.16650   0.16688   0.47589   0.00000  Uiso   1.00
C18    C     0.29083   0.16668   0.25004   0.00000  Uiso   1.00
C19    C     0.04250   0.16665   0.24995   0.00000  Uiso   1.00
C20    C     0.09406   0.20150   0.11704   0.00000  Uiso   1.00
C21    C     0.09397   0.13219   0.38270   0.00000  Uiso   1.00
C22    C     0.23920   0.20141   0.38315   0.00000  Uiso   1.00
C23    C     0.16663   0.16666   0.16412   0.00000  Uiso   1.00
C24    C     0.23918   0.13209   0.11709   0.00000  Uiso   1.00
C25    C     0.16666   0.16668   0.33588   0.00000  Uiso   1.00
C26    C     0.19347   0.02400   0.27679   0.00000  Uiso   1.00
C27    C     0.13986   0.30932   0.22320   0.00000  Uiso   1.00
C28    C     0.13986   0.02395   0.22321   0.00000  Uiso   1.00
C29    C     0.19347   0.30938   0.27680   0.00000  Uiso   1.00
C30    C     0.02137   0.12762   0.26331   0.00000  Uiso   1.00
H31    H     0.21491   0.04219   0.29821   0.00000  Uiso   1.00
H32    H     0.29561   0.23593   0.22600   0.00000  Uiso   1.00
H33    H     0.29567   0.09743   0.27408   0.00000  Uiso   1.00
H34    H     0.03767   0.23588   0.22584   0.00000  Uiso   1.00
H35    H     0.09138   0.19878   0.15302   0.00000  Uiso   1.00
H36    H     0.09132   0.13481   0.34671   0.00000  Uiso   1.00
H37    H     0.24195   0.19864   0.34718   0.00000  Uiso   1.00
H38    H     0.24196   0.13485   0.15307   0.00000  Uiso   1.00
H39    H     0.11843   0.29113   0.20178   0.00000  Uiso   1.00
H40    H     0.11843   0.04209   0.20179   0.00000  Uiso   1.00
H41    H     0.21489   0.29122   0.29823   0.00000  Uiso   1.00
H42    H     0.10623   0.19812   0.02826   0.00000  Uiso   1.00
H43    H     0.10615   0.13568   0.47153   0.00000  Uiso   1.00
H44    H     0.22685   0.19810   0.47189   0.00000  Uiso   1.00
H45    H     0.22681   0.13552   0.02832   0.00000  Uiso   1.00
H46    H     0.03773   0.09743   0.27406   0.00000  Uiso   1.00
N47    N     0.16667   0.28573   0.25000   0.00000  Uiso   1.00
N48    N     0.16667   0.04760   0.25000   0.00000  Uiso   1.00
O49    O     0.10559   0.20487   0.24999   0.00000  Uiso   1.00
O50    O     0.06506   0.11508   0.40312   0.00000  Uiso   1.00
O51    O     0.26800   0.21870   0.40373   0.00000  Uiso   1.00
O52    O     0.26797   0.11484   0.09660   0.00000  Uiso   1.00
O53    O     0.22774   0.12846   0.25001   0.00000  Uiso   1.00
O54    O     0.22774   0.20487   0.25001   0.00000  Uiso   1.00
O55    O     0.10559   0.12846   0.24999   0.00000  Uiso   1.00
O56    O     0.16666   0.20489   0.18453   0.00000  Uiso   1.00
O57    O     0.16667   0.12845   0.31547   0.00000  Uiso   1.00
O58    O     0.16667   0.20489   0.31547   0.00000  Uiso   1.00
O59    O     0.16666   0.12845   0.18453   0.00000  Uiso   1.00
O60    O     0.06525   0.21884   0.09654   0.00000  Uiso   1.00
Zn61   Zn    0.16667   0.21771   0.25000   0.00000  Uiso   1.00
Zn62   Zn    0.16667   0.11563   0.25000   0.00000  Uiso   1.00
C63    C     0.41997   0.16666   0.24996   0.00000  Uiso   1.00
C64    C     0.64531   0.20572   0.23671   0.00000  Uiso   1.00
C65    C     0.64534   0.12763   0.26333   0.00000  Uiso   1.00
C66    C     0.35467   0.20570   0.23663   0.00000  Uiso   1.00
C67    C     0.46565   0.18440   0.04691   0.00000  Uiso   1.00
C68    C     0.46561   0.14930   0.45297   0.00000  Uiso   1.00
C69    C     0.53409   0.18443   0.45317   0.00000  Uiso   1.00
C70    C     0.53407   0.14916   0.04694   0.00000  Uiso   1.00
C71    C     0.46498   0.18427   0.09329   0.00000  Uiso   1.00
C72    C     0.46495   0.14931   0.40658   0.00000  Uiso   1.00
C73    C     0.53486   0.18429   0.40680   0.00000  Uiso   1.00
C74    C     0.58003   0.16667   0.25004   0.00000  Uiso   1.00
C75    C     0.53482   0.14919   0.09332   0.00000  Uiso   1.00
C76    C     0.49991   0.16667   0.11629   0.00000  Uiso   1.00
C77    C     0.49994   0.16673   0.38371   0.00000  Uiso   1.00
C78    C     0.49985   0.16681   0.02410   0.00000  Uiso   1.00
C79    C     0.49984   0.16688   0.47589   0.00000  Uiso   1.00
C80    C     0.62417   0.16668   0.25004   0.00000  Uiso   1.00
C81    C     0.37584   0.16665   0.24995   0.00000  Uiso   1.00
C82    C     0.42739   0.20150   0.11704   0.00000  Uiso   1.00
C83    C     0.42730   0.13219   0.38270   0.00000  Uiso   1.00
C84    C     0.57253   0.20141   0.38315   0.00000  Uiso   1.00
C85    C     0.49997   0.16666   0.16412   0.00000  Uiso   1.00
C86    C     0.57251   0.13209   0.11709   0.00000  Uiso   1.00
C87    C     0.50000   0.16668   0.33588   0.00000  Uiso   1.00
C88    C     0.52681   0.02400   0.27679   0.00000  Uiso   1.00
C89    C     0.47319   0.30932   0.22320   0.00000  Uiso   1.00
C90    C     0.47319   0.02395   0.22321   0.00000  Uiso   1.00
C91    C     0.52680   0.30938   0.27680   0.00000  Uiso   1.00
C92    C     0.35470   0.12762   0.26331   0.00000  Uiso   1.00
H93    H     0.54825   0.04219   0.29821   0.00000  Uiso   1.00
H94    H     0.62894   0.23593   0.22600   0.00000  Uiso   1.00
H95    H     0.62900   0.09743   0.27408   0.00000  Uiso   1.00
H96    H     0.37101   0.23588   0.22584   0.00000  Uiso   1.00
H97    H     0.42472   0.19878   0.15302   0.00000  Uiso   1.00
H98    H     0.42465   0.13481   0.34671   0.00000  Uiso   1.00
H99    H     0.57529   0.19864   0.34718   0.00000  Uiso   1.00
H100   H     0.57530   0.13485   0.15307   0.00000  Uiso   1.00
H101   H     0.45177   0.29113   0.20178   0.00000  Uiso   1.00
H102   H     0.45176   0.04209   0.20179   0.00000  Uiso   1.00
H103   H     0.54823   0.29122   0.29823   0.00000  Uiso   1.00
H104   H     0.43956   0.19812   0.02826   0.00000  Uiso   1.00
H105   H     0.43948   0.13568   0.47153   0.00000  Uiso   1.00
H106   H     0.56019   0.19810   0.47189   0.00000  Uiso   1.00
H107   H     0.56015   0.13552   0.02832   0.00000  Uiso   1.00
H108   H     0.37107   0.09743   0.27406   0.00000  Uiso   1.00
N109   N     0.50000   0.28573   0.25000   0.00000  Uiso   1.00
N110   N     0.50000   0.04760   0.25000   0.00000  Uiso   1.00
O111   O     0.43892   0.20487   0.24999   0.00000  Uiso   1.00
O112   O     0.39839   0.11508   0.40312   0.00000  Uiso   1.00
O113   O     0.60133   0.21870   0.40373   0.00000  Uiso   1.00
O114   O     0.60131   0.11484   0.09660   0.00000  Uiso   1.00
O115   O     0.56108   0.12846   0.25001   0.00000  Uiso   1.00
O116   O     0.56108   0.20487   0.25001   0.00000  Uiso   1.00
O117   O     0.43892   0.12846   0.24999   0.00000  Uiso   1.00
O118   O     0.50000   0.20489   0.18453   0.00000  Uiso   1.00
O119   O     0.50000   0.12845   0.31547   0.00000  Uiso   1.00
O120   O     0.50000   0.20489   0.31547   0.00000  Uiso   1.00
O121   O     0.50000   0.12845   0.18453   0.00000  Uiso   1.00
O122   O     0.39859   0.21884   0.09654   0.00000  Uiso   1.00
Zn123  Zn    0.50000   0.21771   0.25000   0.00000  Uiso   1.00
Zn124  Zn    0.50000   0.11563   0.25000   0.00000  Uiso   1.00
C125   C     0.75331   0.16666   0.24996   0.00000  Uiso   1.00
C126   C     0.97864   0.20572   0.23671   0.00000  Uiso   1.00
C127   C     0.97867   0.12763   0.26333   0.00000  Uiso   1.00
C128   C     0.68800   0.20570   0.23663   0.00000  Uiso   1.00
C129   C     0.79898   0.18440   0.04691   0.00000  Uiso   1.00
C130   C     0.79894   0.14930   0.45297   0.00000  Uiso   1.00
C131   C     0.86743   0.18443   0.45317   0.00000  Uiso   1.00
C132   C     0.86740   0.14916   0.04694   0.00000  Uiso   1.00
C133   C     0.79831   0.18427   0.09329   0.00000  Uiso   1.00
C134   C     0.79828   0.14931   0.40658   0.00000  Uiso   1.00
C135   C     0.86819   0.18429   0.40680   0.00000  Uiso   1.00
C136   C     0.91336   0.16667   0.25004   0.00000  Uiso   1.00
C137   C     0.86815   0.14919   0.09332   0.00000  Uiso   1.00
C138   C     0.83324   0.16667   0.11629   0.00000  Uiso   1.00
C139   C     0.83328   0.16673   0.38371   0.00000  Uiso   1.00
C140   C     0.83318   0.16681   0.02410   0.00000  Uiso   1.00
C141   C     0.83317   0.16688   0.47589   0.00000  Uiso   1.00
C142   C     0.95750   0.16668   0.25004   0.00000  Uiso   1.00
C143   C     0.70917   0.16665   0.24995   0.00000  Uiso   1.00
C144   C     0.76073   0.20150   0.11704   0.00000  Uiso   1.00
C145   C     0.76063   0.13219   0.38270   0.00000  Uiso   1.00
C146   C     0.90587   0.20141   0.38315   0.00000  Uiso   1.00
C147   C     0.83330   0.16666   0.16412   0.00000  Uiso   1.00
C148   C     0.90585   0.13209   0.11709   0.00000  Uiso   1.00
C149   C     0.83333   0.16668   0.33588   0.00000  Uiso   1.00
C150   C     0.86014   0.02400   0.27679   0.00000  Uiso   1.00
C151   C     0.80653   0.30932   0.22320   0.00000  Uiso   1.00
C152   C     0.80653   0.02395   0.22321   0.00000  Uiso   1.00
C153   C     0.86014   0.30938   0.27680   0.00000  Uiso   1.00
C154   C     0.68803   0.12762   0.26331   0.00000  Uiso   1.00
H155   H     0.88158   0.04219   0.29821   0.00000  Uiso   1.00
H156   H     0.96228   0.23593   0.22600   0.00000  Uiso   1.00
H157   H     0.96234   0.09743   0.27408   0.00000  Uiso   1.00
H158   H     0.70434   0.23588   0.22584   0.00000  Uiso   1.00
H159   H     0.75805   0.19878   0.15302   0.00000  Uiso   1.00
H160   H     0.75799   0.13481   0.34671   0.00000  Uiso   1.00
H161   H     0.90862   0.19864   0.34718   0.00000  Uiso   1.00
H162   H     0.90863   0.13485   0.15307   0.00000  Uiso   1.00
H163   H     0.78510   0.29113   0.20178   0.00000  Uiso   1.00
H164   H     0.78509   0.04209   0.20179   0.00000  Uiso   1.00
H165   H     0.88156   0.29122   0.29823   0.00000  Uiso   1.00
H166   H     0.77289   0.19812   0.02826   0.00000  Uiso   1.00
H167   H     0.77282   0.13568   0.47153   0.00000  Uiso   1.00
H168   H     0.89352   0.19810   0.47189   0.00000  Uiso   1.00
H169   H     0.89348   0.13552   0.02832   0.00000  Uiso   1.00
H170   H     0.70440   0.09743   0.27406   0.00000  Uiso   1.00
N171   N     0.83333   0.28573   0.25000   0.00000  Uiso   1.00
N172   N     0.83333   0.04760   0.25000   0.00000  Uiso   1.00
O173   O     0.77226   0.20487   0.24999   0.00000  Uiso   1.00
O174   O     0.73173   0.11508   0.40312   0.00000  Uiso   1.00
O175   O     0.93467   0.21870   0.40373   0.00000  Uiso   1.00
O176   O     0.93464   0.11484   0.09660   0.00000  Uiso   1.00
O177   O     0.89441   0.12846   0.25001   0.00000  Uiso   1.00
O178   O     0.89441   0.20487   0.25001   0.00000  Uiso   1.00
O179   O     0.77226   0.12846   0.24999   0.00000  Uiso   1.00
O180   O     0.83333   0.20489   0.18453   0.00000  Uiso   1.00
O181   O     0.83334   0.12845   0.31547   0.00000  Uiso   1.00
O182   O     0.83334   0.20489   0.31547   0.00000  Uiso   1.00
O183   O     0.83333   0.12845   0.18453   0.00000  Uiso   1.00
O184   O     0.73192   0.21884   0.09654   0.00000  Uiso   1.00
Zn185  Zn    0.83333   0.21771   0.25000   0.00000  Uiso   1.00
Zn186  Zn    0.83333   0.11563   0.25000   0.00000  Uiso   1.00
C187   C     0.08664   0.49999   0.24996   0.00000  Uiso   1.00
C188   C     0.31197   0.53905   0.23671   0.00000  Uiso   1.00
C189   C     0.31201   0.46096   0.26333   0.00000  Uiso   1.00
C190   C     0.02133   0.53903   0.23663   0.00000  Uiso   1.00
C191   C     0.13232   0.51774   0.04691   0.00000  Uiso   1.00
C192   C     0.13228   0.48263   0.45297   0.00000  Uiso   1.00
C193   C     0.20076   0.51776   0.45317   0.00000  Uiso   1.00
C194   C     0.20074   0.48250   0.04694   0.00000  Uiso   1.00
C195   C     0.13164   0.51761   0.09329   0.00000  Uiso   1.00
C196   C     0.13162   0.48264   0.40658   0.00000  Uiso   1.00
C197   C     0.20152   0.51762   0.40680   0.00000  Uiso   1.00
C198   C     0.24669   0.50001   0.25004   0.00000  Uiso   1.00
C199   C     0.20149   0.48252   0.09332   0.00000  Uiso   1.00
C200   C     0.16657   0.50000   0.11629   0.00000  Uiso   1.00
C201   C     0.16661   0.50007   0.38371   0.00000  Uiso   1.00
C202   C     0.16651   0.50015   0.02410   0.00000  Uiso   1.00
C203   C     0.16650   0.50021   0.47589   0.00000  Uiso   1.00
C204   C     0.29083   0.50001   0.25004   0.00000  Uiso   1.00
C205   C     0.04250   0.49999   0.24995   0.00000  Uiso   1.00
C206   C     0.09406   0.53483   0.11704   0.00000  Uiso   1.00
C207   C     0.09397   0.46552   0.38270   0.00000  Uiso   1.00
C208   C     0.23920   0.53474   0.38315   0.00000  Uiso   1.00
C209   C     0.16663   0.49999   0.16412   0.00000  Uiso   1.00
C210   C     0.23918   0.46542   0.11709   0.00000  Uiso   1.00
C211   C     0.16666   0.50001   0.33588   0.00000  Uiso   1.00
C212   C     0.19347   0.35734   0.27679   0.00000  Uiso   1.00
C213   C     0.13986   0.64266   0.22320   0.00000  Uiso   1.00
C214   C     0.13986   0.35728   0.22321   0.00000  Uiso   1.00
C215   C     0.19347   0.64271   0.27680   0.00000  Uiso   1.00
C216   C     0.02137   0.46095   0.26331   0.00000  Uiso   1.00
H217   H     0.21491   0.37552   0.29821   0.00000  Uiso   1.00
H218   H     0.29561   0.56926   0.22600   0.00000  Uiso   1.00
H219   H     0.29567   0.43076   0.27408   0.00000  Uiso   1.00
H220   H     0.03767   0.56921   0.22584   0.00000  Uiso   1.00
H221   H     0.09138   0.53212   0.15302   0.00000  Uiso   1.00
H222   H     0.09132   0.46814   0.34671   0.00000  Uiso   1.00
H223   H     0.24195   0.53197   0.34718   0.00000  Uiso   1.00
H224   H     0.24196   0.46818   0.15307   0.00000  Uiso   1.00
H225   H     0.11843   0.62446   0.20178   0.00000  Uiso   1.00
H226   H     0.11843   0.37543   0.20179   0.00000  Uiso   1.00
H227   H     0.21489   0.62456   0.29823   0.00000  Uiso   1.00
H228   H     0.10623   0.53145   0.02826   0.00000  Uiso   1.00
H229   H     0.10615   0.46901   0.47153   0.00000  Uiso   1.00
H230   H     0.22685   0.53143   0.47189   0.00000  Uiso   1.00
H231   H     0.22681   0.46885   0.02832   0.00000  Uiso   1.00
H232   H     0.03773   0.43076   0.27406   0.00000  Uiso   1.00
N233   N     0.16667   0.61907   0.25000   0.00000  Uiso   1.00
N234   N     0.16667   0.38093   0.25000   0.00000  Uiso   1.00
O235   O     0.10559   0.53821   0.24999   0.00000  Uiso   1.00
O236   O     0.06506   0.44841   0.40312   0.00000  Uiso   1.00
O237   O     0.26800   0.55203   0.40373   0.00000  Uiso   1.00
O238   O     0.26797   0.44817   0.09660   0.00000  Uiso   1.00
O239   O     0.22774   0.46179   0.25001   0.00000  Uiso   1.00
O240   O     0.22774   0.53821   0.25001   0.00000  Uiso   1.00
O241   O     0.10559   0.46179   0.24999   0.00000  Uiso   1.00
O242   O     0.16666   0.53822   0.18453   0.00000  Uiso   1.00
O243   O     0.16667   0.46178   0.31547   0.00000  Uiso   1.00
O244   O     0.16667   0.53822   0.31547   0.00000  Uiso   1.00
O245   O     0.16666   0.46178   0.18453   0.00000  Uiso   1.00
O246   O     0.06525   0.55217   0.09654   0.00000  Uiso   1.00
Zn247  Zn    0.16667   0.55104   0.25000   0.00000  Uiso   1.00
Zn248  Zn    0.16667   0.44896   0.25000   0.00000  Uiso   1.00
C249   C     0.41997   0.49999   0.24996   0.00000  Uiso   1.00
C250   C     0.64531   0.53905   0.23671   0.00000  Uiso   1.00
C251   C     0.64534   0.46096   0.26333   0.00000  Uiso   1.00
C252   C     0.35467   0.53903   0.23663   0.00000  Uiso   1.00
C253   C     0.46565   0.51774   0.04691   0.00000  Uiso   1.00
C254   C     0.46561   0.48263   0.45297   0.00000  Uiso   1.00
C255   C     0.53409   0.51776   0.45317   0.00000  Uiso   1.00
C256   C     0.53407   0.48250   0.04694   0.00000  Uiso   1.00
C257   C     0.46498   0.51761   0.09329   0.00000  Uiso   1.00
C258   C     0.46495   0.48264   0.40658   0.00000  Uiso   1.00
C259   C     0.53486   0.51762   0.40680   0.00000  Uiso   1.00
C260   C     0.58003   0.50001   0.25004   0.00000  Uiso   1.00
C261   C     0.53482   0.48252   0.09332   0.00000  Uiso   1.00
C262   C     0.49991   0.50000   0.11629   0.00000  Uiso   1.00
C263   C     0.49994   0.50007   0.38371   0.00000  Uiso   1.00
C264   C     0.49985   0.50015   0.02410   0.00000  Uiso   1.00
C265   C     0.49984   0.50021   0.47589   0.00000  Uiso   1.00
C266   C     0.62417   0.50001   0.25004   0.00000  Uiso   1.00
C267   C     0.37584   0.49999   0.24995   0.00000  Uiso   1.00
C268   C     0.42739   0.53483   0.11704   0.00000  Uiso   1.00
C269   C     0.42730   0.46552   0.38270   0.00000  Uiso   1.00
C270   C     0.57253   0.53474   0.38315   0.00000  Uiso   1.00
C271   C     0.49997   0.49999   0.16412   0.00000  Uiso   1.00
C272   C     0.57251   0.46542   0.11709   0.00000  Uiso   1.00
C273   C     0.50000   0.50001   0.33588   0.00000  Uiso   1.00
C274   C     0.52681   0.35734   0.27679   0.00000  Uiso   1.00
C275   C     0.47319   0.64266   0.22320   0.00000  Uiso   1.00
C276   C     0.47319   0.35728   0.22321   0.00000  Uiso   1.00
C277   C     0.52680   0.64271   0.27680   0.00000  Uiso   1.00
C278   C     0.35470   0.46095   0.26331   0.00000  Uiso   1.00
H279   H     0.54825   0.37552   0.29821   0.00000  Uiso   1.00
H280   H     0.62894   0.56926   0.22600   0.00000  Uiso   1.00
H281   H     0.62900   0.43076   0.27408   0.00000  Uiso   1.00
H282   H     0.37101   0.56921   0.22584   0.00000  Uiso   1.00
H283   H     0.42472   0.53212   0.15302   0.00000  Uiso   1.00
H284   H     0.42465   0.46814   0.34671   0.00000  Uiso   1.00
H285   H     0.57529   0.53197   0.34718   0.00000  Uiso   1.00
H286   H     0.57530   0.46818   0.15307   0.00000  Uiso   1.00
H287   H     0.45177   0.62446   0.20178   0.00000  Uiso   1.00
H288   H     0.45176   0.37543   0.20179   0.00000  Uiso   1.00
H289   H     0.54823   0.62456   0.29823   0.00000  Uiso   1.00
H290   H     0.43956   0.53145   0.02826   0.00000  Uiso   1.00
H291   H     0.43948   0.46901   0.47153   0.00000  Uiso   1.00
H292   H     0.56019   0.53143   0.47189   0.00000  Uiso   1.00
H293   H     0.56015   0.46885   0.02832   0.00000  Uiso   1.00
H294   H     0.37107   0.43076   0.27406   0.00000  Uiso   1.00
N295   N     0.50000   0.61907   0.25000   0.00000  Uiso   1.00
N296   N     0.50000   0.38093   0.25000   0.00000  Uiso   1.00
O297   O     0.43892   0.53821   0.24999   0.00000  Uiso   1.00
O298   O     0.39839   0.44841   0.40312   0.00000  Uiso   1.00
O299   O     0.60133   0.55203   0.40373   0.00000  Uiso   1.00
O300   O     0.60131   0.44817   0.09660   0.00000  Uiso   1.00
O301   O     0.56108   0.46179   0.25001   0.00000  Uiso   1.00
O302   O     0.56108   0.53821   0.25001   0.00000  Uiso   1.00
O303   O     0.43892   0.46179   0.24999   0.00000  Uiso   1.00
O304   O     0.50000   0.53822   0.18453   0.00000  Uiso   1.00
O305   O     0.50000   0.46178   0.31547   0.00000  Uiso   1.00
O306   O     0.50000   0.53822   0.31547   0.00000  Uiso   1.00
O307   O     0.50000   0.46178   0.18453   0.00000  Uiso   1.00
O308   O     0.39859   0.55217   0.09654   0.00000  Uiso   1.00
Zn309  Zn    0.50000   0.55104   0.25000   0.00000  Uiso   1.00
Zn310  Zn    0.50000   0.44896   0.25000   0.00000  Uiso   1.00
C311   C     0.75331   0.49999   0.24996   0.00000  Uiso   1.00
C312   C     0.97864   0.53905   0.23671   0.00000  Uiso   1.00
C313   C     0.97867   0.46096   0.26333   0.00000  Uiso   1.00
C314   C     0.68800   0.53903   0.23663   0.00000  Uiso   1.00
C315   C     0.79898   0.51774   0.04691   0.00000  Uiso   1.00
C316   C     0.79894   0.48263   0.45297   0.00000  Uiso   1.00
C317   C     0.86743   0.51776   0.45317   0.00000  Uiso   1.00
C318   C     0.86740   0.48250   0.04694   0.00000  Uiso   1.00
C319   C     0.79831   0.51761   0.09329   0.00000  Uiso   1.00
C320   C     0.79828   0.48264   0.40658   0.00000  Uiso   1.00
C321   C     0.86819   0.51762   0.40680   0.00000  Uiso   1.00
C322   C     0.91336   0.50001   0.25004   0.00000  Uiso   1.00
C323   C     0.86815   0.48252   0.09332   0.00000  Uiso   1.00
C324   C     0.83324   0.50000   0.11629   0.00000  Uiso   1.00
C325   C     0.83328   0.50007   0.38371   0.00000  Uiso   1.00
C326   C     0.83318   0.50015   0.02410   0.00000  Uiso   1.00
C327   C     0.83317   0.50021   0.47589   0.00000  Uiso   1.00
C328   C     0.95750   0.50001   0.25004   0.00000  Uiso   1.00
C329   C     0.70917   0.49999   0.24995   0.00000  Uiso   1.00
C330   C     0.76073   0.53483   0.11704   0.00000  Uiso   1.00
C331   C     0.76063   0.46552   0.38270   0.00000  Uiso   1.00
C332   C     0.90587   0.53474   0.38315   0.00000  Uiso   1.00
C333   C     0.83330   0.49999   0.16412   0.00000  Uiso   1.00
C334   C     0.90585   0.46542   0.11709   0.00000  Uiso   1.00
C335   C     0.83333   0.50001   0.33588   0.00000  Uiso   1.00
C336   C     0.86014   0.35734   0.27679   0.00000  Uiso   1.00
C337   C     0.80653   0.64266   0.22320   0.00000  Uiso   1.00
C338   C     0.80653   0.35728   0.22321   0.00000  Uiso   1.00
C339   C     0.86014   0.64271   0.27680   0.00000  Uiso   1.00
C340   C     0.68803   0.46095   0.26331   0.00000  Uiso   1.00
H341   H     0.88158   0.37552   0.29821   0.00000  Uiso   1.00
H342   H     0.96228   0.56926   0.22600   0.00000  Uiso   1.00
H343   H     0.96234   0.43076   0.27408   0.00000  Uiso   1.00
H344   H     0.70434   0.56921   0.22584   0.00000  Uiso   1.00
H345   H     0.75805   0.53212   0.15302   0.00000  Uiso   1.00
H346   H     0.75799   0.46814   0.34671   0.00000  Uiso   1.00
H347   H     0.90862   0.53197   0.34718   0.00000  Uiso   1.00
H348   H     0.90863   0.46818   0.15307   0.00000  Uiso   1.00
H349   H     0.78510   0.62446   0.20178   0.00000  Uiso   1.00
H350   H     0.78509   0.37543   0.20179   0.00000  Uiso   1.00
H351   H     0.88156   0.62456   0.29823   0.00000  Uiso   1.00
H352   H     0.77289   0.53145   0.02826   0.00000  Uiso   1.00
H353   H     0.77282   0.46901   0.47153   0.00000  Uiso   1.00
H354   H     0.89352   0.53143   0.47189   0.00000  Uiso   1.00
H355   H     0.89348   0.46885   0.02832   0.00000  Uiso   1.00
H356   H     0.70440   0.43076   0.27406   0.00000  Uiso   1.00
N357   N     0.83333   0.61907   0.25000   0.00000  Uiso   1.00
N358   N     0.83333   0.38093   0.25000   0.00000  Uiso   1.00
O359   O     0.77226   0.53821   0.24999   0.00000  Uiso   1.00
O360   O     0.73173   0.44841   0.40312   0.00000  Uiso   1.00
O361   O     0.93467   0.55203   0.40373   0.00000  Uiso   1.00
O362   O     0.93464   0.44817   0.09660   0.00000  Uiso   1.00
O363   O     0.89441   0.46179   0.25001   0.00000  Uiso   1.00
O364   O     0.89441   0.53821   0.25001   0.00000  Uiso   1.00
O365   O     0.77226   0.46179   0.24999   0.00000  Uiso   1.00
O366   O     0.83333   0.53822   0.18453   0.00000  Uiso   1.00
O367   O     0.83334   0.46178   0.31547   0.00000  Uiso   1.00
O368   O     0.83334   0.53822   0.31547   0.00000  Uiso   1.00
O369   O     0.83333   0.46178   0.18453   0.00000  Uiso   1.00
O370   O     0.73192   0.55217   0.09654   0.00000  Uiso   1.00
Zn371  Zn    0.83333   0.55104   0.25000   0.00000  Uiso   1.00
Zn372  Zn    0.83333   0.44896   0.25000   0.00000  Uiso   1.00
C373   C     0.08664   0.83333   0.24996   0.00000  Uiso   1.00
C374   C     0.31197   0.87239   0.23671   0.00000  Uiso   1.00
C375   C     0.31201   0.79429   0.26333   0.00000  Uiso   1.00
C376   C     0.02133   0.87236   0.23663   0.00000  Uiso   1.00
C377   C     0.13232   0.85107   0.04691   0.00000  Uiso   1.00
C378   C     0.13228   0.81597   0.45297   0.00000  Uiso   1.00
C379   C     0.20076   0.85110   0.45317   0.00000  Uiso   1.00
C380   C     0.20074   0.81583   0.04694   0.00000  Uiso   1.00
C381   C     0.13164   0.85094   0.09329   0.00000  Uiso   1.00
C382   C     0.13162   0.81597   0.40658   0.00000  Uiso   1.00
C383   C     0.20152   0.85096   0.40680   0.00000  Uiso   1.00
C384   C     0.24669   0.83334   0.25004   0.00000  Uiso   1.00
C385   C     0.20149   0.81585   0.09332   0.00000  Uiso   1.00
C386   C     0.16657   0.83334   0.11629   0.00000  Uiso   1.00
C387   C     0.16661   0.83340   0.38371   0.00000  Uiso   1.00
C388   C     0.16651   0.83348   0.02410   0.00000  Uiso   1.00
C389   C     0.16650   0.83354   0.47589   0.00000  Uiso   1.00
C390   C     0.29083   0.83335   0.25004   0.00000  Uiso   1.00
C391   C     0.04250   0.83332   0.24995   0.00000  Uiso   1.00
C392   C     0.09406   0.86817   0.11704   0.00000  Uiso   1.00
C393   C     0.09397   0.79886   0.38270   0.00000  Uiso   1.00
C394   C     0.23920   0.86807   0.38315   0.00000  Uiso   1.00
C395   C     0.16663   0.83333   0.16412   0.00000  Uiso   1.00
C396   C     0.23918   0.79875   0.11709   0.00000  Uiso   1.00
C397   C     0.16666   0.83335   0.33588   0.00000  Uiso   1.00
C398   C     0.19347   0.69067   0.27679   0.00000  Uiso   1.00
C399   C     0.13986   0.97599   0.22320   0.00000  Uiso   1.00
C400   C     0.13986   0.69062   0.22321   0.00000  Uiso   1.00
C401   C     0.19347   0.97604   0.27680   0.00000  Uiso   1.00
C402   C     0.02137   0.79429   0.26331   0.00000  Uiso   1.00
H403   H     0.21491   0.70886   0.29821   0.00000  Uiso   1.00
H404   H     0.29561   0.90259   0.22600   0.00000  Uiso   1.00
H405   H     0.29567   0.76410   0.27408   0.00000  Uiso   1.00
H406   H     0.03767   0.90255   0.22584   0.00000  Uiso   1.00
H407   H     0.09138   0.86545   0.15302   0.00000  Uiso   1.00
H408   H     0.09132   0.80148   0.34671   0.00000  Uiso   1.00
H409   H     0.24195   0.86530   0.34718   0.00000  Uiso   1.00
H410   H     0.24196   0.80152   0.15307   0.00000  Uiso   1.00
H411   H     0.11843   0.95779   0.20178   0.00000  Uiso   1.00
H412   H     0.11843   0.70876   0.20179   0.00000  Uiso   1.00
H413   H     0.21489   0.95789   0.29823   0.00000  Uiso   1.00
H414   H     0.10623   0.86479   0.02826   0.00000  Uiso   1.00
H415   H     0.10615   0.80234   0.47153   0.00000  Uiso   1.00
H416   H     0.22685   0.86476   0.47189   0.00000  Uiso   1.00
H417   H     0.22681   0.80218   0.02832   0.00000  Uiso   1.00
H418   H     0.03773   0.76410   0.27406   0.00000  Uiso   1.00
N419   N     0.16667   0.95240   0.25000   0.00000  Uiso   1.00
N420   N     0.16667   0.71427   0.25000   0.00000  Uiso   1.00
O421   O     0.10559   0.87154   0.24999   0.00000  Uiso   1.00
O422   O     0.06506   0.78175   0.40312   0.00000  Uiso   1.00
O423   O     0.26800   0.88537   0.40373   0.00000  Uiso   1.00
O424   O     0.26797   0.78150   0.09660   0.00000  Uiso   1.00
O425   O     0.22774   0.79513   0.25001   0.00000  Uiso   1.00
O426   O     0.22774   0.87154   0.25001   0.00000  Uiso   1.00
O427   O     0.10559   0.79513   0.24999   0.00000  Uiso   1.00
O428   O     0.16666   0.87155   0.18453   0.00000  Uiso   1.00
O429   O     0.16667   0.79511   0.31547   0.00000  Uiso   1.00
O430   O     0.16667   0.87155   0.31547   0.00000  Uiso   1.00
O431   O     0.16666   0.79511   0.18453   0.00000  Uiso   1.00
O432   O     0.06525   0.88551   0.09654   0.00000  Uiso   1.00
Zn433  Zn    0.16667   0.88437   0.25000   0.00000  Uiso   1.00
Zn434  Zn    0.16667   0.78229   0.25000   0.00000  Uiso   1.00
C435   C     0.41997   0.83333   0.24996   0.00000  Uiso   1.00
C436   C     0.64531   0.87239   0.23671   0.00000  Uiso   1.00
C437   C     0.64534   0.79429   0.26333   0.00000  Uiso   1.00
C438   C     0.35467   0.87236   0.23663   0.00000  Uiso   1.00
C439   C     0.46565   0.85107   0.04691   0.00000  Uiso   1.00
C440   C     0.46561   0.81597   0.45297   0.00000  Uiso   1.00
C441   C     0.53409   0.85110   0.45317   0.00000  Uiso   1.00
C442   C     0.53407   0.81583   0.04694   0.00000  Uiso   1.00
C443   C     0.46498   0.85094   0.09329   0.00000  Uiso   1.00
C444   C     0.46495   0.81597   0.40658   0.00000  Uiso   1.00
C445   C     0.53486   0.85096   0.40680   0.00000  Uiso   1.00
C446   C     0.58003   0.83334   0.25004   0.00000  Uiso   1.00
C447   C     0.53482   0.81585   0.09332   0.00000  Uiso   1.00
C448   C     0.49991   0.83334   0.11629   0.00000  Uiso   1.00
C449   C     0.49994   0.83340   0.38371   0.00000  Uiso   1.00
C450   C     0.49985   0.83348   0.02410   0.00000  Uiso   1.00
C451   C     0.49984   0.83354   0.47589   0.00000  Uiso   1.00
C452   C     0.62417   0.83335   0.25004   0.00000  Uiso   1.00
C453   C     0.37584   0.83332   0.24995   0.00000  Uiso   1.00
C454   C     0.42739   0.86817   0.11704   0.00000  Uiso   1.00
C455   C     0.42730   0.79886   0.38270   0.00000  Uiso   1.00
C456   C     0.57253   0.86807   0.38315   0.00000  Uiso   1.00
C457   C     0.49997   0.83333   0.16412   0.00000  Uiso   1.00
C458   C     0.57251   0.79875   0.11709   0.00000  Uiso   1.00
C459   C     0.50000   0.83335   0.33588   0.00000  Uiso   1.00
C460   C     0.52681   0.69067   0.27679   0.00000  Uiso   1.00
C461   C     0.47319   0.97599   0.22320   0.00000  Uiso   1.00
C462   C     0.47319   0.69062   0.22321   0.00000  Uiso   1.00
C463   C     0.52680   0.97604   0.27680   0.00000  Uiso   1.00
C464   C     0.35470   0.79429   0.26331   0.00000  Uiso   1.00
H465   H     0.54825   0.70886   0.29821   0.00000  Uiso   1.00
H466   H     0.62894   0.90259   0.22600   0.00000  Uiso   1.00
H467   H     0.62900   0.76410   0.27408   0.00000  Uiso   1.00
H468   H     0.37101   0.90255   0.22584   0.00000  Uiso   1.00
H469   H     0.42472   0.86545   0.15302   0.00000  Uiso   1.00
H470   H     0.42465   0.80148   0.34671   0.00000  Uiso   1.00
H471   H     0.57529   0.86530   0.34718   0.00000  Uiso   1.00
H472   H     0.57530   0.80152   0.15307   0.00000  Uiso   1.00
H473   H     0.45177   0.95779   0.20178   0.00000  Uiso   1.00
H474   H     0.45176   0.70876   0.20179   0.00000  Uiso   1.00
H475   H     0.54823   0.95789   0.29823   0.00000  Uiso   1.00
H476   H     0.43956   0.86479   0.02826   0.00000  Uiso   1.00
H477   H     0.43948   0.80234   0.47153   0.00000  Uiso   1.00
H478   H     0.56019   0.86476   0.47189   0.00000  Uiso   1.00
H479   H     0.56015   0.80218   0.02832   0.00000  Uiso   1.00
H480   H     0.37107   0.76410   0.27406   0.00000  Uiso   1.00
N481   N     0.50000   0.95240   0.25000   0.00000  Uiso   1.00
N482   N     0.50000   0.71427   0.25000   0.00000  Uiso   1.00
O483   O     0.43892   0.87154   0.24999   0.00000  Uiso   1.00
O484   O     0.39839   0.78175   0.40312   0.00000  Uiso   1.00
O485   O     0.60133   0.88537   0.40373   0.00000  Uiso   1.00
O486   O     0.60131   0.78150   0.09660   0.00000  Uiso   1.00
O487   O     0.56108   0.79513   0.25001   0.00000  Uiso   1.00
O488   O     0.56108   0.87154   0.25001   0.00000  Uiso   1.00
O489   O     0.43892   0.79513   0.24999   0.00000  Uiso   1.00
O490   O     0.50000   0.87155   0.18453   0.00000  Uiso   1.00
O491   O     0.50000   0.79511   0.31547   0.00000  Uiso   1.00
O492   O     0.50000   0.87155   0.31547   0.00000  Uiso   1.00
O493   O     0.50000   0.79511   0.18453   0.00000  Uiso   1.00
O494   O     0.39859   0.88551   0.09654   0.00000  Uiso   1.00
Zn495  Zn    0.50000   0.88437   0.25000   0.00000  Uiso   1.00
Zn496  Zn    0.50000   0.78229   0.25000   0.00000  Uiso   1.00
C497   C     0.75331   0.83333   0.24996   0.00000  Uiso   1.00
C498   C     0.97864   0.87239   0.23671   0.00000  Uiso   1.00
C499   C     0.97867   0.79429   0.26333   0.00000  Uiso   1.00
C500   C     0.68800   0.87236   0.23663   0.00000  Uiso   1.00
C501   C     0.79898   0.85107   0.04691   0.00000  Uiso   1.00
C502   C     0.79894   0.81597   0.45297   0.00000  Uiso   1.00
C503   C     0.86743   0.85110   0.45317   0.00000  Uiso   1.00
C504   C     0.86740   0.81583   0.04694   0.00000  Uiso   1.00
C505   C     0.79831   0.85094   0.09329   0.00000  Uiso   1.00
C506   C     0.79828   0.81597   0.40658   0.00000  Uiso   1.00
C507   C     0.86819   0.85096   0.40680   0.00000  Uiso   1.00
C508   C     0.91336   0.83334   0.25004   0.00000  Uiso   1.00
C509   C     0.86815   0.81585   0.09332   0.00000  Uiso   1.00
C510   C     0.83324   0.83334   0.11629   0.00000  Uiso   1.00
C511   C     0.83328   0.83340   0.38371   0.00000  Uiso   1.00
C512   C     0.83318   0.83348   0.02410   0.00000  Uiso   1.00
C513   C     0.83317   0.83354   0.47589   0.00000  Uiso   1.00
C514   C     0.95750   0.83335   0.25004   0.00000  Uiso   1.00
C515   C     0.70917   0.83332   0.24995   0.00000  Uiso   1.00
C516   C     0.76073   0.86817   0.11704   0.00000  Uiso   1.00
C517   C     0.76063   0.79886   0.38270   0.00000  Uiso   1.00
C518   C     0.90587   0.86807   0.38315   0.00000  Uiso   1.00
C519   C     0.83330   0.83333   0.16412   0.00000  Uiso   1.00
C520   C     0.90585   0.79875   0.11709   0.00000  Uiso   1.00
C521   C     0.83333   0.83335   0.33588   0.00000  Uiso   1.00
C522   C     0.86014   0.69067   0.27679   0.00000  Uiso   1.00
C523   C     0.80653   0.97599   0.22320   0.00000  Uiso   1.00
C524   C     0.80653   0.69062   0.22321   0.00000  Uiso   1.00
C525   C     0.86014   0.97604   0.27680   0.00000  Uiso   1.00
C526   C     0.68803   0.79429   0.26331   0.00000  Uiso   1.00
H527   H     0.88158   0.70886   0.29821   0.00000  Uiso   1.00
H528   H     0.96228   0.90259   0.22600   0.00000  Uiso   1.00
H529   H     0.96234   0.76410   0.27408   0.00000  Uiso   1.00
H530   H     0.70434   0.90255   0.22584   0.00000  Uiso   1.00
H531   H     0.75805   0.86545   0.15302   0.00000  Uiso   1.00
H532   H     0.75799   0.80148   0.34671   0.00000  Uiso   1.00
H533   H     0.90862   0.86530   0.34718   0.00000  Uiso   1.00
H534   H     0.90863   0.80152   0.15307   0.00000  Uiso   1.00
H535   H     0.78510   0.95779   0.20178   0.00000  Uiso   1.00
H536   H     0.78509   0.70876   0.20179   0.00000  Uiso   1.00
H537   H     0.88156   0.95789   0.29823   0.00000  Uiso   1.00
H538   H     0.77289   0.86479   0.02826   0.00000  Uiso   1.00
H539   H     0.77282   0.80234   0.47153   0.00000  Uiso   1.00
H540   H     0.89352   0.86476   0.47189   0.00000  Uiso   1.00
H541   H     0.89348   0.80218   0.02832   0.00000  Uiso   1.00
H542   H     0.70440   0.76410   0.27406   0.00000  Uiso   1.00
N543   N     0.83333   0.95240   0.25000   0.00000  Uiso   1.00
N544   N     0.83333   0.71427   0.25000   0.00000  Uiso   1.00
O545   O     0.77226   0.87154   0.24999   0.00000  Uiso   1.00
O546   O     0.73173   0.78175   0.40312   0.00000  Uiso   1.00
O547   O     0.93467   0.88537   0.40373   0.00000  Uiso   1.00
O548   O     0.93464   0.78150   0.09660   0.00000  Uiso   1.00
O549   O     0.89441   0.79513   0.25001   0.00000  Uiso   1.00
O550   O     0.89441   0.87154   0.25001   0.00000  Uiso   1.00
O551   O     0.77226   0.79513   0.24999   0.00000  Uiso   1.00
O552   O     0.83333   0.87155   0.18453   0.00000  Uiso   1.00
O553   O     0.83334   0.79511   0.31547   0.00000  Uiso   1.00
O554   O     0.83334   0.87155   0.31547   0.00000  Uiso   1.00
O555   O     0.83333   0.79511   0.18453   0.00000  Uiso   1.00
O556   O     0.73192   0.88551   0.09654   0.00000  Uiso   1.00
Zn557  Zn    0.83333   0.88437   0.25000   0.00000  Uiso   1.00
Zn558  Zn    0.83333   0.78229   0.25000   0.00000  Uiso   1.00
C559   C     0.08664   0.16666   0.74996   0.00000  Uiso   1.00
C560   C     0.31197   0.20572   0.73671   0.00000  Uiso   1.00
C561   C     0.31201   0.12763   0.76333   0.00000  Uiso   1.00
C562   C     0.02133   0.20570   0.73663   0.00000  Uiso   1.00
C563   C     0.13232   0.18440   0.54691   0.00000  Uiso   1.00
C564   C     0.13228   0.14930   0.95297   0.00000  Uiso   1.00
C565   C     0.20076   0.18443   0.95317   0.00000  Uiso   1.00
C566   C     0.20074   0.14916   0.54694   0.00000  Uiso   1.00
C567   C     0.13164   0.18427   0.59329   0.00000  Uiso   1.00
C568   C     0.13162   0.14931   0.90658   0.00000  Uiso   1.00
C569   C     0.20152   0.18429   0.90680   0.00000  Uiso   1.00
C570   C     0.24669   0.16667   0.75004   0.00000  Uiso   1.00
C571   C     0.20149   0.14919   0.59332   0.00000  Uiso   1.00
C572   C     0.16657   0.16667   0.61629   0.00000  Uiso   1.00
C573   C     0.16661   0.16673   0.88371   0.00000  Uiso   1.00
C574   C     0.16651   0.16681   0.52410   0.00000  Uiso   1.00
C575   C     0.16650   0.16688   0.97589   0.00000  Uiso   1.00
C576   C     0.29083   0.16668   0.75004   0.00000  Uiso   1.00
C577   C     0.04250   0.16665   0.74995   0.00000  Uiso   1.00
C578   C     0.09406   0.20150   0.61704   0.00000  Uiso   1.00
C579   C     0.09397   0.13219   0.88270   0.00000  Uiso   1.00
C580   C     0.23920   0.20141   0.88315   0.00000  Uiso   1.00
C581   C     0.16663   0.16666   0.66412   0.00000  Uiso   1.00
C582   C     0.23918   0.13209   0.61709   0.00000  Uiso   1.00
C583   C     0.16666   0.16668   0.83588   0.00000  Uiso   1.00
C584   C     0.19347   0.02400   0.77679   0.00000  Uiso   1.00
C585   C     0.13986   0.30932   0.72320   0.00000  Uiso   1.00
C586   C     0.13986   0.02395   0.72321   0.00000  Uiso   1.00
C587   C     0.19347   0.30938   0.77680   0.00000  Uiso   1.00
C588   C     0.02137   0.12762   0.76331   0.00000  Uiso   1.00
H589   H     0.21491   0.04219   0.79821   0.00000  Uiso   1.00
H590   H     0.29561   0.23593   0.72600   0.00000  Uiso   1.00
H591   H     0.29567   0.09743   0.77408   0.00000  Uiso   1.00
H592   H     0.03767   0.23588   0.72584   0.00000  Uiso   1.00
H593   H     0.09138   0.19878   0.65302   0.00000  Uiso   1.00
H594   H     0.09132   0.13481   0.84671   0.00000  Uiso   1.00
H595   H     0.24195   0.19864   0.84718   0.00000  Uiso   1.00
H596   H     0.24196   0.13485   0.65307   0.00000  Uiso   1.00
H597   H     0.11843   0.29113   0.70178   0.00000  Uiso   1.00
H598   H     0.11843   0.04209   0.70179   0.00000  Uiso   1.00
H599   H     0.21489   0.29122   0.79823   0.00000  Uiso   1.00
H600   H     0.10623   0.19812   0.52826   0.00000  Uiso   1.00
H601   H     0.10615   0.13568   0.97153   0.00000  Uiso   1.00
H602   H     0.22685   0.19810   0.97189   0.00000  Uiso   1.00
H603   H     0.22681   0.13552   0.52832   0.00000  Uiso   1.00
H604   H     0.03773   0.09743   0.77406   0.00000  Uiso   1.00
N605   N     0.16667   0.28573   0.75000   0.00000  Uiso   1.00
N606   N     0.16667   0.04760   0.75000   0.00000  Uiso   1.00
O607   O     0.10559   0.20487   0.74999   0.00000  Uiso   1.00
O608   O     0.06506   0.11508   0.90312   0.00000  Uiso   1.00
O609   O     0.26800   0.21870   0.90373   0.00000  Uiso   1.00
O610   O     0.26797   0.11484   0.59660   0.00000  Uiso   1.00
O611   O     0.22774   0.12846   0.75001   0.00000  Uiso   1.00
O612   O     0.22774   0.20487   0.75001   0.00000  Uiso   1.00
O613   O     0.10559   0.12846   0.74999   0.00000  Uiso   1.00
O614   O     0.16666   0.20489   0.68453   0.00000  Uiso   1.00
O615   O     0.16667   0.12845   0.81547   0.00000  Uiso   1.00
O616   O     0.16667   0.20489   0.81547   0.00000  Uiso   1.00
O617   O     0.16666   0.12845   0.68453   0.00000  Uiso   1.00
O618   O     0.06525   0.21884   0.59654   0.00000  Uiso   1.00
Zn619  Zn    0.16667   0.21771   0.75000   0.00000  Uiso   1.00
Zn620  Zn    0.16667   0.11563   0.75000   0.00000  Uiso   1.00
C621   C     0.41997   0.16666   0.74996   0.00000  Uiso   1.00
C622   C     0.64531   0.20572   0.73671   0.00000  Uiso   1.00
C623   C     0.64534   0.12763   0.76333   0.00000  Uiso   1.00
C624   C     0.35467   0.20570   0.73663   0.00000  Uiso   1.00
C625   C     0.46565   0.18440   0.54691   0.00000  Uiso   1.00
C626   C     0.46561   0.14930   0.95297   0.00000  Uiso   1.00
C627   C     0.53409   0.18443   0.95317   0.00000  Uiso   1.00
C628   C     0.53407   0.14916   0.54694   0.00000  Uiso   1.00
C629   C     0.46498   0.18427   0.59329   0.00000  Uiso   1.00
C630   C     0.46495   0.14931   0.90658   0.00000  Uiso   1.00
C631   C     0.53486   0.18429   0.90680   0.00000  Uiso   1.00
C632   C     0.58003   0.16667   0.75004   0.00000  Uiso   1.00
C633   C     0.53482   0.14919   0.59332   0.00000  Uiso   1.00
C634   C     0.49991   0.16667   0.61629   0.00000  Uiso   1.00
C635   C     0.49994   0.16673   0.88371   0.00000  Uiso   1.00
C636   C     0.49985   0.16681   0.52410   0.00000  Uiso   1.00
C637   C     0.49984   0.16688   0.97589   0.00000  Uiso   1.00
C638   C     0.62417   0.16668   0.75004   0.00000  Uiso   1.00
C639   C     0.37584   0.16665   0.74995   0.00000  Uiso   1.00
C640   C     0.42739   0.20150   0.61704   0.00000  Uiso   1.00
C641   C     0.42730   0.13219   0.88270   0.00000  Uiso   1.00
C642   C     0.57253   0.20141   0.88315   0.00000  Uiso   1.00
C643   C     0.49997   0.16666   0.66412   0.00000  Uiso   1.00
C644   C     0.57251   0.13209   0.61709   0.00000  Uiso   1.00
C645   C     0.50000   0.16668   0.83588   0.00000  Uiso   1.00
C646   C     0.52681   0.02400   0.77679   0.00000  Uiso   1.00
C647   C     0.47319   0.30932   0.72320   0.00000  Uiso   1.00
C648   C     0.47319   0.02395   0.72321   0.00000  Uiso   1.00
C649   C     0.52680   0.30938   0.77680   0.00000  Uiso   1.00
C650   C     0.35470   0.12762   0.76331   0.00000  Uiso   1.00
H651   H     0.54825   0.04219   0.79821   0.00000  Uiso   1.00
H652   H     0.62894   0.23593   0.72600   0.00000  Uiso   1.00
H653   H     0.62900   0.09743   0.77408   0.00000  Uiso   1.00
H654   H     0.37101   0.23588   0.72584   0.00000  Uiso   1.00
H655   H     0.42472   0.19878   0.65302   0.00000  Uiso   1.00
H656   H     0.42465   0.13481   0.84671   0.00000  Uiso   1.00
H657   H     0.57529   0.19864   0.84718   0.00000  Uiso   1.00
H658   H     0.57530   0.13485   0.65307   0.00000  Uiso   1.00
H659   H     0.45177   0.29113   0.70178   0.00000  Uiso   1.00
H660   H     0.45176   0.04209   0.70179   0.00000  Uiso   1.00
H661   H     0.54823   0.29122   0.79823   0.00000  Uiso   1.00
H662   H     0.43956   0.19812   0.52826   0.00000  Uiso   1.00
H663   H     0.43948   0.13568   0.97153   0.00000  Uiso   1.00
H664   H     0.56019   0.19810   0.97189   0.00000  Uiso   1.00
H665   H     0.56015   0.13552   0.52832   0.00000  Uiso   1.00
H666   H     0.37107   0.09743   0.77406   0.00000  Uiso   1.00
N667   N     0.50000   0.28573   0.75000   0.00000  Uiso   1.00
N668   N     0.50000   0.04760   0.75000   0.00000  Uiso   1.00
O669   O     0.43892   0.20487   0.74999   0.00000  Uiso   1.00
O670   O     0.39839   0.11508   0.90312   0.00000  Uiso   1.00
O671   O     0.60133   0.21870   0.90373   0.00000  Uiso   1.00
O672   O     0.60131   0.11484   0.59660   0.00000  Uiso   1.00
O673   O     0.56108   0.12846   0.75001   0.00000  Uiso   1.00
O674   O     0.56108   0.20487   0.75001   0.00000  Uiso   1.00
O675   O     0.43892   0.12846   0.74999   0.00000  Uiso   1.00
O676   O     0.50000   0.20489   0.68453   0.00000  Uiso   1.00
O677   O     0.50000   0.12845   0.81547   0.00000  Uiso   1.00
O678   O     0.50000   0.20489   0.81547   0.00000  Uiso   1.00
O679   O     0.50000   0.12845   0.68453   0.00000  Uiso   1.00
O680   O     0.39859   0.21884   0.59654   0.00000  Uiso   1.00
Zn681  Zn    0.50000   0.21771   0.75000   0.00000  Uiso   1.00
Zn682  Zn    0.50000   0.11563   0.75000   0.00000  Uiso   1.00
C683   C     0.75331   0.16666   0.74996   0.00000  Uiso   1.00
C684   C     0.97864   0.20572   0.73671   0.00000  Uiso   1.00
C685   C     0.97867   0.12763   0.76333   0.00000  Uiso   1.00
C686   C     0.68800   0.20570   0.73663   0.00000  Uiso   1.00
C687   C     0.79898   0.18440   0.54691   0.00000  Uiso   1.00
C688   C     0.79894   0.14930   0.95297   0.00000  Uiso   1.00
C689   C     0.86743   0.18443   0.95317   0.00000  Uiso   1.00
C690   C     0.86740   0.14916   0.54694   0.00000  Uiso   1.00
C691   C     0.79831   0.18427   0.59329   0.00000  Uiso   1.00
C692   C     0.79828   0.14931   0.90658   0.00000  Uiso   1.00
C693   C     0.86819   0.18429   0.90680   0.00000  Uiso   1.00
C694   C     0.91336   0.16667   0.75004   0.00000  Uiso   1.00
C695   C     0.86815   0.14919   0.59332   0.00000  Uiso   1.00
C696   C     0.83324   0.16667   0.61629   0.00000  Uiso   1.00
C697   C     0.83328   0.16673   0.88371   0.00000  Uiso   1.00
C698   C     0.83318   0.16681   0.52410   0.00000  Uiso   1.00
C699   C     0.83317   0.16688   0.97589   0.00000  Uiso   1.00
C700   C     0.95750   0.16668   0.75004   0.00000  Uiso   1.00
C701   C     0.70917   0.16665   0.74995   0.00000  Uiso   1.00
C702   C     0.76073   0.20150   0.61704   0.00000  Uiso   1.00
C703   C     0.76063   0.13219   0.88270   0.00000  Uiso   1.00
C704   C     0.90587   0.20141   0.88315   0.00000  Uiso   1.00
C705   C     0.83330   0.16666   0.66412   0.00000  Uiso   1.00
C706   C     0.90585   0.13209   0.61709   0.00000  Uiso   1.00
C707   C     0.83333   0.16668   0.83588   0.00000  Uiso   1.00
C708   C     0.86014   0.02400   0.77679   0.00000  Uiso   1.00
C709   C     0.80653   0.30932   0.72320   0.00000  Uiso   1.00
C710   C     0.80653   0.02395   0.72321   0.00000  Uiso   1.00
C711   C     0.86014   0.30938   0.77680   0.00000  Uiso   1.00
C712   C     0.68803   0.12762   0.76331   0.00000  Uiso   1.00
H713   H     0.88158   0.04219   0.79821   0.00000  Uiso   1.00
H714   H     0.96228   0.23593   0.72600   0.00000  Uiso   1.00
H715   H     0.96234   0.09743   0.77408   0.00000  Uiso   1.00
H716   H     0.70434   0.23588   0.72584   0.00000  Uiso   1.00
H717   H     0.75805   0.19878   0.65302   0.00000  Uiso   1.00
H718   H     0.75799   0.13481   0.84671   0.00000  Uiso   1.00
H719   H     0.90862   0.19864   0.84718   0.00000  Uiso   1.00
H720   H     0.90863   0.13485   0.65307   0.00000  Uiso   1.00
H721   H     0.78510   0.29113   0.70178   0.00000  Uiso   1.00
H722   H     0.78509   0.04209   0.70179   0.00000  Uiso   1.00
H723   H     0.88156   0.29122   0.79823   0.00000  Uiso   1.00
H724   H     0.77289   0.19812   0.52826   0.00000  Uiso   1.00
H725   H     0.77282   0.13568   0.97153   0.00000  Uiso   1.00
H726   H     0.89352   0.19810   0.97189   0.00000  Uiso   1.00
H727   H     0.89348   0.13552   0.52832   0.00000  Uiso   1.00
H728   H     0.70440   0.09743   0.77406   0.00000  Uiso   1.00
N729   N     0.83333   0.28573   0.75000   0.00000  Uiso   1.00
N730   N     0.83333   0.04760   0.75000   0.00000  Uiso   1.00
O731   O     0.77226   0.20487   0.74999   0.00000  Uiso   1.00
O732   O     0.73173   0.11508   0.90312   0.00000  Uiso   1.00
O733   O     0.93467   0.21870   0.90373   0.00000  Uiso   1.00
O734   O     0.93464   0.11484   0.59660   0.00000  Uiso   1.00
O735   O     0.89441   0.12846   0.75001   0.00000  Uiso   1.00
O736   O     0.89441   0.20487   0.75001   0.00000  Uiso   1.00
O737   O     0.77226   0.12846   0.74999   0.00000  Uiso   1.00
O738   O     0.83333   0.20489   0.68453   0.00000  Uiso   1.00
O739   O     0.83334   0.12845   0.81547   0.00000  Uiso   1.00
O740   O     0.83334   0.20489   0.81547   0.00000  Uiso   1.00
O741   O     0.83333   0.12845   0.68453   0.00000  Uiso   1.00
O742   O     0.73192   0.21884   0.59654   0.00000  Uiso   1.00
Zn743  Zn    0.83333   0.21771   0.75000   0.00000  Uiso   1.00
Zn744  Zn    0.83333   0.11563   0.75000   0.00000  Uiso   1.00
C745   C     0.08664   0.49999   0.74996   0.00000  Uiso   1.00
C746   C     0.31197   0.53905   0.73671   0.00000  Uiso   1.00
C747   C     0.31201   0.46096   0.76333   0.00000  Uiso   1.00
C748   C     0.02133   0.53903   0.73663   0.00000  Uiso   1.00
C749   C     0.13232   0.51774   0.54691   0.00000  Uiso   1.00
C750   C     0.13228   0.48263   0.95297   0.00000  Uiso   1.00
C751   C     0.20076   0.51776   0.95317   0.00000  Uiso   1.00
C752   C     0.20074   0.48250   0.54694   0.00000  Uiso   1.00
C753   C     0.13164   0.51761   0.59329   0.00000  Uiso   1.00
C754   C     0.13162   0.48264   0.90658   0.00000  Uiso   1.00
C755   C     0.20152   0.51762   0.90680   0.00000  Uiso   1.00
C756   C     0.24669   0.50001   0.75004   0.00000  Uiso   1.00
C757   C     0.20149   0.48252   0.59332   0.00000  Uiso   1.00
C758   C     0.16657   0.50000   0.61629   0.00000  Uiso   1.00
C759   C     0.16661   0.50007   0.88371   0.00000  Uiso   1.00
C760   C     0.16651   0.50015   0.52410   0.00000  Uiso   1.00
C761   C     0.16650   0.50021   0.97589   0.00000  Uiso   1.00
C762   C     0.29083   0.50001   0.75004   0.00000  Uiso   1.00
C763   C     0.04250   0.49999   0.74995   0.00000  Uiso   1.00
C764   C     0.09406   0.53483   0.61704   0.00000  Uiso   1.00
C765   C     0.09397   0.46552   0.88270   0.00000  Uiso   1.00
C766   C     0.23920   0.53474   0.88315   0.00000  Uiso   1.00
C767   C     0.16663   0.49999   0.66412   0.00000  Uiso   1.00
C768   C     0.23918   0.46542   0.61709   0.00000  Uiso   1.00
C769   C     0.16666   0.50001   0.83588   0.00000  Uiso   1.00
C770   C     0.19347   0.35734   0.77679   0.00000  Uiso   1.00
C771   C     0.13986   0.64266   0.72320   0.00000  Uiso   1.00
C772   C     0.13986   0.35728   0.72321   0.00000  Uiso   1.00
C773   C     0.19347   0.64271   0.77680   0.00000  Uiso   1.00
C774   C     0.02137   0.46095   0.76331   0.00000  Uiso   1.00
H775   H     0.21491   0.37552   0.79821   0.00000  Uiso   1.00
H776   H     0.29561   0.56926   0.72600   0.00000  Uiso   1.00
H777   H     0.29567   0.43076   0.77408   0.00000  Uiso   1.00
H778   H     0.03767   0.56921   0.72584   0.00000  Uiso   1.00
H779   H     0.09138   0.53212   0.65302   0.00000  Uiso   1.00
H780   H     0.09132   0.46814   0.84671   0.00000  Uiso   1.00
H781   H     0.24195   0.53197   0.84718   0.00000  Uiso   1.00
H782   H     0.24196   0.46818   0.65307   0.00000  Uiso   1.00
H783   H     0.11843   0.62446   0.70178   0.00000  Uiso   1.00
H784   H     0.11843   0.37543   0.70179   0.00000  Uiso   1.00
H785   H     0.21489   0.62456   0.79823   0.00000  Uiso   1.00
H786   H     0.10623   0.53145   0.52826   0.00000  Uiso   1.00
H787   H     0.10615   0.46901   0.97153   0.00000  Uiso   1.00
H788   H     0.22685   0.53143   0.97189   0.00000  Uiso   1.00
H789   H     0.22681   0.46885   0.52832   0.00000  Uiso   1.00
H790   H     0.03773   0.43076   0.77406   0.00000  Uiso   1.00
N791   N     0.16667   0.61907   0.75000   0.00000  Uiso   1.00
N792   N     0.16667   0.38093   0.75000   0.00000  Uiso   1.00
O793   O     0.10559   0.53821   0.74999   0.00000  Uiso   1.00
O794   O     0.06506   0.44841   0.90312   0.00000  Uiso   1.00
O795   O     0.26800   0.55203   0.90373   0.00000  Uiso   1.00
O796   O     0.26797   0.44817   0.59660   0.00000  Uiso   1.00
O797   O     0.22774   0.46179   0.75001   0.00000  Uiso   1.00
O798   O     0.22774   0.53821   0.75001   0.00000  Uiso   1.00
O799   O     0.10559   0.46179   0.74999   0.00000  Uiso   1.00
O800   O     0.16666   0.53822   0.68453   0.00000  Uiso   1.00
O801   O     0.16667   0.46178   0.81547   0.00000  Uiso   1.00
O802   O     0.16667   0.53822   0.81547   0.00000  Uiso   1.00
O803   O     0.16666   0.46178   0.68453   0.00000  Uiso   1.00
O804   O     0.06525   0.55217   0.59654   0.00000  Uiso   1.00
Zn805  Zn    0.16667   0.55104   0.75000   0.00000  Uiso   1.00
Zn806  Zn    0.16667   0.44896   0.75000   0.00000  Uiso   1.00
C807   C     0.41997   0.49999   0.74996   0.00000  Uiso   1.00
C808   C     0.64531   0.53905   0.73671   0.00000  Uiso   1.00
C809   C     0.64534   0.46096   0.76333   0.00000  Uiso   1.00
C810   C     0.35467   0.53903   0.73663   0.00000  Uiso   1.00
C811   C     0.46565   0.51774   0.54691   0.00000  Uiso   1.00
C812   C     0.46561   0.48263   0.95297   0.00000  Uiso   1.00
C813   C     0.53409   0.51776   0.95317   0.00000  Uiso   1.00
C814   C     0.53407   0.48250   0.54694   0.00000  Uiso   1.00
C815   C     0.46498   0.51761   0.59329   0.00000  Uiso   1.00
C816   C     0.46495   0.48264   0.90658   0.00000  Uiso   1.00
C817   C     0.53486   0.51762   0.90680   0.00000  Uiso   1.00
C818   C     0.58003   0.50001   0.75004   0.00000  Uiso   1.00
C819   C     0.53482   0.48252   0.59332   0.00000  Uiso   1.00
C820   C     0.49991   0.50000   0.61629   0.00000  Uiso   1.00
C821   C     0.49994   0.50007   0.88371   0.00000  Uiso   1.00
C822   C     0.49985   0.50015   0.52410   0.00000  Uiso   1.00
C823   C     0.49984   0.50021   0.97589   0.00000  Uiso   1.00
C824   C     0.62417   0.50001   0.75004   0.00000  Uiso   1.00
C825   C     0.37584   0.49999   0.74995   0.00000  Uiso   1.00
C826   C     0.42739   0.53483   0.61704   0.00000  Uiso   1.00
C827   C     0.42730   0.46552   0.88270   0.00000  Uiso   1.00
C828   C     0.57253   0.53474   0.88315   0.00000  Uiso   1.00
C829   C     0.49997   0.49999   0.66412   0.00000  Uiso   1.00
C830   C     0.57251   0.46542   0.61709   0.00000  Uiso   1.00
C831   C     0.50000   0.50001   0.83588   0.00000  Uiso   1.00
C832   C     0.52681   0.35734   0.77679   0.00000  Uiso   1.00
C833   C     0.47319   0.64266   0.72320   0.00000  Uiso   1.00
C834   C     0.47319   0.35728   0.72321   0.00000  Uiso   1.00
C835   C     0.52680   0.64271   0.77680   0.00000  Uiso   1.00
C836   C     0.35470   0.46095   0.76331   0.00000  Uiso   1.00
H837   H     0.54825   0.37552   0.79821   0.00000  Uiso   1.00
H838   H     0.62894   0.56926   0.72600   0.00000  Uiso   1.00
H839   H     0.62900   0.43076   0.77408   0.00000  Uiso   1.00
H840   H     0.37101   0.56921   0.72584   0.00000  Uiso   1.00
H841   H     0.42472   0.53212   0.65302   0.00000  Uiso   1.00
H842   H     0.42465   0.46814   0.84671   0.00000  Uiso   1.00
H843   H     0.57529   0.53197   0.84718   0.00000  Uiso   1.00
H844   H     0.57530   0.46818   0.65307   0.00000  Uiso   1.00
H845   H     0.45177   0.62446   0.70178   0.00000  Uiso   1.00
H846   H     0.45176   0.37543   0.70179   0.00000  Uiso   1.00
H847   H     0.54823   0.62456   0.79823   0.00000  Uiso   1.00
H848   H     0.43956   0.53145   0.52826   0.00000  Uiso   1.00
H849   H     0.43948   0.46901   0.97153   0.00000  Uiso   1.00
H850   H     0.56019   0.53143   0.97189   0.00000  Uiso   1.00
H851   H     0.56015   0.46885   0.52832   0.00000  Uiso   1.00
H852   H     0.37107   0.43076   0.77406   0.00000  Uiso   1.00
N853   N     0.50000   0.61907   0.75000   0.00000  Uiso   1.00
N854   N     0.50000   0.38093   0.75000   0.00000  Uiso   1.00
O855   O     0.43892   0.53821   0.74999   0.00000  Uiso   1.00
O856   O     0.39839   0.44841   0.90312   0.00000  Uiso   1.00
O857   O     0.60133   0.55203   0.90373   0.00000  Uiso   1.00
O858   O     0.60131   0.44817   0.59660   0.00000  Uiso   1.00
O859   O     0.56108   0.46179   0.75001   0.00000  Uiso   1.00
O860   O     0.56108   0.53821   0.75001   0.00000  Uiso   1.00
O861   O     0.43892   0.46179   0.74999   0.00000  Uiso   1.00
O862   O     0.50000   0.53822   0.68453   0.00000  Uiso   1.00
O863   O     0.50000   0.46178   0.81547   0.00000  Uiso   1.00
O864   O     0.50000   0.53822   0.81547   0.00000  Uiso   1.00
O865   O     0.50000   0.46178   0.68453   0.00000  Uiso   1.00
O866   O     0.39859   0.55217   0.59654   0.00000  Uiso   1.00
Zn867  Zn    0.50000   0.55104   0.75000   0.00000  Uiso   1.00
Zn868  Zn    0.50000   0.44896   0.75000   0.00000  Uiso   1.00
C869   C     0.75331   0.49999   0.74996   0.00000  Uiso   1.00
C870   C     0.97864   0.53905   0.73671   0.00000  Uiso   1.00
C871   C     0.97867   0.46096   0.76333   0.00000  Uiso   1.00
C872   C     0.68800   0.53903   0.73663   0.00000  Uiso   1.00
C873   C     0.79898   0.51774   0.54691   0.00000  Uiso   1.00
C874   C     0.79894   0.48263   0.95297   0.00000  Uiso   1.00
C875   C     0.86743   0.51776   0.95317   0.00000  Uiso   1.00
C876   C     0.86740   0.48250   0.54694   0.00000  Uiso   1.00
C877   C     0.79831   0.51761   0.59329   0.00000  Uiso   1.00
C878   C     0.79828   0.48264   0.90658   0.00000  Uiso   1.00
C879   C     0.86819   0.51762   0.90680   0.00000  Uiso   1.00
C880   C     0.91336   0.50001   0.75004   0.00000  Uiso   1.00
C881   C     0.86815   0.48252   0.59332   0.00000  Uiso   1.00
C882   C     0.83324   0.50000   0.61629   0.00000  Uiso   1.00
C883   C     0.83328   0.50007   0.88371   0.00000  Uiso   1.00
C884   C     0.83318   0.50015   0.52410   0.00000  Uiso   1.00
C885   C     0.83317   0.50021   0.97589   0.00000  Uiso   1.00
C886   C     0.95750   0.50001   0.75004   0.00000  Uiso   1.00
C887   C     0.70917   0.49999   0.74995   0.00000  Uiso   1.00
C888   C     0.76073   0.53483   0.61704   0.00000  Uiso   1.00
C889   C     0.76063   0.46552   0.88270   0.00000  Uiso   1.00
C890   C     0.90587   0.53474   0.88315   0.00000  Uiso   1.00
C891   C     0.83330   0.49999   0.66412   0.00000  Uiso   1.00
C892   C     0.90585   0.46542   0.61709   0.00000  Uiso   1.00
C893   C     0.83333   0.50001   0.83588   0.00000  Uiso   1.00
C894   C     0.86014   0.35734   0.77679   0.00000  Uiso   1.00
C895   C     0.80653   0.64266   0.72320   0.00000  Uiso   1.00
C896   C     0.80653   0.35728   0.72321   0.00000  Uiso   1.00
C897   C     0.86014   0.64271   0.77680   0.00000  Uiso   1.00
C898   C     0.68803   0.46095   0.76331   0.00000  Uiso   1.00
H899   H     0.88158   0.37552   0.79821   0.00000  Uiso   1.00
H900   H     0.96228   0.56926   0.72600   0.00000  Uiso   1.00
H901   H     0.96234   0.43076   0.77408   0.00000  Uiso   1.00
H902   H     0.70434   0.56921   0.72584   0.00000  Uiso   1.00
H903   H     0.75805   0.53212   0.65302   0.00000  Uiso   1.00
H904   H     0.75799   0.46814   0.84671   0.00000  Uiso   1.00
H905   H     0.90862   0.53197   0.84718   0.00000  Uiso   1.00
H906   H     0.90863   0.46818   0.65307   0.00000  Uiso   1.00
H907   H     0.78510   0.62446   0.70178   0.00000  Uiso   1.00
H908   H     0.78509   0.37543   0.70179   0.00000  Uiso   1.00
H909   H     0.88156   0.62456   0.79823   0.00000  Uiso   1.00
H910   H     0.77289   0.53145   0.52826   0.00000  Uiso   1.00
H911   H     0.77282   0.46901   0.97153   0.00000  Uiso   1.00
H912   H     0.89352   0.53143   0.97189   0.00000  Uiso   1.00
H913   H     0.89348   0.46885   0.52832   0.00000  Uiso   1.00
H914   H     0.70440   0.43076   0.77406   0.00000  Uiso   1.00
N915   N     0.83333   0.61907   0.75000   0.00000  Uiso   1.00
N916   N     0.83333   0.38093   0.75000   0.00000  Uiso   1.00
O917   O     0.77226   0.53821   0.74999   0.00000  Uiso   1.00
O918   O     0.73173   0.44841   0.90312   0.00000  Uiso   1.00
O919   O     0.93467   0.55203   0.90373   0.00000  Uiso   1.00
O920   O     0.93464   0.44817   0.59660   0.00000  Uiso   1.00
O921   O     0.89441   0.46179   0.75001   0.00000  Uiso   1.00
O922   O     0.89441   0.53821   0.75001   0.00000  Uiso   1.00
O923   O     0.77226   0.46179   0.74999   0.00000  Uiso   1.00
O924   O     0.83333   0.53822   0.68453   0.00000  Uiso   1.00
O925   O     0.83334   0.46178   0.81547   0.00000  Uiso   1.00
O926   O     0.83334   0.53822   0.81547   0.00000  Uiso   1.00
O927   O     0.83333   0.46178   0.68453   0.00000  Uiso   1.00
O928   O     0.73192   0.55217   0.59654   0.00000  Uiso   1.00
Zn929  Zn    0.83333   0.55104   0.75000   0.00000  Uiso   1.00
Zn930  Zn    0.83333   0.44896   0.75000   0.00000  Uiso   1.00
C931   C     0.08664   0.83333   0.74996   0.00000  Uiso   1.00
C932   C     0.31197   0.87239   0.73671   0.00000  Uiso   1.00
C933   C     0.31201   0.79429   0.76333   0.00000  Uiso   1.00
C934   C     0.02133   0.87236   0.73663   0.00000  Uiso   1.00
C935   C     0.13232   0.85107   0.54691   0.00000  Uiso   1.00
C936   C     0.13228   0.81597   0.95297   0.00000  Uiso   1.00
C937   C     0.20076   0.85110   0.95317   0.00000  Uiso   1.00
C938   C     0.20074   0.81583   0.54694   0.00000  Uiso   1.00
C939   C     0.13164   0.85094   0.59329   0.00000  Uiso   1.00
C940   C     0.13162   0.81597   0.90658   0.00000  Uiso   1.00
C941   C     0.20152   0.85096   0.90680   0.00000  Uiso   1.00
C942   C     0.24669   0.83334   0.75004   0.00000  Uiso   1.00
C943   C     0.20149   0.81585   0.59332   0.00000  Uiso   1.00
C944   C     0.16657   0.83334   0.61629   0.00000  Uiso   1.00
C945   C     0.16661   0.83340   0.88371   0.00000  Uiso   1.00
C946   C     0.16651   0.83348   0.52410   0.00000  Uiso   1.00
C947   C     0.16650   0.83354   0.97589   0.00000  Uiso   1.00
C948   C     0.29083   0.83335   0.75004   0.00000  Uiso   1.00
C949   C     0.04250   0.83332   0.74995   0.00000  Uiso   1.00
C950   C     0.09406   0.86817   0.61704   0.00000  Uiso   1.00
C951   C     0.09397   0.79886   0.88270   0.00000  Uiso   1.00
C952   C     0.23920   0.86807   0.88315   0.00000  Uiso   1.00
C953   C     0.16663   0.83333   0.66412   0.00000  Uiso   1.00
C954   C     0.23918   0.79875   0.61709   0.00000  Uiso   1.00
C955   C     0.16666   0.83335   0.83588   0.00000  Uiso   1.00
C956   C     0.19347   0.69067   0.77679   0.00000  Uiso   1.00
C957   C     0.13986   0.97599   0.72320   0.00000  Uiso   1.00
C958   C     0.13986   0.69062   0.72321   0.00000  Uiso   1.00
C959   C     0.19347   0.97604   0.77680   0.00000  Uiso   1.00
C960   C     0.02137   0.79429   0.76331   0.00000  Uiso   1.00
H961   H     0.21491   0.70886   0.79821   0.00000  Uiso   1.00
H962   H     0.29561   0.90259   0.72600   0.00000  Uiso   1.00
H963   H     0.29567   0.76410   0.77408   0.00000  Uiso   1.00
H964   H     0.03767   0.90255   0.72584   0.00000  Uiso   1.00
H965   H     0.09138   0.86545   0.65302   0.00000  Uiso   1.00
H966   H     0.09132   0.80148   0.84671   0.00000  Uiso   1.00
H967   H     0.24195   0.86530   0.84718   0.00000  Uiso   1.00
H968   H     0.24196   0.80152   0.65307   0.00000  Uiso   1.00
H969   H     0.11843   0.95779   0.70178   0.00000  Uiso   1.00
H970   H     0.11843   0.70876   0.70179   0.00000  Uiso   1.00
H971   H     0.21489   0.95789   0.79823   0.00000  Uiso   1.00
H972   H     0.10623   0.86479   0.52826   0.00000  Uiso   1.00
H973   H     0.10615   0.80234   0.97153   0.00000  Uiso   1.00
H974   H     0.22685   0.86476   0.97189   0.00000  Uiso   1.00
H975   H     0.22681   0.80218   0.52832   0.00000  Uiso   1.00
H976   H     0.03773   0.76410   0.77406   0.00000  Uiso   1.00
N977   N     0.16667   0.95240   0.75000   0.00000  Uiso   1.00
N978   N     0.16667   0.71427   0.75000   0.00000  Uiso   1.00
O979   O     0.10559   0.87154   0.74999   0.00000  Uiso   1.00
O980   O     0.06506   0.78175   0.90312   0.00000  Uiso   1.00
O981   O     0.26800   0.88537   0.90373   0.00000  Uiso   1.00
O982   O     0.26797   0.78150   0.59660   0.00000  Uiso   1.00
O983   O     0.22774   0.79513   0.75001   0.00000  Uiso   1.00
O984   O     0.22774   0.87154   0.75001   0.00000  Uiso   1.00
O985   O     0.10559   0.79513   0.74999   0.00000  Uiso   1.00
O986   O     0.16666   0.87155   0.68453   0.00000  Uiso   1.00
O987   O     0.16667   0.79511   0.81547   0.00000  Uiso   1.00
O988   O     0.16667   0.87155   0.81547   0.00000  Uiso   1.00
O989   O     0.16666   0.79511   0.68453   0.00000  Uiso   1.00
O990   O     0.06525   0.88551   0.59654   0.00000  Uiso   1.00
Zn991  Zn    0.16667   0.88437   0.75000   0.00000  Uiso   1.00
Zn992  Zn    0.16667   0.78229   0.75000   0.00000  Uiso   1.00
C993   C     0.41997   0.83333   0.74996   0.00000  Uiso   1.00
C994   C     0.64531   0.87239   0.73671   0.00000  Uiso   1.00
C995   C     0.64534   0.79429   0.76333   0.00000  Uiso   1.00
C996   C     0.35467   0.87236   0.73663   0.00000  Uiso   1.00
C997   C     0.46565   0.85107   0.54691   0.00000  Uiso   1.00
C998   C     0.46561   0.81597   0.95297   0.00000  Uiso   1.00
C999   C     0.53409   0.85110   0.95317   0.00000  Uiso   1.00
C1000  C     0.53407   0.81583   0.54694   0.00000  Uiso   1.00
C1001  C     0.46498   0.85094   0.59329   0.00000  Uiso   1.00
C1002  C     0.46495   0.81597   0.90658   0.00000  Uiso   1.00
C1003  C     0.53486   0.85096   0.90680   0.00000  Uiso   1.00
C1004  C     0.58003   0.83334   0.75004   0.00000  Uiso   1.00
C1005  C     0.53482   0.81585   0.59332   0.00000  Uiso   1.00
C1006  C     0.49991   0.83334   0.61629   0.00000  Uiso   1.00
C1007  C     0.49994   0.83340   0.88371   0.00000  Uiso   1.00
C1008  C     0.49985   0.83348   0.52410   0.00000  Uiso   1.00
C1009  C     0.49984   0.83354   0.97589   0.00000  Uiso   1.00
C1010  C     0.62417   0.83335   0.75004   0.00000  Uiso   1.00
C1011  C     0.37584   0.83332   0.74995   0.00000  Uiso   1.00
C1012  C     0.42739   0.86817   0.61704   0.00000  Uiso   1.00
C1013  C     0.42730   0.79886   0.88270   0.00000  Uiso   1.00
C1014  C     0.57253   0.86807   0.88315   0.00000  Uiso   1.00
C1015  C     0.49997   0.83333   0.66412   0.00000  Uiso   1.00
C1016  C     0.57251   0.79875   0.61709   0.00000  Uiso   1.00
C1017  C     0.50000   0.83335   0.83588   0.00000  Uiso   1.00
C1018  C     0.52681   0.69067   0.77679   0.00000  Uiso   1.00
C1019  C     0.47319   0.97599   0.72320   0.00000  Uiso   1.00
C1020  C     0.47319   0.69062   0.72321   0.00000  Uiso   1.00
C1021  C     0.52680   0.97604   0.77680   0.00000  Uiso   1.00
C1022  C     0.35470   0.79429   0.76331   0.00000  Uiso   1.00
H1023  H     0.54825   0.70886   0.79821   0.00000  Uiso   1.00
H1024  H     0.62894   0.90259   0.72600   0.00000  Uiso   1.00
H1025  H     0.62900   0.76410   0.77408   0.00000  Uiso   1.00
H1026  H     0.37101   0.90255   0.72584   0.00000  Uiso   1.00
H1027  H     0.42472   0.86545   0.65302   0.00000  Uiso   1.00
H1028  H     0.42465   0.80148   0.84671   0.00000  Uiso   1.00
H1029  H     0.57529   0.86530   0.84718   0.00000  Uiso   1.00
H1030  H     0.57530   0.80152   0.65307   0.00000  Uiso   1.00
H1031  H     0.45177   0.95779   0.70178   0.00000  Uiso   1.00
H1032  H     0.45176   0.70876   0.70179   0.00000  Uiso   1.00
H1033  H     0.54823   0.95789   0.79823   0.00000  Uiso   1.00
H1034  H     0.43956   0.86479   0.52826   0.00000  Uiso   1.00
H1035  H     0.43948   0.80234   0.97153   0.00000  Uiso   1.00
H1036  H     0.56019   0.86476   0.97189   0.00000  Uiso   1.00
H1037  H     0.56015   0.80218   0.52832   0.00000  Uiso   1.00
H1038  H     0.37107   0.76410   0.77406   0.00000  Uiso   1.00
N1039  N     0.50000   0.95240   0.75000   0.00000  Uiso   1.00
N1040  N     0.50000   0.71427   0.75000   0.00000  Uiso   1.00
O1041  O     0.43892   0.87154   0.74999   0.00000  Uiso   1.00
O1042  O     0.39839   0.78175   0.90312   0.00000  Uiso   1.00
O1043  O     0.60133   0.88537   0.90373   0.00000  Uiso   1.00
O1044  O     0.60131   0.78150   0.59660   0.00000  Uiso   1.00
O1045  O     0.56108   0.79513   0.75001   0.00000  Uiso   1.00
O1046  O     0.56108   0.87154   0.75001   0.00000  Uiso   1.00
O1047  O     0.43892   0.79513   0.74999   0.00000  Uiso   1.00
O1048  O     0.50000   0.87155   0.68453   0.00000  Uiso   1.00
O1049  O     0.50000   0.79511   0.81547   0.00000  Uiso   1.00
O1050  O     0.50000   0.87155   0.81547   0.00000  Uiso   1.00
O1051  O     0.50000   0.79511   0.68453   0.00000  Uiso   1.00
O1052  O     0.39859   0.88551   0.59654   0.00000  Uiso   1.00
Zn1053 Zn    0.50000   0.88437   0.75000   0.00000  Uiso   1.00
Zn1054 Zn    0.50000   0.78229   0.75000   0.00000  Uiso   1.00
C1055  C     0.75331   0.83333   0.74996   0.00000  Uiso   1.00
C1056  C     0.97864   0.87239   0.73671   0.00000  Uiso   1.00
C1057  C     0.97867   0.79429   0.76333   0.00000  Uiso   1.00
C1058  C     0.68800   0.87236   0.73663   0.00000  Uiso   1.00
C1059  C     0.79898   0.85107   0.54691   0.00000  Uiso   1.00
C1060  C     0.79894   0.81597   0.95297   0.00000  Uiso   1.00
C1061  C     0.86743   0.85110   0.95317   0.00000  Uiso   1.00
C1062  C     0.86740   0.81583   0.54694   0.00000  Uiso   1.00
C1063  C     0.79831   0.85094   0.59329   0.00000  Uiso   1.00
C1064  C     0.79828   0.81597   0.90658   0.00000  Uiso   1.00
C1065  C     0.86819   0.85096   0.90680   0.00000  Uiso   1.00
C1066  C     0.91336   0.83334   0.75004   0.00000  Uiso   1.00
C1067  C     0.86815   0.81585   0.59332   0.00000  Uiso   1.00
C1068  C     0.83324   0.83334   0.61629   0.00000  Uiso   1.00
C1069  C     0.83328   0.83340   0.88371   0.00000  Uiso   1.00
C1070  C     0.83318   0.83348   0.52410   0.00000  Uiso   1.00
C1071  C     0.83317   0.83354   0.97589   0.00000  Uiso   1.00
C1072  C     0.95750   0.83335   0.75004   0.00000  Uiso   1.00
C1073  C     0.70917   0.83332   0.74995   0.00000  Uiso   1.00
C1074  C     0.76073   0.86817   0.61704   0.00000  Uiso   1.00
C1075  C     0.76063   0.79886   0.88270   0.00000  Uiso   1.00
C1076  C     0.90587   0.86807   0.88315   0.00000  Uiso   1.00
C1077  C     0.83330   0.83333   0.66412   0.00000  Uiso   1.00
C1078  C     0.90585   0.79875   0.61709   0.00000  Uiso   1.00
C1079  C     0.83333   0.83335   0.83588   0.00000  Uiso   1.00
C1080  C     0.86014   0.69067   0.77679   0.00000  Uiso   1.00
C1081  C     0.80653   0.97599   0.72320   0.00000  Uiso   1.00
C1082  C     0.80653   0.69062   0.72321   0.00000  Uiso   1.00
C1083  C     0.86014   0.97604   0.77680   0.00000  Uiso   1.00
C1084  C     0.68803   0.79429   0.76331   0.00000  Uiso   1.00
H1085  H     0.88158   0.70886   0.79821   0.00000  Uiso   1.00
H1086  H     0.96228   0.90259   0.72600   0.00000  Uiso   1.00
H1087  H     0.96234   0.76410   0.77408   0.00000  Uiso   1.00
H1088  H     0.70434   0.90255   0.72584   0.00000  Uiso   1.00
H1089  H     0.75805   0.86545   0.65302   0.00000  Uiso   1.00
H1090  H     0.75799   0.80148   0.84671   0.00000  Uiso   1.00
H1091  H     0.90862   0.86530   0.84718   0.00000  Uiso   1.00
H1092  H     0.90863   0.80152   0.65307   0.00000  Uiso   1.00
H1093  H     0.78510   0.95779   0.70178   0.00000  Uiso   1.00
H1094  H     0.78509   0.70876   0.70179   0.00000  Uiso   1.00
H1095  H     0.88156   0.95789   0.79823   0.00000  Uiso   1.00
H1096  H     0.77289   0.86479   0.52826   0.00000  Uiso   1.00
H1097  H     0.77282   0.80234   0.97153   0.00000  Uiso   1.00
H1098  H     0.89352   0.86476   0.97189   0.00000  Uiso   1.00
H1099  H     0.89348   0.80218   0.52832   0.00000  Uiso   1.00
H1100  H     0.70440   0.76410   0.77406   0.00000  Uiso   1.00
N1101  N     0.83333   0.95240   0.75000   0.00000  Uiso   1.00
N1102  N     0.83333   0.71427   0.75000   0.00000  Uiso   1.00
O1103  O     0.77226   0.87154   0.74999   0.00000  Uiso   1.00
O1104  O     0.73173   0.78175   0.90312   0.00000  Uiso   1.00
O1105  O     0.93467   0.88537   0.90373   0.00000  Uiso   1.00
O1106  O     0.93464   0.78150   0.59660   0.00000  Uiso   1.00
O1107  O     0.89441   0.79513   0.75001   0.00000  Uiso   1.00
O1108  O     0.89441   0.87154   0.75001   0.00000  Uiso   1.00
O1109  O     0.77226   0.79513   0.74999   0.00000  Uiso   1.00
O1110  O     0.83333   0.87155   0.68453   0.00000  Uiso   1.00
O1111  O     0.83334   0.79511   0.81547   0.00000  Uiso   1.00
O1112  O     0.83334   0.87155   0.81547   0.00000  Uiso   1.00
O1113  O     0.83333   0.79511   0.68453   0.00000  Uiso   1.00
O1114  O     0.73192   0.88551   0.59654   0.00000  Uiso   1.00
Zn1115 Zn    0.83333   0.88437   0.75000   0.00000  Uiso   1.00
Zn1116 Zn    0.83333   0.78229   0.75000   0.00000  Uiso   1.00
loop_
_geom_bond_atom_site_label_1
_geom_bond_atom_site_label_2
_geom_bond_distance
_geom_bond_site_symmetry_2
_ccdc_geom_bond_type
C1     O55     1.282   .     A
C1     C19     1.416   .     S
C1     O49     1.282   .     A
C2     C18     1.396   .     A
C2     H32     1.084   .     S
C2     C66     1.370   .     S
C3     C18     1.396   .     A
C3     H33     1.084   .     S
C3     C92     1.370   .     S
C4     C19     1.396   .     A
C4     H34     1.084   .     S
C4     C126    1.370   1_455 S
C5     H42     1.084   .     S
C5     C9      1.389   .     A
C5     C16     1.394   .     A
C6     C10     1.389   .     A
C6     H43     1.084   .     S
C6     C17     1.394   .     A
C7     H44     1.084   .     S
C7     C11     1.389   .     A
C7     C17     1.394   .     A
C8     C13     1.388   .     A
C8     C16     1.394   .     A
C8     H45     1.084   .     S
C9     C14     1.414   .     A
C9     C20     1.491   .     S
C10    C21     1.491   .     S
C10    C15     1.414   .     A
C11    C22     1.491   .     S
C11    C15     1.413   .     A
C12    O53     1.282   .     A
C12    C18     1.417   .     S
C12    O54     1.282   .     A
C13    C14     1.413   .     A
C13    C24     1.491   .     S
C14    C23     1.432   .     S
C15    C25     1.432   .     S
C16    C575    1.443   1_554 S
C17    C574    1.443   .     S
C19    C30     1.396   .     A
C20    O60     1.221   .     D
C20    H35     1.084   .     S
C21    H36     1.083   .     S
C21    O50     1.221   .     D
C22    O51     1.221   .     D
C22    H37     1.084   .     S
C23    O56     1.283   .     A
C23    O59     1.284   .     A
C24    H38     1.084   .     S
C24    O52     1.221   .     D
C25    O57     1.284   .     A
C25    O58     1.284   .     A
C26    N48     1.366   .     A
C26    H31     1.082   .     S
C26    C401    1.416   1_545 S
C27    N47     1.366   .     A
C27    H39     1.082   .     S
C27    C214    1.416   .     S
C28    H40     1.082   .     S
C28    N48     1.366   .     A
C28    C399    1.416   1_545 S
C29    N47     1.366   .     A
C29    H41     1.082   .     S
C29    C212    1.416   .     S
C30    H46     1.084   .     S
C30    C127    1.370   1_455 S
N47    Zn61    2.009   .     S
N48    Zn62    2.009   .     S
O49    Zn61    1.996   .     S
O53    Zn62    1.996   .     S
O54    Zn61    1.996   .     S
O55    Zn62    1.996   .     S
O56    Zn61    1.996   .     S
O57    Zn62    1.996   .     S
O58    Zn61    1.996   .     S
O59    Zn62    1.996   .     S
C63    O117    1.282   .     A
C63    C81     1.416   .     S
C63    O111    1.282   .     A
C64    C80     1.396   .     A
C64    H94     1.084   .     S
C64    C128    1.370   .     S
C65    C80     1.396   .     A
C65    H95     1.084   .     S
C65    C154    1.370   .     S
C66    C81     1.396   .     A
C66    H96     1.084   .     S
C67    H104    1.084   .     S
C67    C71     1.389   .     A
C67    C78     1.394   .     A
C68    C72     1.389   .     A
C68    H105    1.084   .     S
C68    C79     1.394   .     A
C69    H106    1.084   .     S
C69    C73     1.389   .     A
C69    C79     1.394   .     A
C70    C75     1.388   .     A
C70    C78     1.394   .     A
C70    H107    1.084   .     S
C71    C76     1.414   .     A
C71    C82     1.491   .     S
C72    C83     1.491   .     S
C72    C77     1.414   .     A
C73    C84     1.491   .     S
C73    C77     1.413   .     A
C74    O115    1.282   .     A
C74    C80     1.417   .     S
C74    O116    1.282   .     A
C75    C76     1.413   .     A
C75    C86     1.491   .     S
C76    C85     1.432   .     S
C77    C87     1.432   .     S
C78    C637    1.443   1_554 S
C79    C636    1.443   .     S
C81    C92     1.396   .     A
C82    O122    1.221   .     D
C82    H97     1.084   .     S
C83    H98     1.083   .     S
C83    O112    1.221   .     D
C84    O113    1.221   .     D
C84    H99     1.084   .     S
C85    O118    1.283   .     A
C85    O121    1.284   .     A
C86    H100    1.084   .     S
C86    O114    1.221   .     D
C87    O119    1.284   .     A
C87    O120    1.284   .     A
C88    N110    1.366   .     A
C88    H93     1.082   .     S
C88    C463    1.416   1_545 S
C89    N109    1.366   .     A
C89    H101    1.082   .     S
C89    C276    1.416   .     S
C90    H102    1.082   .     S
C90    N110    1.366   .     A
C90    C461    1.416   1_545 S
C91    N109    1.366   .     A
C91    H103    1.082   .     S
C91    C274    1.416   .     S
C92    H108    1.084   .     S
N109   Zn123   2.009   .     S
N110   Zn124   2.009   .     S
O111   Zn123   1.996   .     S
O115   Zn124   1.996   .     S
O116   Zn123   1.996   .     S
O117   Zn124   1.996   .     S
O118   Zn123   1.996   .     S
O119   Zn124   1.996   .     S
O120   Zn123   1.996   .     S
O121   Zn124   1.996   .     S
C125   O179    1.282   .     A
C125   C143    1.416   .     S
C125   O173    1.282   .     A
C126   C142    1.396   .     A
C126   H156    1.084   .     S
C126   C4      1.370   1_655 S
C127   C142    1.396   .     A
C127   H157    1.084   .     S
C127   C30     1.370   1_655 S
C128   C143    1.396   .     A
C128   H158    1.084   .     S
C129   H166    1.084   .     S
C129   C133    1.389   .     A
C129   C140    1.394   .     A
C130   C134    1.389   .     A
C130   H167    1.084   .     S
C130   C141    1.394   .     A
C131   H168    1.084   .     S
C131   C135    1.389   .     A
C131   C141    1.394   .     A
C132   C137    1.388   .     A
C132   C140    1.394   .     A
C132   H169    1.084   .     S
C133   C138    1.414   .     A
C133   C144    1.491   .     S
C134   C145    1.491   .     S
C134   C139    1.414   .     A
C135   C146    1.491   .     S
C135   C139    1.413   .     A
C136   O177    1.282   .     A
C136   C142    1.417   .     S
C136   O178    1.282   .     A
C137   C138    1.413   .     A
C137   C148    1.491   .     S
C138   C147    1.432   .     S
C139   C149    1.432   .     S
C140   C699    1.443   1_554 S
C141   C698    1.443   .     S
C143   C154    1.396   .     A
C144   O184    1.221   .     D
C144   H159    1.084   .     S
C145   H160    1.083   .     S
C145   O174    1.221   .     D
C146   O175    1.221   .     D
C146   H161    1.084   .     S
C147   O180    1.283   .     A
C147   O183    1.284   .     A
C148   H162    1.084   .     S
C148   O176    1.221   .     D
C149   O181    1.284   .     A
C149   O182    1.284   .     A
C150   N172    1.366   .     A
C150   H155    1.082   .     S
C150   C525    1.416   1_545 S
C151   N171    1.366   .     A
C151   H163    1.082   .     S
C151   C338    1.416   .     S
C152   H164    1.082   .     S
C152   N172    1.366   .     A
C152   C523    1.416   1_545 S
C153   N171    1.366   .     A
C153   H165    1.082   .     S
C153   C336    1.416   .     S
C154   H170    1.084   .     S
N171   Zn185   2.009   .     S
N172   Zn186   2.009   .     S
O173   Zn185   1.996   .     S
O177   Zn186   1.996   .     S
O178   Zn185   1.996   .     S
O179   Zn186   1.996   .     S
O180   Zn185   1.996   .     S
O181   Zn186   1.996   .     S
O182   Zn185   1.996   .     S
O183   Zn186   1.996   .     S
C187   O241    1.282   .     A
C187   C205    1.416   .     S
C187   O235    1.282   .     A
C188   C204    1.396   .     A
C188   H218    1.084   .     S
C188   C252    1.370   .     S
C189   C204    1.396   .     A
C189   H219    1.084   .     S
C189   C278    1.370   .     S
C190   C205    1.396   .     A
C190   H220    1.084   .     S
C190   C312    1.370   1_455 S
C191   H228    1.084   .     S
C191   C195    1.389   .     A
C191   C202    1.394   .     A
C192   C196    1.389   .     A
C192   H229    1.084   .     S
C192   C203    1.394   .     A
C193   H230    1.084   .     S
C193   C197    1.389   .     A
C193   C203    1.394   .     A
C194   C199    1.388   .     A
C194   C202    1.394   .     A
C194   H231    1.084   .     S
C195   C200    1.414   .     A
C195   C206    1.491   .     S
C196   C207    1.491   .     S
C196   C201    1.414   .     A
C197   C208    1.491   .     S
C197   C201    1.413   .     A
C198   O239    1.282   .     A
C198   C204    1.417   .     S
C198   O240    1.282   .     A
C199   C200    1.413   .     A
C199   C210    1.491   .     S
C200   C209    1.432   .     S
C201   C211    1.432   .     S
C202   C761    1.443   1_554 S
C203   C760    1.443   .     S
C205   C216    1.396   .     A
C206   O246    1.221   .     D
C206   H221    1.084   .     S
C207   H222    1.083   .     S
C207   O236    1.221   .     D
C208   O237    1.221   .     D
C208   H223    1.084   .     S
C209   O242    1.283   .     A
C209   O245    1.284   .     A
C210   H224    1.084   .     S
C210   O238    1.221   .     D
C211   O243    1.284   .     A
C211   O244    1.284   .     A
C212   N234    1.366   .     A
C212   H217    1.082   .     S
C213   N233    1.366   .     A
C213   H225    1.082   .     S
C213   C400    1.416   .     S
C214   H226    1.082   .     S
C214   N234    1.366   .     A
C215   N233    1.366   .     A
C215   H227    1.082   .     S
C215   C398    1.416   .     S
C216   H232    1.084   .     S
C216   C313    1.370   1_455 S
N233   Zn247   2.009   .     S
N234   Zn248   2.009   .     S
O235   Zn247   1.996   .     S
O239   Zn248   1.996   .     S
O240   Zn247   1.996   .     S
O241   Zn248   1.996   .     S
O242   Zn247   1.996   .     S
O243   Zn248   1.996   .     S
O244   Zn247   1.996   .     S
O245   Zn248   1.996   .     S
C249   O303    1.282   .     A
C249   C267    1.416   .     S
C249   O297    1.282   .     A
C250   C266    1.396   .     A
C250   H280    1.084   .     S
C250   C314    1.370   .     S
C251   C266    1.396   .     A
C251   H281    1.084   .     S
C251   C340    1.370   .     S
C252   C267    1.396   .     A
C252   H282    1.084   .     S
C253   H290    1.084   .     S
C253   C257    1.389   .     A
C253   C264    1.394   .     A
C254   C258    1.389   .     A
C254   H291    1.084   .     S
C254   C265    1.394   .     A
C255   H292    1.084   .     S
C255   C259    1.389   .     A
C255   C265    1.394   .     A
C256   C261    1.388   .     A
C256   C264    1.394   .     A
C256   H293    1.084   .     S
C257   C262    1.414   .     A
C257   C268    1.491   .     S
C258   C269    1.491   .     S
C258   C263    1.414   .     A
C259   C270    1.491   .     S
C259   C263    1.413   .     A
C260   O301    1.282   .     A
C260   C266    1.417   .     S
C260   O302    1.282   .     A
C261   C262    1.413   .     A
C261   C272    1.491   .     S
C262   C271    1.432   .     S
C263   C273    1.432   .     S
C264   C823    1.443   1_554 S
C265   C822    1.443   .     S
C267   C278    1.396   .     A
C268   O308    1.221   .     D
C268   H283    1.084   .     S
C269   H284    1.083   .     S
C269   O298    1.221   .     D
C270   O299    1.221   .     D
C270   H285    1.084   .     S
C271   O304    1.283   .     A
C271   O307    1.284   .     A
C272   H286    1.084   .     S
C272   O300    1.221   .     D
C273   O305    1.284   .     A
C273   O306    1.284   .     A
C274   N296    1.366   .     A
C274   H279    1.082   .     S
C275   N295    1.366   .     A
C275   H287    1.082   .     S
C275   C462    1.416   .     S
C276   H288    1.082   .     S
C276   N296    1.366   .     A
C277   N295    1.366   .     A
C277   H289    1.082   .     S
C277   C460    1.416   .     S
C278   H294    1.084   .     S
N295   Zn309   2.009   .     S
N296   Zn310   2.009   .     S
O297   Zn309   1.996   .     S
O301   Zn310   1.996   .     S
O302   Zn309   1.996   .     S
O303   Zn310   1.996   .     S
O304   Zn309   1.996   .     S
O305   Zn310   1.996   .     S
O306   Zn309   1.996   .     S
O307   Zn310   1.996   .     S
C311   O365    1.282   .     A
C311   C329    1.416   .     S
C311   O359    1.282   .     A
C312   C328    1.396   .     A
C312   H342    1.084   .     S
C312   C190    1.370   1_655 S
C313   C328    1.396   .     A
C313   H343    1.084   .     S
C313   C216    1.370   1_655 S
C314   C329    1.396   .     A
C314   H344    1.084   .     S
C315   H352    1.084   .     S
C315   C319    1.389   .     A
C315   C326    1.394   .     A
C316   C320    1.389   .     A
C316   H353    1.084   .     S
C316   C327    1.394   .     A
C317   H354    1.084   .     S
C317   C321    1.389   .     A
C317   C327    1.394   .     A
C318   C323    1.388   .     A
C318   C326    1.394   .     A
C318   H355    1.084   .     S
C319   C324    1.414   .     A
C319   C330    1.491   .     S
C320   C331    1.491   .     S
C320   C325    1.414   .     A
C321   C332    1.491   .     S
C321   C325    1.413   .     A
C322   O363    1.282   .     A
C322   C328    1.417   .     S
C322   O364    1.282   .     A
C323   C324    1.413   .     A
C323   C334    1.491   .     S
C324   C333    1.432   .     S
C325   C335    1.432   .     S
C326   C885    1.443   1_554 S
C327   C884    1.443   .     S
C329   C340    1.396   .     A
C330   O370    1.221   .     D
C330   H345    1.084   .     S
C331   H346    1.083   .     S
C331   O360    1.221   .     D
C332   O361    1.221   .     D
C332   H347    1.084   .     S
C333   O366    1.283   .     A
C333   O369    1.284   .     A
C334   H348    1.084   .     S
C334   O362    1.221   .     D
C335   O367    1.284   .     A
C335   O368    1.284   .     A
C336   N358    1.366   .     A
C336   H341    1.082   .     S
C337   N357    1.366   .     A
C337   H349    1.082   .     S
C337   C524    1.416   .     S
C338   H350    1.082   .     S
C338   N358    1.366   .     A
C339   N357    1.366   .     A
C339   H351    1.082   .     S
C339   C522    1.416   .     S
C340   H356    1.084   .     S
N357   Zn371   2.009   .     S
N358   Zn372   2.009   .     S
O359   Zn371   1.996   .     S
O363   Zn372   1.996   .     S
O364   Zn371   1.996   .     S
O365   Zn372   1.996   .     S
O366   Zn371   1.996   .     S
O367   Zn372   1.996   .     S
O368   Zn371   1.996   .     S
O369   Zn372   1.996   .     S
C373   O427    1.282   .     A
C373   C391    1.416   .     S
C373   O421    1.282   .     A
C374   C390    1.396   .     A
C374   H404    1.084   .     S
C374   C438    1.370   .     S
C375   C390    1.396   .     A
C375   H405    1.084   .     S
C375   C464    1.370   .     S
C376   C391    1.396   .     A
C376   H406    1.084   .     S
C376   C498    1.370   1_455 S
C377   H414    1.084   .     S
C377   C381    1.389   .     A
C377   C388    1.394   .     A
C378   C382    1.389   .     A
C378   H415    1.084   .     S
C378   C389    1.394   .     A
C379   H416    1.084   .     S
C379   C383    1.389   .     A
C379   C389    1.394   .     A
C380   C385    1.388   .     A
C380   C388    1.394   .     A
C380   H417    1.084   .     S
C381   C386    1.414   .     A
C381   C392    1.491   .     S
C382   C393    1.491   .     S
C382   C387    1.414   .     A
C383   C394    1.491   .     S
C383   C387    1.413   .     A
C384   O425    1.282   .     A
C384   C390    1.417   .     S
C384   O426    1.282   .     A
C385   C386    1.413   .     A
C385   C396    1.491   .     S
C386   C395    1.432   .     S
C387   C397    1.432   .     S
C388   C947    1.443   1_554 S
C389   C946    1.443   .     S
C391   C402    1.396   .     A
C392   O432    1.221   .     D
C392   H407    1.084   .     S
C393   H408    1.083   .     S
C393   O422    1.221   .     D
C394   O423    1.221   .     D
C394   H409    1.084   .     S
C395   O428    1.283   .     A
C395   O431    1.284   .     A
C396   H410    1.084   .     S
C396   O424    1.221   .     D
C397   O429    1.284   .     A
C397   O430    1.284   .     A
C398   N420    1.366   .     A
C398   H403    1.082   .     S
C399   N419    1.366   .     A
C399   H411    1.082   .     S
C399   C28     1.416   1_565 S
C400   H412    1.082   .     S
C400   N420    1.366   .     A
C401   N419    1.366   .     A
C401   H413    1.082   .     S
C401   C26     1.416   1_565 S
C402   H418    1.084   .     S
C402   C499    1.370   1_455 S
N419   Zn433   2.009   .     S
N420   Zn434   2.009   .     S
O421   Zn433   1.996   .     S
O425   Zn434   1.996   .     S
O426   Zn433   1.996   .     S
O427   Zn434   1.996   .     S
O428   Zn433   1.996   .     S
O429   Zn434   1.996   .     S
O430   Zn433   1.996   .     S
O431   Zn434   1.996   .     S
C435   O489    1.282   .     A
C435   C453    1.416   .     S
C435   O483    1.282   .     A
C436   C452    1.396   .     A
C436   H466    1.084   .     S
C436   C500    1.370   .     S
C437   C452    1.396   .     A
C437   H467    1.084   .     S
C437   C526    1.370   .     S
C438   C453    1.396   .     A
C438   H468    1.084   .     S
C439   H476    1.084   .     S
C439   C443    1.389   .     A
C439   C450    1.394   .     A
C440   C444    1.389   .     A
C440   H477    1.084   .     S
C440   C451    1.394   .     A
C441   H478    1.084   .     S
C441   C445    1.389   .     A
C441   C451    1.394   .     A
C442   C447    1.388   .     A
C442   C450    1.394   .     A
C442   H479    1.084   .     S
C443   C448    1.414   .     A
C443   C454    1.491   .     S
C444   C455    1.491   .     S
C444   C449    1.414   .     A
C445   C456    1.491   .     S
C445   C449    1.413   .     A
C446   O487    1.282   .     A
C446   C452    1.417   .     S
C446   O488    1.282   .     A
C447   C448    1.413   .     A
C447   C458    1.491   .     S
C448   C457    1.432   .     S
C449   C459    1.432   .     S
C450   C1009   1.443   1_554 S
C451   C1008   1.443   .     S
C453   C464    1.396   .     A
C454   O494    1.221   .     D
C454   H469    1.084   .     S
C455   H470    1.083   .     S
C455   O484    1.221   .     D
C456   O485    1.221   .     D
C456   H471    1.084   .     S
C457   O490    1.283   .     A
C457   O493    1.284   .     A
C458   H472    1.084   .     S
C458   O486    1.221   .     D
C459   O491    1.284   .     A
C459   O492    1.284   .     A
C460   N482    1.366   .     A
C460   H465    1.082   .     S
C461   N481    1.366   .     A
C461   H473    1.082   .     S
C461   C90     1.416   1_565 S
C462   H474    1.082   .     S
C462   N482    1.366   .     A
C463   N481    1.366   .     A
C463   H475    1.082   .     S
C463   C88     1.416   1_565 S
C464   H480    1.084   .     S
N481   Zn495   2.009   .     S
N482   Zn496   2.009   .     S
O483   Zn495   1.996   .     S
O487   Zn496   1.996   .     S
O488   Zn495   1.996   .     S
O489   Zn496   1.996   .     S
O490   Zn495   1.996   .     S
O491   Zn496   1.996   .     S
O492   Zn495   1.996   .     S
O493   Zn496   1.996   .     S
C497   O551    1.282   .     A
C497   C515    1.416   .     S
C497   O545    1.282   .     A
C498   C514    1.396   .     A
C498   H528    1.084   .     S
C498   C376    1.370   1_655 S
C499   C514    1.396   .     A
C499   H529    1.084   .     S
C499   C402    1.370   1_655 S
C500   C515    1.396   .     A
C500   H530    1.084   .     S
C501   H538    1.084   .     S
C501   C505    1.389   .     A
C501   C512    1.394   .     A
C502   C506    1.389   .     A
C502   H539    1.084   .     S
C502   C513    1.394   .     A
C503   H540    1.084   .     S
C503   C507    1.389   .     A
C503   C513    1.394   .     A
C504   C509    1.388   .     A
C504   C512    1.394   .     A
C504   H541    1.084   .     S
C505   C510    1.414   .     A
C505   C516    1.491   .     S
C506   C517    1.491   .     S
C506   C511    1.414   .     A
C507   C518    1.491   .     S
C507   C511    1.413   .     A
C508   O549    1.282   .     A
C508   C514    1.417   .     S
C508   O550    1.282   .     A
C509   C510    1.413   .     A
C509   C520    1.491   .     S
C510   C519    1.432   .     S
C511   C521    1.432   .     S
C512   C1071   1.443   1_554 S
C513   C1070   1.443   .     S
C515   C526    1.396   .     A
C516   O556    1.221   .     D
C516   H531    1.084   .     S
C517   H532    1.083   .     S
C517   O546    1.221   .     D
C518   O547    1.221   .     D
C518   H533    1.084   .     S
C519   O552    1.283   .     A
C519   O555    1.284   .     A
C520   H534    1.084   .     S
C520   O548    1.221   .     D
C521   O553    1.284   .     A
C521   O554    1.284   .     A
C522   N544    1.366   .     A
C522   H527    1.082   .     S
C523   N543    1.366   .     A
C523   H535    1.082   .     S
C523   C152    1.416   1_565 S
C524   H536    1.082   .     S
C524   N544    1.366   .     A
C525   N543    1.366   .     A
C525   H537    1.082   .     S
C525   C150    1.416   1_565 S
C526   H542    1.084   .     S
N543   Zn557   2.009   .     S
N544   Zn558   2.009   .     S
O545   Zn557   1.996   .     S
O549   Zn558   1.996   .     S
O550   Zn557   1.996   .     S
O551   Zn558   1.996   .     S
O552   Zn557   1.996   .     S
O553   Zn558   1.996   .     S
O554   Zn557   1.996   .     S
O555   Zn558   1.996   .     S
C559   O613    1.282   .     A
C559   C577    1.416   .     S
C559   O607    1.282   .     A
C560   C576    1.396   .     A
C560   H590    1.084   .     S
C560   C624    1.370   .     S
C561   C576    1.396   .     A
C561   H591    1.084   .     S
C561   C650    1.370   .     S
C562   C577    1.396   .     A
C562   H592    1.084   .     S
C562   C684    1.370   1_455 S
C563   H600    1.084   .     S
C563   C567    1.389   .     A
C563   C574    1.394   .     A
C564   C568    1.389   .     A
C564   H601    1.084   .     S
C564   C575    1.394   .     A
C565   H602    1.084   .     S
C565   C569    1.389   .     A
C565   C575    1.394   .     A
C566   C571    1.388   .     A
C566   C574    1.394   .     A
C566   H603    1.084   .     S
C567   C572    1.414   .     A
C567   C578    1.491   .     S
C568   C579    1.491   .     S
C568   C573    1.414   .     A
C569   C580    1.491   .     S
C569   C573    1.413   .     A
C570   O611    1.282   .     A
C570   C576    1.417   .     S
C570   O612    1.282   .     A
C571   C572    1.413   .     A
C571   C582    1.491   .     S
C572   C581    1.432   .     S
C573   C583    1.432   .     S
C575   C16     1.443   1_556 S
C577   C588    1.396   .     A
C578   O618    1.221   .     D
C578   H593    1.084   .     S
C579   H594    1.083   .     S
C579   O608    1.221   .     D
C580   O609    1.221   .     D
C580   H595    1.084   .     S
C581   O614    1.283   .     A
C581   O617    1.284   .     A
C582   H596    1.084   .     S
C582   O610    1.221   .     D
C583   O615    1.284   .     A
C583   O616    1.284   .     A
C584   N606    1.366   .     A
C584   H589    1.082   .     S
C584   C959    1.416   1_545 S
C585   N605    1.366   .     A
C585   H597    1.082   .     S
C585   C772    1.416   .     S
C586   H598    1.082   .     S
C586   N606    1.366   .     A
C586   C957    1.416   1_545 S
C587   N605    1.366   .     A
C587   H599    1.082   .     S
C587   C770    1.416   .     S
C588   H604    1.084   .     S
C588   C685    1.370   1_455 S
N605   Zn619   2.009   .     S
N606   Zn620   2.009   .     S
O607   Zn619   1.996   .     S
O611   Zn620   1.996   .     S
O612   Zn619   1.996   .     S
O613   Zn620   1.996   .     S
O614   Zn619   1.996   .     S
O615   Zn620   1.996   .     S
O616   Zn619   1.996   .     S
O617   Zn620   1.996   .     S
C621   O675    1.282   .     A
C621   C639    1.416   .     S
C621   O669    1.282   .     A
C622   C638    1.396   .     A
C622   H652    1.084   .     S
C622   C686    1.370   .     S
C623   C638    1.396   .     A
C623   H653    1.084   .     S
C623   C712    1.370   .     S
C624   C639    1.396   .     A
C624   H654    1.084   .     S
C625   H662    1.084   .     S
C625   C629    1.389   .     A
C625   C636    1.394   .     A
C626   C630    1.389   .     A
C626   H663    1.084   .     S
C626   C637    1.394   .     A
C627   H664    1.084   .     S
C627   C631    1.389   .     A
C627   C637    1.394   .     A
C628   C633    1.388   .     A
C628   C636    1.394   .     A
C628   H665    1.084   .     S
C629   C634    1.414   .     A
C629   C640    1.491   .     S
C630   C641    1.491   .     S
C630   C635    1.414   .     A
C631   C642    1.491   .     S
C631   C635    1.413   .     A
C632   O673    1.282   .     A
C632   C638    1.417   .     S
C632   O674    1.282   .     A
C633   C634    1.413   .     A
C633   C644    1.491   .     S
C634   C643    1.432   .     S
C635   C645    1.432   .     S
C637   C78     1.443   1_556 S
C639   C650    1.396   .     A
C640   O680    1.221   .     D
C640   H655    1.084   .     S
C641   H656    1.083   .     S
C641   O670    1.221   .     D
C642   O671    1.221   .     D
C642   H657    1.084   .     S
C643   O676    1.283   .     A
C643   O679    1.284   .     A
C644   H658    1.084   .     S
C644   O672    1.221   .     D
C645   O677    1.284   .     A
C645   O678    1.284   .     A
C646   N668    1.366   .     A
C646   H651    1.082   .     S
C646   C1021   1.416   1_545 S
C647   N667    1.366   .     A
C647   H659    1.082   .     S
C647   C834    1.416   .     S
C648   H660    1.082   .     S
C648   N668    1.366   .     A
C648   C1019   1.416   1_545 S
C649   N667    1.366   .     A
C649   H661    1.082   .     S
C649   C832    1.416   .     S
C650   H666    1.084   .     S
N667   Zn681   2.009   .     S
N668   Zn682   2.009   .     S
O669   Zn681   1.996   .     S
O673   Zn682   1.996   .     S
O674   Zn681   1.996   .     S
O675   Zn682   1.996   .     S
O676   Zn681   1.996   .     S
O677   Zn682   1.996   .     S
O678   Zn681   1.996   .     S
O679   Zn682   1.996   .     S
C683   O737    1.282   .     A
C683   C701    1.416   .     S
C683   O731    1.282   .     A
C684   C700    1.396   .     A
C684   H714    1.084   .     S
C684   C562    1.370   1_655 S
C685   C700    1.396   .     A
C685   H715    1.084   .     S
C685   C588    1.370   1_655 S
C686   C701    1.396   .     A
C686   H716    1.084   .     S
C687   H724    1.084   .     S
C687   C691    1.389   .     A
C687   C698    1.394   .     A
C688   C692    1.389   .     A
C688   H725    1.084   .     S
C688   C699    1.394   .     A
C689   H726    1.084   .     S
C689   C693    1.389   .     A
C689   C699    1.394   .     A
C690   C695    1.388   .     A
C690   C698    1.394   .     A
C690   H727    1.084   .     S
C691   C696    1.414   .     A
C691   C702    1.491   .     S
C692   C703    1.491   .     S
C692   C697    1.414   .     A
C693   C704    1.491   .     S
C693   C697    1.413   .     A
C694   O735    1.282   .     A
C694   C700    1.417   .     S
C694   O736    1.282   .     A
C695   C696    1.413   .     A
C695   C706    1.491   .     S
C696   C705    1.432   .     S
C697   C707    1.432   .     S
C699   C140    1.443   1_556 S
C701   C712    1.396   .     A
C702   O742    1.221   .     D
C702   H717    1.084   .     S
C703   H718    1.083   .     S
C703   O732    1.221   .     D
C704   O733    1.221   .     D
C704   H719    1.084   .     S
C705   O738    1.283   .     A
C705   O741    1.284   .     A
C706   H720    1.084   .     S
C706   O734    1.221   .     D
C707   O739    1.284   .     A
C707   O740    1.284   .     A
C708   N730    1.366   .     A
C708   H713    1.082   .     S
C708   C1083   1.416   1_545 S
C709   N729    1.366   .     A
C709   H721    1.082   .     S
C709   C896    1.416   .     S
C710   H722    1.082   .     S
C710   N730    1.366   .     A
C710   C1081   1.416   1_545 S
C711   N729    1.366   .     A
C711   H723    1.082   .     S
C711   C894    1.416   .     S
C712   H728    1.084   .     S
N729   Zn743   2.009   .     S
N730   Zn744   2.009   .     S
O731   Zn743   1.996   .     S
O735   Zn744   1.996   .     S
O736   Zn743   1.996   .     S
O737   Zn744   1.996   .     S
O738   Zn743   1.996   .     S
O739   Zn744   1.996   .     S
O740   Zn743   1.996   .     S
O741   Zn744   1.996   .     S
C745   O799    1.282   .     A
C745   C763    1.416   .     S
C745   O793    1.282   .     A
C746   C762    1.396   .     A
C746   H776    1.084   .     S
C746   C810    1.370   .     S
C747   C762    1.396   .     A
C747   H777    1.084   .     S
C747   C836    1.370   .     S
C748   C763    1.396   .     A
C748   H778    1.084   .     S
C748   C870    1.370   1_455 S
C749   H786    1.084   .     S
C749   C753    1.389   .     A
C749   C760    1.394   .     A
C750   C754    1.389   .     A
C750   H787    1.084   .     S
C750   C761    1.394   .     A
C751   H788    1.084   .     S
C751   C755    1.389   .     A
C751   C761    1.394   .     A
C752   C757    1.388   .     A
C752   C760    1.394   .     A
C752   H789    1.084   .     S
C753   C758    1.414   .     A
C753   C764    1.491   .     S
C754   C765    1.491   .     S
C754   C759    1.414   .     A
C755   C766    1.491   .     S
C755   C759    1.413   .     A
C756   O797    1.282   .     A
C756   C762    1.417   .     S
C756   O798    1.282   .     A
C757   C758    1.413   .     A
C757   C768    1.491   .     S
C758   C767    1.432   .     S
C759   C769    1.432   .     S
C761   C202    1.443   1_556 S
C763   C774    1.396   .     A
C764   O804    1.221   .     D
C764   H779    1.084   .     S
C765   H780    1.083   .     S
C765   O794    1.221   .     D
C766   O795    1.221   .     D
C766   H781    1.084   .     S
C767   O800    1.283   .     A
C767   O803    1.284   .     A
C768   H782    1.084   .     S
C768   O796    1.221   .     D
C769   O801    1.284   .     A
C769   O802    1.284   .     A
C770   N792    1.366   .     A
C770   H775    1.082   .     S
C771   N791    1.366   .     A
C771   H783    1.082   .     S
C771   C958    1.416   .     S
C772   H784    1.082   .     S
C772   N792    1.366   .     A
C773   N791    1.366   .     A
C773   H785    1.082   .     S
C773   C956    1.416   .     S
C774   H790    1.084   .     S
C774   C871    1.370   1_455 S
N791   Zn805   2.009   .     S
N792   Zn806   2.009   .     S
O793   Zn805   1.996   .     S
O797   Zn806   1.996   .     S
O798   Zn805   1.996   .     S
O799   Zn806   1.996   .     S
O800   Zn805   1.996   .     S
O801   Zn806   1.996   .     S
O802   Zn805   1.996   .     S
O803   Zn806   1.996   .     S
C807   O861    1.282   .     A
C807   C825    1.416   .     S
C807   O855    1.282   .     A
C808   C824    1.396   .     A
C808   H838    1.084   .     S
C808   C872    1.370   .     S
C809   C824    1.396   .     A
C809   H839    1.084   .     S
C809   C898    1.370   .     S
C810   C825    1.396   .     A
C810   H840    1.084   .     S
C811   H848    1.084   .     S
C811   C815    1.389   .     A
C811   C822    1.394   .     A
C812   C816    1.389   .     A
C812   H849    1.084   .     S
C812   C823    1.394   .     A
C813   H850    1.084   .     S
C813   C817    1.389   .     A
C813   C823    1.394   .     A
C814   C819    1.388   .     A
C814   C822    1.394   .     A
C814   H851    1.084   .     S
C815   C820    1.414   .     A
C815   C826    1.491   .     S
C816   C827    1.491   .     S
C816   C821    1.414   .     A
C817   C828    1.491   .     S
C817   C821    1.413   .     A
C818   O859    1.282   .     A
C818   C824    1.417   .     S
C818   O860    1.282   .     A
C819   C820    1.413   .     A
C819   C830    1.491   .     S
C820   C829    1.432   .     S
C821   C831    1.432   .     S
C823   C264    1.443   1_556 S
C825   C836    1.396   .     A
C826   O866    1.221   .     D
C826   H841    1.084   .     S
C827   H842    1.083   .     S
C827   O856    1.221   .     D
C828   O857    1.221   .     D
C828   H843    1.084   .     S
C829   O862    1.283   .     A
C829   O865    1.284   .     A
C830   H844    1.084   .     S
C830   O858    1.221   .     D
C831   O863    1.284   .     A
C831   O864    1.284   .     A
C832   N854    1.366   .     A
C832   H837    1.082   .     S
C833   N853    1.366   .     A
C833   H845    1.082   .     S
C833   C1020   1.416   .     S
C834   H846    1.082   .     S
C834   N854    1.366   .     A
C835   N853    1.366   .     A
C835   H847    1.082   .     S
C835   C1018   1.416   .     S
C836   H852    1.084   .     S
N853   Zn867   2.009   .     S
N854   Zn868   2.009   .     S
O855   Zn867   1.996   .     S
O859   Zn868   1.996   .     S
O860   Zn867   1.996   .     S
O861   Zn868   1.996   .     S
O862   Zn867   1.996   .     S
O863   Zn868   1.996   .     S
O864   Zn867   1.996   .     S
O865   Zn868   1.996   .     S
C869   O923    1.282   .     A
C869   C887    1.416   .     S
C869   O917    1.282   .     A
C870   C886    1.396   .     A
C870   H900    1.084   .     S
C870   C748    1.370   1_655 S
C871   C886    1.396   .     A
C871   H901    1.084   .     S
C871   C774    1.370   1_655 S
C872   C887    1.396   .     A
C872   H902    1.084   .     S
C873   H910    1.084   .     S
C873   C877    1.389   .     A
C873   C884    1.394   .     A
C874   C878    1.389   .     A
C874   H911    1.084   .     S
C874   C885    1.394   .     A
C875   H912    1.084   .     S
C875   C879    1.389   .     A
C875   C885    1.394   .     A
C876   C881    1.388   .     A
C876   C884    1.394   .     A
C876   H913    1.084   .     S
C877   C882    1.414   .     A
C877   C888    1.491   .     S
C878   C889    1.491   .     S
C878   C883    1.414   .     A
C879   C890    1.491   .     S
C879   C883    1.413   .     A
C880   O921    1.282   .     A
C880   C886    1.417   .     S
C880   O922    1.282   .     A
C881   C882    1.413   .     A
C881   C892    1.491   .     S
C882   C891    1.432   .     S
C883   C893    1.432   .     S
C885   C326    1.443   1_556 S
C887   C898    1.396   .     A
C888   O928    1.221   .     D
C888   H903    1.084   .     S
C889   H904    1.083   .     S
C889   O918    1.221   .     D
C890   O919    1.221   .     D
C890   H905    1.084   .     S
C891   O924    1.283   .     A
C891   O927    1.284   .     A
C892   H906    1.084   .     S
C892   O920    1.221   .     D
C893   O925    1.284   .     A
C893   O926    1.284   .     A
C894   N916    1.366   .     A
C894   H899    1.082   .     S
C895   N915    1.366   .     A
C895   H907    1.082   .     S
C895   C1082   1.416   .     S
C896   H908    1.082   .     S
C896   N916    1.366   .     A
C897   N915    1.366   .     A
C897   H909    1.082   .     S
C897   C1080   1.416   .     S
C898   H914    1.084   .     S
N915   Zn929   2.009   .     S
N916   Zn930   2.009   .     S
O917   Zn929   1.996   .     S
O921   Zn930   1.996   .     S
O922   Zn929   1.996   .     S
O923   Zn930   1.996   .     S
O924   Zn929   1.996   .     S
O925   Zn930   1.996   .     S
O926   Zn929   1.996   .     S
O927   Zn930   1.996   .     S
C931   O985    1.282   .     A
C931   C949    1.416   .     S
C931   O979    1.282   .     A
C932   C948    1.396   .     A
C932   H962    1.084   .     S
C932   C996    1.370   .     S
C933   C948    1.396   .     A
C933   H963    1.084   .     S
C933   C1022   1.370   .     S
C934   C949    1.396   .     A
C934   H964    1.084   .     S
C934   C1056   1.370   1_455 S
C935   H972    1.084   .     S
C935   C939    1.389   .     A
C935   C946    1.394   .     A
C936   C940    1.389   .     A
C936   H973    1.084   .     S
C936   C947    1.394   .     A
C937   H974    1.084   .     S
C937   C941    1.389   .     A
C937   C947    1.394   .     A
C938   C943    1.388   .     A
C938   C946    1.394   .     A
C938   H975    1.084   .     S
C939   C944    1.414   .     A
C939   C950    1.491   .     S
C940   C951    1.491   .     S
C940   C945    1.414   .     A
C941   C952    1.491   .     S
C941   C945    1.413   .     A
C942   O983    1.282   .     A
C942   C948    1.417   .     S
C942   O984    1.282   .     A
C943   C944    1.413   .     A
C943   C954    1.491   .     S
C944   C953    1.432   .     S
C945   C955    1.432   .     S
C947   C388    1.443   1_556 S
C949   C960    1.396   .     A
C950   O990    1.221   .     D
C950   H965    1.084   .     S
C951   H966    1.083   .     S
C951   O980    1.221   .     D
C952   O981    1.221   .     D
C952   H967    1.084   .     S
C953   O986    1.283   .     A
C953   O989    1.284   .     A
C954   H968    1.084   .     S
C954   O982    1.221   .     D
C955   O987    1.284   .     A
C955   O988    1.284   .     A
C956   N978    1.366   .     A
C956   H961    1.082   .     S
C957   N977    1.366   .     A
C957   H969    1.082   .     S
C957   C586    1.416   1_565 S
C958   H970    1.082   .     S
C958   N978    1.366   .     A
C959   N977    1.366   .     A
C959   H971    1.082   .     S
C959   C584    1.416   1_565 S
C960   H976    1.084   .     S
C960   C1057   1.370   1_455 S
N977   Zn991   2.009   .     S
N978   Zn992   2.009   .     S
O979   Zn991   1.996   .     S
O983   Zn992   1.996   .     S
O984   Zn991   1.996   .     S
O985   Zn992   1.996   .     S
O986   Zn991   1.996   .     S
O987   Zn992   1.996   .     S
O988   Zn991   1.996   .     S
O989   Zn992   1.996   .     S
C993   O1047   1.282   .     A
C993   C1011   1.416   .     S
C993   O1041   1.282   .     A
C994   C1010   1.396   .     A
C994   H1024   1.084   .     S
C994   C1058   1.370   .     S
C995   C1010   1.396   .     A
C995   H1025   1.084   .     S
C995   C1084   1.370   .     S
C996   C1011   1.396   .     A
C996   H1026   1.084   .     S
C997   H1034   1.084   .     S
C997   C1001   1.389   .     A
C997   C1008   1.394   .     A
C998   C1002   1.389   .     A
C998   H1035   1.084   .     S
C998   C1009   1.394   .     A
C999   H1036   1.084   .     S
C999   C1003   1.389   .     A
C999   C1009   1.394   .     A
C1000  C1005   1.388   .     A
C1000  C1008   1.394   .     A
C1000  H1037   1.084   .     S
C1001  C1006   1.414   .     A
C1001  C1012   1.491   .     S
C1002  C1013   1.491   .     S
C1002  C1007   1.414   .     A
C1003  C1014   1.491   .     S
C1003  C1007   1.413   .     A
C1004  O1045   1.282   .     A
C1004  C1010   1.417   .     S
C1004  O1046   1.282   .     A
C1005  C1006   1.413   .     A
C1005  C1016   1.491   .     S
C1006  C1015   1.432   .     S
C1007  C1017   1.432   .     S
C1009  C450    1.443   1_556 S
C1011  C1022   1.396   .     A
C1012  O1052   1.221   .     D
C1012  H1027   1.084   .     S
C1013  H1028   1.083   .     S
C1013  O1042   1.221   .     D
C1014  O1043   1.221   .     D
C1014  H1029   1.084   .     S
C1015  O1048   1.283   .     A
C1015  O1051   1.284   .     A
C1016  H1030   1.084   .     S
C1016  O1044   1.221   .     D
C1017  O1049   1.284   .     A
C1017  O1050   1.284   .     A
C1018  N1040   1.366   .     A
C1018  H1023   1.082   .     S
C1019  N1039   1.366   .     A
C1019  H1031   1.082   .     S
C1019  C648    1.416   1_565 S
C1020  H1032   1.082   .     S
C1020  N1040   1.366   .     A
C1021  N1039   1.366   .     A
C1021  H1033   1.082   .     S
C1021  C646    1.416   1_565 S
C1022  H1038   1.084   .     S
N1039  Zn1053  2.009   .     S
N1040  Zn1054  2.009   .     S
O1041  Zn1053  1.996   .     S
O1045  Zn1054  1.996   .     S
O1046  Zn1053  1.996   .     S
O1047  Zn1054  1.996   .     S
O1048  Zn1053  1.996   .     S
O1049  Zn1054  1.996   .     S
O1050  Zn1053  1.996   .     S
O1051  Zn1054  1.996   .     S
C1055  O1109   1.282   .     A
C1055  C1073   1.416   .     S
C1055  O1103   1.282   .     A
C1056  C1072   1.396   .     A
C1056  H1086   1.084   .     S
C1056  C934    1.370   1_655 S
C1057  C1072   1.396   .     A
C1057  H1087   1.084   .     S
C1057  C960    1.370   1_655 S
C1058  C1073   1.396   .     A
C1058  H1088   1.084   .     S
C1059  H1096   1.084   .     S
C1059  C1063   1.389   .     A
C1059  C1070   1.394   .     A
C1060  C1064   1.389   .     A
C1060  H1097   1.084   .     S
C1060  C1071   1.394   .     A
C1061  H1098   1.084   .     S
C1061  C1065   1.389   .     A
C1061  C1071   1.394   .     A
C1062  C1067   1.388   .     A
C1062  C1070   1.394   .     A
C1062  H1099   1.084   .     S
C1063  C1068   1.414   .     A
C1063  C1074   1.491   .     S
C1064  C1075   1.491   .     S
C1064  C1069   1.414   .     A
C1065  C1076   1.491   .     S
C1065  C1069   1.413   .     A
C1066  O1107   1.282   .     A
C1066  C1072   1.417   .     S
C1066  O1108   1.282   .     A
C1067  C1068   1.413   .     A
C1067  C1078   1.491   .     S
C1068  C1077   1.432   .     S
C1069  C1079   1.432   .     S
C1071  C512    1.443   1_556 S
C1073  C1084   1.396   .     A
C1074  O1114   1.221   .     D
C1074  H1089   1.084   .     S
C1075  H1090   1.083   .     S
C1075  O1104   1.221   .     D
C1076  O1105   1.221   .     D
C1076  H1091   1.084   .     S
C1077  O1110   1.283   .     A
C1077  O1113   1.284   .     A
C1078  H1092   1.084   .     S
C1078  O1106   1.221   .     D
C1079  O1111   1.284   .     A
C1079  O1112   1.284   .     A
C1080  N1102   1.366   .     A
C1080  H1085   1.082   .     S
C1081  N1101   1.366   .     A
C1081  H1093   1.082   .     S
C1081  C710    1.416   1_565 S
C1082  H1094   1.082   .     S
C1082  N1102   1.366   .     A
C1083  N1101   1.366   .     A
C1083  H1095   1.082   .     S
C1083  C708    1.416   1_565 S
C1084  H1100   1.084   .     S
N1101  Zn1115  2.009   .     S
N1102  Zn1116  2.009   .     S
O1103  Zn1115  1.996   .     S
O1107  Zn1116  1.996   .     S
O1108  Zn1115  1.996   .     S
O1109  Zn1116  1.996   .     S
O1110  Zn1115  1.996   .     S
O1111  Zn1116  1.996   .     S
O1112  Zn1115  1.996   .     S
O1113  Zn1116  1.996   .     S
