data_str_m3_o1_o17_pcu_sym.43
_audit_creation_date              2020-01-03
_audit_creation_method            'Materials Studio'
_symmetry_space_group_name_H-M    'P1'
_symmetry_Int_Tables_number       1
_symmetry_cell_setting            triclinic
loop_
_symmetry_equiv_pos_as_xyz
  x,y,z
_cell_length_a                    32.2808
_cell_length_b                    29.6536
_cell_length_c                    29.7452
_cell_angle_alpha                 90.0647
_cell_angle_beta                  90.5994
_cell_angle_gamma                 90.4256
loop_
_atom_site_label
_atom_site_type_symbol
_atom_site_fract_x
_atom_site_fract_y
_atom_site_fract_z
_atom_site_U_iso_or_equiv
_atom_site_adp_type
_atom_site_occupancy
C1     C     0.08678   0.16663   0.25396   0.00000  Uiso   1.00
C2     C     0.04215   0.16689   0.25740   0.00000  Uiso   1.00
C3     C     0.18899   0.02455   0.28167   0.00000  Uiso   1.00
C4     C     0.14807   0.30915   0.21574   0.00000  Uiso   1.00
C5     C     0.14430   0.02405   0.21831   0.00000  Uiso   1.00
C6     C     0.18553   0.30959   0.28412   0.00000  Uiso   1.00
C7     C     0.16566   0.16680   0.16354   0.00000  Uiso   1.00
C8     C     0.16701   0.16684   0.33646   0.00000  Uiso   1.00
C9     C     0.20311   0.17793   0.40724   0.00000  Uiso   1.00
C10    C     0.12661   0.17430   0.09349   0.00000  Uiso   1.00
C11    C     0.16603   0.16844   0.38443   0.00000  Uiso   1.00
C12    C     0.24652   0.16688   0.24594   0.00000  Uiso   1.00
C13    C     0.16484   0.16815   0.11551   0.00000  Uiso   1.00
C14    C     0.12774   0.16847   0.40598   0.00000  Uiso   1.00
C15    C     0.20252   0.17169   0.09299   0.00000  Uiso   1.00
C16    C     0.12644   0.17773   0.45224   0.00000  Uiso   1.00
C17    C     0.20223   0.18320   0.04734   0.00000  Uiso   1.00
C18    C     0.16420   0.18227   0.47642   0.00000  Uiso   1.00
C19    C     0.16397   0.18207   0.02350   0.00000  Uiso   1.00
C20    C     0.20234   0.18605   0.45357   0.00000  Uiso   1.00
C21    C     0.12577   0.17917   0.04657   0.00000  Uiso   1.00
C22    C     0.08867   0.18336   0.47510   0.00000  Uiso   1.00
C23    C     0.08792   0.18145   0.02217   0.00000  Uiso   1.00
C24    C     0.23873   0.19635   0.02455   0.00000  Uiso   1.00
C25    C     0.25853   0.13753   0.38440   0.00000  Uiso   1.00
C26    C     0.07524   0.13773   0.13185   0.00000  Uiso   1.00
C27    C     0.09059   0.15624   0.38064   0.00000  Uiso   1.00
C28    C     0.24094   0.16195   0.11686   0.00000  Uiso   1.00
C29    C     0.04989   0.23787   0.44245   0.00000  Uiso   1.00
C30    C     0.27225   0.25149   0.06407   0.00000  Uiso   1.00
C31    C     0.02524   0.14653   0.03487   0.00000  Uiso   1.00
C32    C     0.27099   0.25729   0.44259   0.00000  Uiso   1.00
C33    C     0.03777   0.08372   0.27048   0.00000  Uiso   1.00
C34    C     0.23853   0.19835   0.47777   0.00000  Uiso   1.00
C35    C     0.29390   0.25165   0.23358   0.00000  Uiso   1.00
C36    C     0.29397   0.08519   0.22354   0.00000  Uiso   1.00
C37    C     0.04063   0.25048   0.27090   0.00000  Uiso   1.00
C38    C     0.25290   0.03306   0.31718   0.00000  Uiso   1.00
C39    C     0.15723   0.29338   0.14186   0.00000  Uiso   1.00
C40    C     0.08094   0.02921   0.18060   0.00000  Uiso   1.00
C41    C     0.17758   0.29381   0.35815   0.00000  Uiso   1.00
C42    C     0.02019   0.12580   0.25466   0.00000  Uiso   1.00
C43    C     0.31280   0.20882   0.24529   0.00000  Uiso   1.00
C44    C     0.31244   0.12627   0.24164   0.00000  Uiso   1.00
C45    C     0.02106   0.20843   0.25659   0.00000  Uiso   1.00
C46    C     0.29109   0.16747   0.24190   0.00000  Uiso   1.00
H47    H     0.28552   0.13813   0.36161   0.00000  Uiso   1.00
H48    H     0.24786   0.25416   0.09004   0.00000  Uiso   1.00
H49    H     0.26627   0.27627   0.03679   0.00000  Uiso   1.00
H50    H     0.30224   0.26071   0.08028   0.00000  Uiso   1.00
H51    H     0.04326   0.11481   0.03131   0.00000  Uiso   1.00
H52    H     0.00593   0.15226   0.00437   0.00000  Uiso   1.00
H53    H     0.00362   0.14152   0.06318   0.00000  Uiso   1.00
H54    H     0.24058   0.27349   0.44951   0.00000  Uiso   1.00
H55    H     0.27651   0.25943   0.40590   0.00000  Uiso   1.00
H56    H     0.29545   0.27750   0.45986   0.00000  Uiso   1.00
H57    H     0.27448   0.06219   0.31997   0.00000  Uiso   1.00
H58    H     0.27009   0.12936   0.41876   0.00000  Uiso   1.00
H59    H     0.26343   0.01252   0.28822   0.00000  Uiso   1.00
H60    H     0.25590   0.01319   0.34862   0.00000  Uiso   1.00
H61    H     0.14605   0.27178   0.11373   0.00000  Uiso   1.00
H62    H     0.19008   0.28427   0.14895   0.00000  Uiso   1.00
H63    H     0.15550   0.32892   0.13026   0.00000  Uiso   1.00
H64    H     0.05786   0.05658   0.17825   0.00000  Uiso   1.00
H65    H     0.07051   0.00650   0.20809   0.00000  Uiso   1.00
H66    H     0.07997   0.01081   0.14811   0.00000  Uiso   1.00
H67    H     0.14445   0.28508   0.35142   0.00000  Uiso   1.00
H68    H     0.18028   0.32912   0.37041   0.00000  Uiso   1.00
H69    H     0.23698   0.11056   0.37254   0.00000  Uiso   1.00
H70    H     0.18858   0.27168   0.38570   0.00000  Uiso   1.00
H71    H     0.08973   0.12775   0.16402   0.00000  Uiso   1.00
H72    H     0.07935   0.11064   0.10629   0.00000  Uiso   1.00
H73    H     0.04157   0.14096   0.13806   0.00000  Uiso   1.00
H74    H     0.07791   0.25056   0.42478   0.00000  Uiso   1.00
H75    H     0.04490   0.25748   0.47382   0.00000  Uiso   1.00
H76    H     0.02313   0.24361   0.41960   0.00000  Uiso   1.00
N77    N     0.16667   0.28573   0.25000   0.00000  Uiso   1.00
N78    N     0.16667   0.04760   0.25000   0.00000  Uiso   1.00
N79    N     0.06090   0.14638   0.36074   0.00000  Uiso   1.00
N80    N     0.27158   0.15411   0.13571   0.00000  Uiso   1.00
N81    N     0.05169   0.05046   0.28386   0.00000  Uiso   1.00
N82    N     0.27887   0.28558   0.22381   0.00000  Uiso   1.00
N83    N     0.27931   0.05274   0.20847   0.00000  Uiso   1.00
N84    N     0.05626   0.28375   0.28264   0.00000  Uiso   1.00
O85    O     0.10559   0.20487   0.25000   0.00000  Uiso   1.00
O86    O     0.09081   0.18006   0.11820   0.00000  Uiso   1.00
O87    O     0.05213   0.19134   0.45186   0.00000  Uiso   1.00
O88    O     0.27516   0.20712   0.04719   0.00000  Uiso   1.00
O89    O     0.05043   0.18470   0.04438   0.00000  Uiso   1.00
O90    O     0.27443   0.21173   0.45635   0.00000  Uiso   1.00
O91    O     0.21200   0.04945   0.31269   0.00000  Uiso   1.00
O92    O     0.13184   0.28552   0.17953   0.00000  Uiso   1.00
O93    O     0.12080   0.04848   0.18757   0.00000  Uiso   1.00
O94    O     0.20240   0.28637   0.32002   0.00000  Uiso   1.00
O95    O     0.22774   0.12846   0.25001   0.00000  Uiso   1.00
O96    O     0.22774   0.20487   0.25001   0.00000  Uiso   1.00
O97    O     0.10559   0.12846   0.25000   0.00000  Uiso   1.00
O98    O     0.16666   0.20489   0.18393   0.00000  Uiso   1.00
O99    O     0.16667   0.12844   0.31608   0.00000  Uiso   1.00
O100   O     0.16667   0.20489   0.31608   0.00000  Uiso   1.00
O101   O     0.16666   0.12844   0.18393   0.00000  Uiso   1.00
O102   O     0.23968   0.18026   0.38333   0.00000  Uiso   1.00
Zn103  Zn    0.16667   0.21771   0.25000   0.00000  Uiso   1.00
Zn104  Zn    0.16667   0.11563   0.25000   0.00000  Uiso   1.00
C105   C     0.42011   0.16663   0.25396   0.00000  Uiso   1.00
C106   C     0.37548   0.16689   0.25740   0.00000  Uiso   1.00
C107   C     0.52232   0.02455   0.28167   0.00000  Uiso   1.00
C108   C     0.48140   0.30915   0.21574   0.00000  Uiso   1.00
C109   C     0.47763   0.02405   0.21831   0.00000  Uiso   1.00
C110   C     0.51886   0.30959   0.28412   0.00000  Uiso   1.00
C111   C     0.49899   0.16680   0.16354   0.00000  Uiso   1.00
C112   C     0.50034   0.16684   0.33646   0.00000  Uiso   1.00
C113   C     0.53644   0.17793   0.40724   0.00000  Uiso   1.00
C114   C     0.45994   0.17430   0.09349   0.00000  Uiso   1.00
C115   C     0.49936   0.16844   0.38443   0.00000  Uiso   1.00
C116   C     0.57986   0.16688   0.24594   0.00000  Uiso   1.00
C117   C     0.49817   0.16815   0.11551   0.00000  Uiso   1.00
C118   C     0.46107   0.16847   0.40598   0.00000  Uiso   1.00
C119   C     0.53585   0.17169   0.09299   0.00000  Uiso   1.00
C120   C     0.45978   0.17773   0.45224   0.00000  Uiso   1.00
C121   C     0.53557   0.18320   0.04734   0.00000  Uiso   1.00
C122   C     0.49754   0.18227   0.47642   0.00000  Uiso   1.00
C123   C     0.49731   0.18207   0.02350   0.00000  Uiso   1.00
C124   C     0.53568   0.18605   0.45357   0.00000  Uiso   1.00
C125   C     0.45910   0.17917   0.04657   0.00000  Uiso   1.00
C126   C     0.42200   0.18336   0.47510   0.00000  Uiso   1.00
C127   C     0.42125   0.18145   0.02217   0.00000  Uiso   1.00
C128   C     0.57206   0.19635   0.02455   0.00000  Uiso   1.00
C129   C     0.59187   0.13753   0.38440   0.00000  Uiso   1.00
C130   C     0.40857   0.13773   0.13185   0.00000  Uiso   1.00
C131   C     0.42392   0.15624   0.38064   0.00000  Uiso   1.00
C132   C     0.57427   0.16195   0.11686   0.00000  Uiso   1.00
C133   C     0.38322   0.23787   0.44245   0.00000  Uiso   1.00
C134   C     0.60558   0.25149   0.06407   0.00000  Uiso   1.00
C135   C     0.35857   0.14653   0.03487   0.00000  Uiso   1.00
C136   C     0.60432   0.25729   0.44259   0.00000  Uiso   1.00
C137   C     0.37111   0.08372   0.27048   0.00000  Uiso   1.00
C138   C     0.57186   0.19835   0.47777   0.00000  Uiso   1.00
C139   C     0.62724   0.25165   0.23358   0.00000  Uiso   1.00
C140   C     0.62730   0.08519   0.22354   0.00000  Uiso   1.00
C141   C     0.37396   0.25048   0.27090   0.00000  Uiso   1.00
C142   C     0.58624   0.03306   0.31718   0.00000  Uiso   1.00
C143   C     0.49057   0.29338   0.14186   0.00000  Uiso   1.00
C144   C     0.41427   0.02921   0.18060   0.00000  Uiso   1.00
C145   C     0.51091   0.29381   0.35815   0.00000  Uiso   1.00
C146   C     0.35353   0.12580   0.25466   0.00000  Uiso   1.00
C147   C     0.64614   0.20882   0.24529   0.00000  Uiso   1.00
C148   C     0.64578   0.12627   0.24164   0.00000  Uiso   1.00
C149   C     0.35439   0.20843   0.25659   0.00000  Uiso   1.00
C150   C     0.62442   0.16747   0.24190   0.00000  Uiso   1.00
H151   H     0.61886   0.13813   0.36161   0.00000  Uiso   1.00
H152   H     0.58119   0.25416   0.09004   0.00000  Uiso   1.00
H153   H     0.59960   0.27627   0.03679   0.00000  Uiso   1.00
H154   H     0.63557   0.26071   0.08028   0.00000  Uiso   1.00
H155   H     0.37659   0.11481   0.03131   0.00000  Uiso   1.00
H156   H     0.33926   0.15226   0.00437   0.00000  Uiso   1.00
H157   H     0.33696   0.14152   0.06318   0.00000  Uiso   1.00
H158   H     0.57391   0.27349   0.44951   0.00000  Uiso   1.00
H159   H     0.60985   0.25943   0.40590   0.00000  Uiso   1.00
H160   H     0.62878   0.27750   0.45986   0.00000  Uiso   1.00
H161   H     0.60782   0.06219   0.31997   0.00000  Uiso   1.00
H162   H     0.60342   0.12936   0.41876   0.00000  Uiso   1.00
H163   H     0.59677   0.01252   0.28822   0.00000  Uiso   1.00
H164   H     0.58924   0.01319   0.34862   0.00000  Uiso   1.00
H165   H     0.47938   0.27178   0.11373   0.00000  Uiso   1.00
H166   H     0.52341   0.28427   0.14895   0.00000  Uiso   1.00
H167   H     0.48884   0.32892   0.13026   0.00000  Uiso   1.00
H168   H     0.39120   0.05658   0.17825   0.00000  Uiso   1.00
H169   H     0.40385   0.00650   0.20809   0.00000  Uiso   1.00
H170   H     0.41330   0.01081   0.14811   0.00000  Uiso   1.00
H171   H     0.47778   0.28508   0.35142   0.00000  Uiso   1.00
H172   H     0.51361   0.32912   0.37041   0.00000  Uiso   1.00
H173   H     0.57031   0.11056   0.37254   0.00000  Uiso   1.00
H174   H     0.52191   0.27168   0.38570   0.00000  Uiso   1.00
H175   H     0.42307   0.12775   0.16402   0.00000  Uiso   1.00
H176   H     0.41268   0.11064   0.10629   0.00000  Uiso   1.00
H177   H     0.37490   0.14096   0.13806   0.00000  Uiso   1.00
H178   H     0.41124   0.25056   0.42478   0.00000  Uiso   1.00
H179   H     0.37824   0.25748   0.47382   0.00000  Uiso   1.00
H180   H     0.35646   0.24361   0.41960   0.00000  Uiso   1.00
N181   N     0.50000   0.28573   0.25000   0.00000  Uiso   1.00
N182   N     0.50000   0.04760   0.25000   0.00000  Uiso   1.00
N183   N     0.39424   0.14638   0.36074   0.00000  Uiso   1.00
N184   N     0.60492   0.15411   0.13571   0.00000  Uiso   1.00
N185   N     0.38502   0.05046   0.28386   0.00000  Uiso   1.00
N186   N     0.61220   0.28558   0.22381   0.00000  Uiso   1.00
N187   N     0.61265   0.05274   0.20847   0.00000  Uiso   1.00
N188   N     0.38959   0.28375   0.28264   0.00000  Uiso   1.00
O189   O     0.43892   0.20487   0.25000   0.00000  Uiso   1.00
O190   O     0.42415   0.18006   0.11820   0.00000  Uiso   1.00
O191   O     0.38547   0.19134   0.45186   0.00000  Uiso   1.00
O192   O     0.60849   0.20712   0.04719   0.00000  Uiso   1.00
O193   O     0.38377   0.18470   0.04438   0.00000  Uiso   1.00
O194   O     0.60776   0.21173   0.45635   0.00000  Uiso   1.00
O195   O     0.54533   0.04945   0.31269   0.00000  Uiso   1.00
O196   O     0.46517   0.28552   0.17953   0.00000  Uiso   1.00
O197   O     0.45413   0.04848   0.18757   0.00000  Uiso   1.00
O198   O     0.53573   0.28637   0.32002   0.00000  Uiso   1.00
O199   O     0.56108   0.12846   0.25001   0.00000  Uiso   1.00
O200   O     0.56108   0.20487   0.25001   0.00000  Uiso   1.00
O201   O     0.43892   0.12846   0.25000   0.00000  Uiso   1.00
O202   O     0.49999   0.20489   0.18393   0.00000  Uiso   1.00
O203   O     0.50001   0.12844   0.31608   0.00000  Uiso   1.00
O204   O     0.50001   0.20489   0.31608   0.00000  Uiso   1.00
O205   O     0.49999   0.12844   0.18393   0.00000  Uiso   1.00
O206   O     0.57301   0.18026   0.38333   0.00000  Uiso   1.00
Zn207  Zn    0.50000   0.21771   0.25000   0.00000  Uiso   1.00
Zn208  Zn    0.50000   0.11563   0.25000   0.00000  Uiso   1.00
C209   C     0.75344   0.16663   0.25396   0.00000  Uiso   1.00
C210   C     0.70882   0.16689   0.25740   0.00000  Uiso   1.00
C211   C     0.85565   0.02455   0.28167   0.00000  Uiso   1.00
C212   C     0.81473   0.30915   0.21574   0.00000  Uiso   1.00
C213   C     0.81097   0.02405   0.21831   0.00000  Uiso   1.00
C214   C     0.85220   0.30959   0.28412   0.00000  Uiso   1.00
C215   C     0.83233   0.16680   0.16354   0.00000  Uiso   1.00
C216   C     0.83367   0.16684   0.33646   0.00000  Uiso   1.00
C217   C     0.86977   0.17793   0.40724   0.00000  Uiso   1.00
C218   C     0.79328   0.17430   0.09349   0.00000  Uiso   1.00
C219   C     0.83270   0.16844   0.38443   0.00000  Uiso   1.00
C220   C     0.91319   0.16688   0.24594   0.00000  Uiso   1.00
C221   C     0.83150   0.16815   0.11551   0.00000  Uiso   1.00
C222   C     0.79440   0.16847   0.40598   0.00000  Uiso   1.00
C223   C     0.86918   0.17169   0.09299   0.00000  Uiso   1.00
C224   C     0.79311   0.17773   0.45224   0.00000  Uiso   1.00
C225   C     0.86890   0.18320   0.04734   0.00000  Uiso   1.00
C226   C     0.83087   0.18227   0.47642   0.00000  Uiso   1.00
C227   C     0.83064   0.18207   0.02350   0.00000  Uiso   1.00
C228   C     0.86901   0.18605   0.45357   0.00000  Uiso   1.00
C229   C     0.79243   0.17917   0.04657   0.00000  Uiso   1.00
C230   C     0.75533   0.18336   0.47510   0.00000  Uiso   1.00
C231   C     0.75459   0.18145   0.02217   0.00000  Uiso   1.00
C232   C     0.90539   0.19635   0.02455   0.00000  Uiso   1.00
C233   C     0.92520   0.13753   0.38440   0.00000  Uiso   1.00
C234   C     0.74191   0.13773   0.13185   0.00000  Uiso   1.00
C235   C     0.75726   0.15624   0.38064   0.00000  Uiso   1.00
C236   C     0.90761   0.16195   0.11686   0.00000  Uiso   1.00
C237   C     0.71655   0.23787   0.44245   0.00000  Uiso   1.00
C238   C     0.93892   0.25149   0.06407   0.00000  Uiso   1.00
C239   C     0.69191   0.14653   0.03487   0.00000  Uiso   1.00
C240   C     0.93766   0.25729   0.44259   0.00000  Uiso   1.00
C241   C     0.70444   0.08372   0.27048   0.00000  Uiso   1.00
C242   C     0.90519   0.19835   0.47777   0.00000  Uiso   1.00
C243   C     0.96057   0.25165   0.23358   0.00000  Uiso   1.00
C244   C     0.96064   0.08519   0.22354   0.00000  Uiso   1.00
C245   C     0.70730   0.25048   0.27090   0.00000  Uiso   1.00
C246   C     0.91957   0.03306   0.31718   0.00000  Uiso   1.00
C247   C     0.82390   0.29338   0.14186   0.00000  Uiso   1.00
C248   C     0.74760   0.02921   0.18060   0.00000  Uiso   1.00
C249   C     0.84425   0.29381   0.35815   0.00000  Uiso   1.00
C250   C     0.68686   0.12580   0.25466   0.00000  Uiso   1.00
C251   C     0.97947   0.20882   0.24529   0.00000  Uiso   1.00
C252   C     0.97911   0.12627   0.24164   0.00000  Uiso   1.00
C253   C     0.68772   0.20843   0.25659   0.00000  Uiso   1.00
C254   C     0.95776   0.16747   0.24190   0.00000  Uiso   1.00
H255   H     0.95219   0.13813   0.36161   0.00000  Uiso   1.00
H256   H     0.91452   0.25416   0.09004   0.00000  Uiso   1.00
H257   H     0.93294   0.27627   0.03679   0.00000  Uiso   1.00
H258   H     0.96890   0.26071   0.08028   0.00000  Uiso   1.00
H259   H     0.70992   0.11481   0.03131   0.00000  Uiso   1.00
H260   H     0.67260   0.15226   0.00437   0.00000  Uiso   1.00
H261   H     0.67029   0.14152   0.06318   0.00000  Uiso   1.00
H262   H     0.90725   0.27349   0.44951   0.00000  Uiso   1.00
H263   H     0.94318   0.25943   0.40590   0.00000  Uiso   1.00
H264   H     0.96212   0.27750   0.45986   0.00000  Uiso   1.00
H265   H     0.94115   0.06219   0.31997   0.00000  Uiso   1.00
H266   H     0.93675   0.12936   0.41876   0.00000  Uiso   1.00
H267   H     0.93010   0.01252   0.28822   0.00000  Uiso   1.00
H268   H     0.92257   0.01319   0.34862   0.00000  Uiso   1.00
H269   H     0.81272   0.27178   0.11373   0.00000  Uiso   1.00
H270   H     0.85675   0.28427   0.14895   0.00000  Uiso   1.00
H271   H     0.82217   0.32892   0.13026   0.00000  Uiso   1.00
H272   H     0.72453   0.05658   0.17825   0.00000  Uiso   1.00
H273   H     0.73718   0.00650   0.20809   0.00000  Uiso   1.00
H274   H     0.74664   0.01081   0.14811   0.00000  Uiso   1.00
H275   H     0.81111   0.28508   0.35142   0.00000  Uiso   1.00
H276   H     0.84695   0.32912   0.37041   0.00000  Uiso   1.00
H277   H     0.90364   0.11056   0.37254   0.00000  Uiso   1.00
H278   H     0.85524   0.27168   0.38570   0.00000  Uiso   1.00
H279   H     0.75640   0.12775   0.16402   0.00000  Uiso   1.00
H280   H     0.74601   0.11064   0.10629   0.00000  Uiso   1.00
H281   H     0.70824   0.14096   0.13806   0.00000  Uiso   1.00
H282   H     0.74458   0.25056   0.42478   0.00000  Uiso   1.00
H283   H     0.71157   0.25748   0.47382   0.00000  Uiso   1.00
H284   H     0.68980   0.24361   0.41960   0.00000  Uiso   1.00
N285   N     0.83333   0.28573   0.25000   0.00000  Uiso   1.00
N286   N     0.83333   0.04760   0.25000   0.00000  Uiso   1.00
N287   N     0.72757   0.14638   0.36074   0.00000  Uiso   1.00
N288   N     0.93825   0.15411   0.13571   0.00000  Uiso   1.00
N289   N     0.71835   0.05046   0.28386   0.00000  Uiso   1.00
N290   N     0.94554   0.28558   0.22381   0.00000  Uiso   1.00
N291   N     0.94598   0.05274   0.20847   0.00000  Uiso   1.00
N292   N     0.72293   0.28375   0.28264   0.00000  Uiso   1.00
O293   O     0.77226   0.20487   0.25000   0.00000  Uiso   1.00
O294   O     0.75748   0.18006   0.11820   0.00000  Uiso   1.00
O295   O     0.71880   0.19134   0.45186   0.00000  Uiso   1.00
O296   O     0.94182   0.20712   0.04719   0.00000  Uiso   1.00
O297   O     0.71710   0.18470   0.04438   0.00000  Uiso   1.00
O298   O     0.94110   0.21173   0.45635   0.00000  Uiso   1.00
O299   O     0.87866   0.04945   0.31269   0.00000  Uiso   1.00
O300   O     0.79851   0.28552   0.17953   0.00000  Uiso   1.00
O301   O     0.78747   0.04848   0.18757   0.00000  Uiso   1.00
O302   O     0.86906   0.28637   0.32002   0.00000  Uiso   1.00
O303   O     0.89441   0.12846   0.25001   0.00000  Uiso   1.00
O304   O     0.89441   0.20487   0.25001   0.00000  Uiso   1.00
O305   O     0.77226   0.12846   0.25000   0.00000  Uiso   1.00
O306   O     0.83333   0.20489   0.18393   0.00000  Uiso   1.00
O307   O     0.83334   0.12844   0.31608   0.00000  Uiso   1.00
O308   O     0.83334   0.20489   0.31608   0.00000  Uiso   1.00
O309   O     0.83333   0.12844   0.18393   0.00000  Uiso   1.00
O310   O     0.90635   0.18026   0.38333   0.00000  Uiso   1.00
Zn311  Zn    0.83333   0.21771   0.25000   0.00000  Uiso   1.00
Zn312  Zn    0.83333   0.11563   0.25000   0.00000  Uiso   1.00
C313   C     0.08678   0.49996   0.25396   0.00000  Uiso   1.00
C314   C     0.04215   0.50022   0.25740   0.00000  Uiso   1.00
C315   C     0.18899   0.35789   0.28167   0.00000  Uiso   1.00
C316   C     0.14807   0.64248   0.21574   0.00000  Uiso   1.00
C317   C     0.14430   0.35739   0.21831   0.00000  Uiso   1.00
C318   C     0.18553   0.64292   0.28412   0.00000  Uiso   1.00
C319   C     0.16566   0.50013   0.16354   0.00000  Uiso   1.00
C320   C     0.16701   0.50017   0.33646   0.00000  Uiso   1.00
C321   C     0.20311   0.51127   0.40724   0.00000  Uiso   1.00
C322   C     0.12661   0.50763   0.09349   0.00000  Uiso   1.00
C323   C     0.16603   0.50178   0.38443   0.00000  Uiso   1.00
C324   C     0.24652   0.50021   0.24594   0.00000  Uiso   1.00
C325   C     0.16484   0.50148   0.11551   0.00000  Uiso   1.00
C326   C     0.12774   0.50180   0.40598   0.00000  Uiso   1.00
C327   C     0.20252   0.50502   0.09299   0.00000  Uiso   1.00
C328   C     0.12644   0.51106   0.45224   0.00000  Uiso   1.00
C329   C     0.20223   0.51654   0.04734   0.00000  Uiso   1.00
C330   C     0.16420   0.51561   0.47642   0.00000  Uiso   1.00
C331   C     0.16397   0.51540   0.02350   0.00000  Uiso   1.00
C332   C     0.20234   0.51939   0.45357   0.00000  Uiso   1.00
C333   C     0.12577   0.51250   0.04657   0.00000  Uiso   1.00
C334   C     0.08867   0.51670   0.47510   0.00000  Uiso   1.00
C335   C     0.08792   0.51478   0.02217   0.00000  Uiso   1.00
C336   C     0.23873   0.52968   0.02455   0.00000  Uiso   1.00
C337   C     0.25853   0.47087   0.38440   0.00000  Uiso   1.00
C338   C     0.07524   0.47106   0.13185   0.00000  Uiso   1.00
C339   C     0.09059   0.48958   0.38064   0.00000  Uiso   1.00
C340   C     0.24094   0.49529   0.11686   0.00000  Uiso   1.00
C341   C     0.04989   0.57120   0.44245   0.00000  Uiso   1.00
C342   C     0.27225   0.58482   0.06407   0.00000  Uiso   1.00
C343   C     0.02524   0.47987   0.03487   0.00000  Uiso   1.00
C344   C     0.27099   0.59063   0.44259   0.00000  Uiso   1.00
C345   C     0.03777   0.41706   0.27048   0.00000  Uiso   1.00
C346   C     0.23853   0.53168   0.47777   0.00000  Uiso   1.00
C347   C     0.29390   0.58498   0.23358   0.00000  Uiso   1.00
C348   C     0.29397   0.41852   0.22354   0.00000  Uiso   1.00
C349   C     0.04063   0.58381   0.27090   0.00000  Uiso   1.00
C350   C     0.25290   0.36639   0.31718   0.00000  Uiso   1.00
C351   C     0.15723   0.62671   0.14186   0.00000  Uiso   1.00
C352   C     0.08094   0.36254   0.18060   0.00000  Uiso   1.00
C353   C     0.17758   0.62715   0.35815   0.00000  Uiso   1.00
C354   C     0.02019   0.45913   0.25466   0.00000  Uiso   1.00
C355   C     0.31280   0.54216   0.24529   0.00000  Uiso   1.00
C356   C     0.31244   0.45960   0.24164   0.00000  Uiso   1.00
C357   C     0.02106   0.54177   0.25659   0.00000  Uiso   1.00
C358   C     0.29109   0.50081   0.24190   0.00000  Uiso   1.00
H359   H     0.28552   0.47146   0.36161   0.00000  Uiso   1.00
H360   H     0.24786   0.58749   0.09004   0.00000  Uiso   1.00
H361   H     0.26627   0.60960   0.03679   0.00000  Uiso   1.00
H362   H     0.30224   0.59405   0.08028   0.00000  Uiso   1.00
H363   H     0.04326   0.44814   0.03131   0.00000  Uiso   1.00
H364   H     0.00593   0.48559   0.00437   0.00000  Uiso   1.00
H365   H     0.00362   0.47485   0.06318   0.00000  Uiso   1.00
H366   H     0.24058   0.60682   0.44951   0.00000  Uiso   1.00
H367   H     0.27651   0.59276   0.40590   0.00000  Uiso   1.00
H368   H     0.29545   0.61084   0.45986   0.00000  Uiso   1.00
H369   H     0.27448   0.39553   0.31997   0.00000  Uiso   1.00
H370   H     0.27009   0.46270   0.41876   0.00000  Uiso   1.00
H371   H     0.26343   0.34586   0.28822   0.00000  Uiso   1.00
H372   H     0.25590   0.34652   0.34862   0.00000  Uiso   1.00
H373   H     0.14605   0.60511   0.11373   0.00000  Uiso   1.00
H374   H     0.19008   0.61760   0.14895   0.00000  Uiso   1.00
H375   H     0.15550   0.66226   0.13026   0.00000  Uiso   1.00
H376   H     0.05786   0.38991   0.17825   0.00000  Uiso   1.00
H377   H     0.07051   0.33983   0.20809   0.00000  Uiso   1.00
H378   H     0.07997   0.34414   0.14811   0.00000  Uiso   1.00
H379   H     0.14445   0.61841   0.35142   0.00000  Uiso   1.00
H380   H     0.18028   0.66245   0.37041   0.00000  Uiso   1.00
H381   H     0.23698   0.44389   0.37254   0.00000  Uiso   1.00
H382   H     0.18858   0.60501   0.38570   0.00000  Uiso   1.00
H383   H     0.08973   0.46108   0.16402   0.00000  Uiso   1.00
H384   H     0.07935   0.44397   0.10629   0.00000  Uiso   1.00
H385   H     0.04157   0.47429   0.13806   0.00000  Uiso   1.00
H386   H     0.07791   0.58389   0.42478   0.00000  Uiso   1.00
H387   H     0.04490   0.59081   0.47382   0.00000  Uiso   1.00
H388   H     0.02313   0.57694   0.41960   0.00000  Uiso   1.00
N389   N     0.16667   0.61907   0.25000   0.00000  Uiso   1.00
N390   N     0.16667   0.38093   0.25000   0.00000  Uiso   1.00
N391   N     0.06090   0.47971   0.36074   0.00000  Uiso   1.00
N392   N     0.27158   0.48745   0.13571   0.00000  Uiso   1.00
N393   N     0.05169   0.38379   0.28386   0.00000  Uiso   1.00
N394   N     0.27887   0.61891   0.22381   0.00000  Uiso   1.00
N395   N     0.27931   0.38607   0.20847   0.00000  Uiso   1.00
N396   N     0.05626   0.61708   0.28264   0.00000  Uiso   1.00
O397   O     0.10559   0.53821   0.25000   0.00000  Uiso   1.00
O398   O     0.09081   0.51339   0.11820   0.00000  Uiso   1.00
O399   O     0.05213   0.52467   0.45186   0.00000  Uiso   1.00
O400   O     0.27516   0.54045   0.04719   0.00000  Uiso   1.00
O401   O     0.05043   0.51803   0.04438   0.00000  Uiso   1.00
O402   O     0.27443   0.54506   0.45635   0.00000  Uiso   1.00
O403   O     0.21200   0.38278   0.31269   0.00000  Uiso   1.00
O404   O     0.13184   0.61885   0.17953   0.00000  Uiso   1.00
O405   O     0.12080   0.38181   0.18757   0.00000  Uiso   1.00
O406   O     0.20240   0.61970   0.32002   0.00000  Uiso   1.00
O407   O     0.22774   0.46179   0.25001   0.00000  Uiso   1.00
O408   O     0.22774   0.53821   0.25001   0.00000  Uiso   1.00
O409   O     0.10559   0.46179   0.25000   0.00000  Uiso   1.00
O410   O     0.16666   0.53823   0.18393   0.00000  Uiso   1.00
O411   O     0.16667   0.46177   0.31608   0.00000  Uiso   1.00
O412   O     0.16667   0.53823   0.31608   0.00000  Uiso   1.00
O413   O     0.16666   0.46177   0.18393   0.00000  Uiso   1.00
O414   O     0.23968   0.51359   0.38333   0.00000  Uiso   1.00
Zn415  Zn    0.16667   0.55104   0.25000   0.00000  Uiso   1.00
Zn416  Zn    0.16667   0.44896   0.25000   0.00000  Uiso   1.00
C417   C     0.42011   0.49996   0.25396   0.00000  Uiso   1.00
C418   C     0.37548   0.50022   0.25740   0.00000  Uiso   1.00
C419   C     0.52232   0.35789   0.28167   0.00000  Uiso   1.00
C420   C     0.48140   0.64248   0.21574   0.00000  Uiso   1.00
C421   C     0.47763   0.35739   0.21831   0.00000  Uiso   1.00
C422   C     0.51886   0.64292   0.28412   0.00000  Uiso   1.00
C423   C     0.49899   0.50013   0.16354   0.00000  Uiso   1.00
C424   C     0.50034   0.50017   0.33646   0.00000  Uiso   1.00
C425   C     0.53644   0.51127   0.40724   0.00000  Uiso   1.00
C426   C     0.45994   0.50763   0.09349   0.00000  Uiso   1.00
C427   C     0.49936   0.50178   0.38443   0.00000  Uiso   1.00
C428   C     0.57986   0.50021   0.24594   0.00000  Uiso   1.00
C429   C     0.49817   0.50148   0.11551   0.00000  Uiso   1.00
C430   C     0.46107   0.50180   0.40598   0.00000  Uiso   1.00
C431   C     0.53585   0.50502   0.09299   0.00000  Uiso   1.00
C432   C     0.45978   0.51106   0.45224   0.00000  Uiso   1.00
C433   C     0.53557   0.51654   0.04734   0.00000  Uiso   1.00
C434   C     0.49754   0.51561   0.47642   0.00000  Uiso   1.00
C435   C     0.49731   0.51540   0.02350   0.00000  Uiso   1.00
C436   C     0.53568   0.51939   0.45357   0.00000  Uiso   1.00
C437   C     0.45910   0.51250   0.04657   0.00000  Uiso   1.00
C438   C     0.42200   0.51670   0.47510   0.00000  Uiso   1.00
C439   C     0.42125   0.51478   0.02217   0.00000  Uiso   1.00
C440   C     0.57206   0.52968   0.02455   0.00000  Uiso   1.00
C441   C     0.59187   0.47087   0.38440   0.00000  Uiso   1.00
C442   C     0.40857   0.47106   0.13185   0.00000  Uiso   1.00
C443   C     0.42392   0.48958   0.38064   0.00000  Uiso   1.00
C444   C     0.57427   0.49529   0.11686   0.00000  Uiso   1.00
C445   C     0.38322   0.57120   0.44245   0.00000  Uiso   1.00
C446   C     0.60558   0.58482   0.06407   0.00000  Uiso   1.00
C447   C     0.35857   0.47987   0.03487   0.00000  Uiso   1.00
C448   C     0.60432   0.59063   0.44259   0.00000  Uiso   1.00
C449   C     0.37111   0.41706   0.27048   0.00000  Uiso   1.00
C450   C     0.57186   0.53168   0.47777   0.00000  Uiso   1.00
C451   C     0.62724   0.58498   0.23358   0.00000  Uiso   1.00
C452   C     0.62730   0.41852   0.22354   0.00000  Uiso   1.00
C453   C     0.37396   0.58381   0.27090   0.00000  Uiso   1.00
C454   C     0.58624   0.36639   0.31718   0.00000  Uiso   1.00
C455   C     0.49057   0.62671   0.14186   0.00000  Uiso   1.00
C456   C     0.41427   0.36254   0.18060   0.00000  Uiso   1.00
C457   C     0.51091   0.62715   0.35815   0.00000  Uiso   1.00
C458   C     0.35353   0.45913   0.25466   0.00000  Uiso   1.00
C459   C     0.64614   0.54216   0.24529   0.00000  Uiso   1.00
C460   C     0.64578   0.45960   0.24164   0.00000  Uiso   1.00
C461   C     0.35439   0.54177   0.25659   0.00000  Uiso   1.00
C462   C     0.62442   0.50081   0.24190   0.00000  Uiso   1.00
H463   H     0.61886   0.47146   0.36161   0.00000  Uiso   1.00
H464   H     0.58119   0.58749   0.09004   0.00000  Uiso   1.00
H465   H     0.59960   0.60960   0.03679   0.00000  Uiso   1.00
H466   H     0.63557   0.59405   0.08028   0.00000  Uiso   1.00
H467   H     0.37659   0.44814   0.03131   0.00000  Uiso   1.00
H468   H     0.33926   0.48559   0.00437   0.00000  Uiso   1.00
H469   H     0.33696   0.47485   0.06318   0.00000  Uiso   1.00
H470   H     0.57391   0.60682   0.44951   0.00000  Uiso   1.00
H471   H     0.60985   0.59276   0.40590   0.00000  Uiso   1.00
H472   H     0.62878   0.61084   0.45986   0.00000  Uiso   1.00
H473   H     0.60782   0.39553   0.31997   0.00000  Uiso   1.00
H474   H     0.60342   0.46270   0.41876   0.00000  Uiso   1.00
H475   H     0.59677   0.34586   0.28822   0.00000  Uiso   1.00
H476   H     0.58924   0.34652   0.34862   0.00000  Uiso   1.00
H477   H     0.47938   0.60511   0.11373   0.00000  Uiso   1.00
H478   H     0.52341   0.61760   0.14895   0.00000  Uiso   1.00
H479   H     0.48884   0.66226   0.13026   0.00000  Uiso   1.00
H480   H     0.39120   0.38991   0.17825   0.00000  Uiso   1.00
H481   H     0.40385   0.33983   0.20809   0.00000  Uiso   1.00
H482   H     0.41330   0.34414   0.14811   0.00000  Uiso   1.00
H483   H     0.47778   0.61841   0.35142   0.00000  Uiso   1.00
H484   H     0.51361   0.66245   0.37041   0.00000  Uiso   1.00
H485   H     0.57031   0.44389   0.37254   0.00000  Uiso   1.00
H486   H     0.52191   0.60501   0.38570   0.00000  Uiso   1.00
H487   H     0.42307   0.46108   0.16402   0.00000  Uiso   1.00
H488   H     0.41268   0.44397   0.10629   0.00000  Uiso   1.00
H489   H     0.37490   0.47429   0.13806   0.00000  Uiso   1.00
H490   H     0.41124   0.58389   0.42478   0.00000  Uiso   1.00
H491   H     0.37824   0.59081   0.47382   0.00000  Uiso   1.00
H492   H     0.35646   0.57694   0.41960   0.00000  Uiso   1.00
N493   N     0.50000   0.61907   0.25000   0.00000  Uiso   1.00
N494   N     0.50000   0.38093   0.25000   0.00000  Uiso   1.00
N495   N     0.39424   0.47971   0.36074   0.00000  Uiso   1.00
N496   N     0.60492   0.48745   0.13571   0.00000  Uiso   1.00
N497   N     0.38502   0.38379   0.28386   0.00000  Uiso   1.00
N498   N     0.61220   0.61891   0.22381   0.00000  Uiso   1.00
N499   N     0.61265   0.38607   0.20847   0.00000  Uiso   1.00
N500   N     0.38959   0.61708   0.28264   0.00000  Uiso   1.00
O501   O     0.43892   0.53821   0.25000   0.00000  Uiso   1.00
O502   O     0.42415   0.51339   0.11820   0.00000  Uiso   1.00
O503   O     0.38547   0.52467   0.45186   0.00000  Uiso   1.00
O504   O     0.60849   0.54045   0.04719   0.00000  Uiso   1.00
O505   O     0.38377   0.51803   0.04438   0.00000  Uiso   1.00
O506   O     0.60776   0.54506   0.45635   0.00000  Uiso   1.00
O507   O     0.54533   0.38278   0.31269   0.00000  Uiso   1.00
O508   O     0.46517   0.61885   0.17953   0.00000  Uiso   1.00
O509   O     0.45413   0.38181   0.18757   0.00000  Uiso   1.00
O510   O     0.53573   0.61970   0.32002   0.00000  Uiso   1.00
O511   O     0.56108   0.46179   0.25001   0.00000  Uiso   1.00
O512   O     0.56108   0.53821   0.25001   0.00000  Uiso   1.00
O513   O     0.43892   0.46179   0.25000   0.00000  Uiso   1.00
O514   O     0.49999   0.53823   0.18393   0.00000  Uiso   1.00
O515   O     0.50001   0.46177   0.31608   0.00000  Uiso   1.00
O516   O     0.50001   0.53823   0.31608   0.00000  Uiso   1.00
O517   O     0.49999   0.46177   0.18393   0.00000  Uiso   1.00
O518   O     0.57301   0.51359   0.38333   0.00000  Uiso   1.00
Zn519  Zn    0.50000   0.55104   0.25000   0.00000  Uiso   1.00
Zn520  Zn    0.50000   0.44896   0.25000   0.00000  Uiso   1.00
C521   C     0.75344   0.49996   0.25396   0.00000  Uiso   1.00
C522   C     0.70882   0.50022   0.25740   0.00000  Uiso   1.00
C523   C     0.85565   0.35789   0.28167   0.00000  Uiso   1.00
C524   C     0.81473   0.64248   0.21574   0.00000  Uiso   1.00
C525   C     0.81097   0.35739   0.21831   0.00000  Uiso   1.00
C526   C     0.85220   0.64292   0.28412   0.00000  Uiso   1.00
C527   C     0.83233   0.50013   0.16354   0.00000  Uiso   1.00
C528   C     0.83367   0.50017   0.33646   0.00000  Uiso   1.00
C529   C     0.86977   0.51127   0.40724   0.00000  Uiso   1.00
C530   C     0.79328   0.50763   0.09349   0.00000  Uiso   1.00
C531   C     0.83270   0.50178   0.38443   0.00000  Uiso   1.00
C532   C     0.91319   0.50021   0.24594   0.00000  Uiso   1.00
C533   C     0.83150   0.50148   0.11551   0.00000  Uiso   1.00
C534   C     0.79440   0.50180   0.40598   0.00000  Uiso   1.00
C535   C     0.86918   0.50502   0.09299   0.00000  Uiso   1.00
C536   C     0.79311   0.51106   0.45224   0.00000  Uiso   1.00
C537   C     0.86890   0.51654   0.04734   0.00000  Uiso   1.00
C538   C     0.83087   0.51561   0.47642   0.00000  Uiso   1.00
C539   C     0.83064   0.51540   0.02350   0.00000  Uiso   1.00
C540   C     0.86901   0.51939   0.45357   0.00000  Uiso   1.00
C541   C     0.79243   0.51250   0.04657   0.00000  Uiso   1.00
C542   C     0.75533   0.51670   0.47510   0.00000  Uiso   1.00
C543   C     0.75459   0.51478   0.02217   0.00000  Uiso   1.00
C544   C     0.90539   0.52968   0.02455   0.00000  Uiso   1.00
C545   C     0.92520   0.47087   0.38440   0.00000  Uiso   1.00
C546   C     0.74191   0.47106   0.13185   0.00000  Uiso   1.00
C547   C     0.75726   0.48958   0.38064   0.00000  Uiso   1.00
C548   C     0.90761   0.49529   0.11686   0.00000  Uiso   1.00
C549   C     0.71655   0.57120   0.44245   0.00000  Uiso   1.00
C550   C     0.93892   0.58482   0.06407   0.00000  Uiso   1.00
C551   C     0.69191   0.47987   0.03487   0.00000  Uiso   1.00
C552   C     0.93766   0.59063   0.44259   0.00000  Uiso   1.00
C553   C     0.70444   0.41706   0.27048   0.00000  Uiso   1.00
C554   C     0.90519   0.53168   0.47777   0.00000  Uiso   1.00
C555   C     0.96057   0.58498   0.23358   0.00000  Uiso   1.00
C556   C     0.96064   0.41852   0.22354   0.00000  Uiso   1.00
C557   C     0.70730   0.58381   0.27090   0.00000  Uiso   1.00
C558   C     0.91957   0.36639   0.31718   0.00000  Uiso   1.00
C559   C     0.82390   0.62671   0.14186   0.00000  Uiso   1.00
C560   C     0.74760   0.36254   0.18060   0.00000  Uiso   1.00
C561   C     0.84425   0.62715   0.35815   0.00000  Uiso   1.00
C562   C     0.68686   0.45913   0.25466   0.00000  Uiso   1.00
C563   C     0.97947   0.54216   0.24529   0.00000  Uiso   1.00
C564   C     0.97911   0.45960   0.24164   0.00000  Uiso   1.00
C565   C     0.68772   0.54177   0.25659   0.00000  Uiso   1.00
C566   C     0.95776   0.50081   0.24190   0.00000  Uiso   1.00
H567   H     0.95219   0.47146   0.36161   0.00000  Uiso   1.00
H568   H     0.91452   0.58749   0.09004   0.00000  Uiso   1.00
H569   H     0.93294   0.60960   0.03679   0.00000  Uiso   1.00
H570   H     0.96890   0.59405   0.08028   0.00000  Uiso   1.00
H571   H     0.70992   0.44814   0.03131   0.00000  Uiso   1.00
H572   H     0.67260   0.48559   0.00437   0.00000  Uiso   1.00
H573   H     0.67029   0.47485   0.06318   0.00000  Uiso   1.00
H574   H     0.90725   0.60682   0.44951   0.00000  Uiso   1.00
H575   H     0.94318   0.59276   0.40590   0.00000  Uiso   1.00
H576   H     0.96212   0.61084   0.45986   0.00000  Uiso   1.00
H577   H     0.94115   0.39553   0.31997   0.00000  Uiso   1.00
H578   H     0.93675   0.46270   0.41876   0.00000  Uiso   1.00
H579   H     0.93010   0.34586   0.28822   0.00000  Uiso   1.00
H580   H     0.92257   0.34652   0.34862   0.00000  Uiso   1.00
H581   H     0.81272   0.60511   0.11373   0.00000  Uiso   1.00
H582   H     0.85675   0.61760   0.14895   0.00000  Uiso   1.00
H583   H     0.82217   0.66226   0.13026   0.00000  Uiso   1.00
H584   H     0.72453   0.38991   0.17825   0.00000  Uiso   1.00
H585   H     0.73718   0.33983   0.20809   0.00000  Uiso   1.00
H586   H     0.74664   0.34414   0.14811   0.00000  Uiso   1.00
H587   H     0.81111   0.61841   0.35142   0.00000  Uiso   1.00
H588   H     0.84695   0.66245   0.37041   0.00000  Uiso   1.00
H589   H     0.90364   0.44389   0.37254   0.00000  Uiso   1.00
H590   H     0.85524   0.60501   0.38570   0.00000  Uiso   1.00
H591   H     0.75640   0.46108   0.16402   0.00000  Uiso   1.00
H592   H     0.74601   0.44397   0.10629   0.00000  Uiso   1.00
H593   H     0.70824   0.47429   0.13806   0.00000  Uiso   1.00
H594   H     0.74458   0.58389   0.42478   0.00000  Uiso   1.00
H595   H     0.71157   0.59081   0.47382   0.00000  Uiso   1.00
H596   H     0.68980   0.57694   0.41960   0.00000  Uiso   1.00
N597   N     0.83333   0.61907   0.25000   0.00000  Uiso   1.00
N598   N     0.83333   0.38093   0.25000   0.00000  Uiso   1.00
N599   N     0.72757   0.47971   0.36074   0.00000  Uiso   1.00
N600   N     0.93825   0.48745   0.13571   0.00000  Uiso   1.00
N601   N     0.71835   0.38379   0.28386   0.00000  Uiso   1.00
N602   N     0.94554   0.61891   0.22381   0.00000  Uiso   1.00
N603   N     0.94598   0.38607   0.20847   0.00000  Uiso   1.00
N604   N     0.72293   0.61708   0.28264   0.00000  Uiso   1.00
O605   O     0.77226   0.53821   0.25000   0.00000  Uiso   1.00
O606   O     0.75748   0.51339   0.11820   0.00000  Uiso   1.00
O607   O     0.71880   0.52467   0.45186   0.00000  Uiso   1.00
O608   O     0.94182   0.54045   0.04719   0.00000  Uiso   1.00
O609   O     0.71710   0.51803   0.04438   0.00000  Uiso   1.00
O610   O     0.94110   0.54506   0.45635   0.00000  Uiso   1.00
O611   O     0.87866   0.38278   0.31269   0.00000  Uiso   1.00
O612   O     0.79851   0.61885   0.17953   0.00000  Uiso   1.00
O613   O     0.78747   0.38181   0.18757   0.00000  Uiso   1.00
O614   O     0.86906   0.61970   0.32002   0.00000  Uiso   1.00
O615   O     0.89441   0.46179   0.25001   0.00000  Uiso   1.00
O616   O     0.89441   0.53821   0.25001   0.00000  Uiso   1.00
O617   O     0.77226   0.46179   0.25000   0.00000  Uiso   1.00
O618   O     0.83333   0.53823   0.18393   0.00000  Uiso   1.00
O619   O     0.83334   0.46177   0.31608   0.00000  Uiso   1.00
O620   O     0.83334   0.53823   0.31608   0.00000  Uiso   1.00
O621   O     0.83333   0.46177   0.18393   0.00000  Uiso   1.00
O622   O     0.90635   0.51359   0.38333   0.00000  Uiso   1.00
Zn623  Zn    0.83333   0.55104   0.25000   0.00000  Uiso   1.00
Zn624  Zn    0.83333   0.44896   0.25000   0.00000  Uiso   1.00
C625   C     0.08678   0.83330   0.25396   0.00000  Uiso   1.00
C626   C     0.04215   0.83355   0.25740   0.00000  Uiso   1.00
C627   C     0.18899   0.69122   0.28167   0.00000  Uiso   1.00
C628   C     0.14807   0.97581   0.21574   0.00000  Uiso   1.00
C629   C     0.14430   0.69072   0.21831   0.00000  Uiso   1.00
C630   C     0.18553   0.97626   0.28412   0.00000  Uiso   1.00
C631   C     0.16566   0.83346   0.16354   0.00000  Uiso   1.00
C632   C     0.16701   0.83350   0.33646   0.00000  Uiso   1.00
C633   C     0.20311   0.84460   0.40724   0.00000  Uiso   1.00
C634   C     0.12661   0.84097   0.09349   0.00000  Uiso   1.00
C635   C     0.16603   0.83511   0.38443   0.00000  Uiso   1.00
C636   C     0.24652   0.83355   0.24594   0.00000  Uiso   1.00
C637   C     0.16484   0.83481   0.11551   0.00000  Uiso   1.00
C638   C     0.12774   0.83514   0.40598   0.00000  Uiso   1.00
C639   C     0.20252   0.83836   0.09299   0.00000  Uiso   1.00
C640   C     0.12644   0.84440   0.45224   0.00000  Uiso   1.00
C641   C     0.20223   0.84987   0.04734   0.00000  Uiso   1.00
C642   C     0.16420   0.84894   0.47642   0.00000  Uiso   1.00
C643   C     0.16397   0.84873   0.02350   0.00000  Uiso   1.00
C644   C     0.20234   0.85272   0.45357   0.00000  Uiso   1.00
C645   C     0.12577   0.84583   0.04657   0.00000  Uiso   1.00
C646   C     0.08867   0.85003   0.47510   0.00000  Uiso   1.00
C647   C     0.08792   0.84812   0.02217   0.00000  Uiso   1.00
C648   C     0.23873   0.86301   0.02455   0.00000  Uiso   1.00
C649   C     0.25853   0.80420   0.38440   0.00000  Uiso   1.00
C650   C     0.07524   0.80440   0.13185   0.00000  Uiso   1.00
C651   C     0.09059   0.82291   0.38064   0.00000  Uiso   1.00
C652   C     0.24094   0.82862   0.11686   0.00000  Uiso   1.00
C653   C     0.04989   0.90454   0.44245   0.00000  Uiso   1.00
C654   C     0.27225   0.91815   0.06407   0.00000  Uiso   1.00
C655   C     0.02524   0.81320   0.03487   0.00000  Uiso   1.00
C656   C     0.27099   0.92396   0.44259   0.00000  Uiso   1.00
C657   C     0.03777   0.75039   0.27048   0.00000  Uiso   1.00
C658   C     0.23853   0.86502   0.47777   0.00000  Uiso   1.00
C659   C     0.29390   0.91831   0.23358   0.00000  Uiso   1.00
C660   C     0.29397   0.75185   0.22354   0.00000  Uiso   1.00
C661   C     0.04063   0.91714   0.27090   0.00000  Uiso   1.00
C662   C     0.25290   0.69972   0.31718   0.00000  Uiso   1.00
C663   C     0.15723   0.96005   0.14186   0.00000  Uiso   1.00
C664   C     0.08094   0.69588   0.18060   0.00000  Uiso   1.00
C665   C     0.17758   0.96048   0.35815   0.00000  Uiso   1.00
C666   C     0.02019   0.79247   0.25466   0.00000  Uiso   1.00
C667   C     0.31280   0.87549   0.24529   0.00000  Uiso   1.00
C668   C     0.31244   0.79293   0.24164   0.00000  Uiso   1.00
C669   C     0.02106   0.87510   0.25659   0.00000  Uiso   1.00
C670   C     0.29109   0.83414   0.24190   0.00000  Uiso   1.00
H671   H     0.28552   0.80479   0.36161   0.00000  Uiso   1.00
H672   H     0.24786   0.92082   0.09004   0.00000  Uiso   1.00
H673   H     0.26627   0.94294   0.03679   0.00000  Uiso   1.00
H674   H     0.30224   0.92738   0.08028   0.00000  Uiso   1.00
H675   H     0.04326   0.78148   0.03131   0.00000  Uiso   1.00
H676   H     0.00593   0.81893   0.00437   0.00000  Uiso   1.00
H677   H     0.00362   0.80818   0.06318   0.00000  Uiso   1.00
H678   H     0.24058   0.94016   0.44951   0.00000  Uiso   1.00
H679   H     0.27651   0.92610   0.40590   0.00000  Uiso   1.00
H680   H     0.29545   0.94417   0.45986   0.00000  Uiso   1.00
H681   H     0.27448   0.72886   0.31997   0.00000  Uiso   1.00
H682   H     0.27009   0.79603   0.41876   0.00000  Uiso   1.00
H683   H     0.26343   0.67919   0.28822   0.00000  Uiso   1.00
H684   H     0.25590   0.67986   0.34862   0.00000  Uiso   1.00
H685   H     0.14605   0.93845   0.11373   0.00000  Uiso   1.00
H686   H     0.19008   0.95094   0.14895   0.00000  Uiso   1.00
H687   H     0.15550   0.99559   0.13026   0.00000  Uiso   1.00
H688   H     0.05786   0.72324   0.17825   0.00000  Uiso   1.00
H689   H     0.07051   0.67316   0.20809   0.00000  Uiso   1.00
H690   H     0.07997   0.67747   0.14811   0.00000  Uiso   1.00
H691   H     0.14445   0.95174   0.35142   0.00000  Uiso   1.00
H692   H     0.18028   0.99579   0.37041   0.00000  Uiso   1.00
H693   H     0.23698   0.77723   0.37254   0.00000  Uiso   1.00
H694   H     0.18858   0.93834   0.38570   0.00000  Uiso   1.00
H695   H     0.08973   0.79441   0.16402   0.00000  Uiso   1.00
H696   H     0.07935   0.77731   0.10629   0.00000  Uiso   1.00
H697   H     0.04157   0.80762   0.13806   0.00000  Uiso   1.00
H698   H     0.07791   0.91723   0.42478   0.00000  Uiso   1.00
H699   H     0.04490   0.92415   0.47382   0.00000  Uiso   1.00
H700   H     0.02313   0.91028   0.41960   0.00000  Uiso   1.00
N701   N     0.16667   0.95240   0.25000   0.00000  Uiso   1.00
N702   N     0.16667   0.71427   0.25000   0.00000  Uiso   1.00
N703   N     0.06090   0.81304   0.36074   0.00000  Uiso   1.00
N704   N     0.27158   0.82078   0.13571   0.00000  Uiso   1.00
N705   N     0.05169   0.71712   0.28386   0.00000  Uiso   1.00
N706   N     0.27887   0.95225   0.22381   0.00000  Uiso   1.00
N707   N     0.27931   0.71941   0.20847   0.00000  Uiso   1.00
N708   N     0.05626   0.95041   0.28264   0.00000  Uiso   1.00
O709   O     0.10559   0.87154   0.25000   0.00000  Uiso   1.00
O710   O     0.09081   0.84673   0.11820   0.00000  Uiso   1.00
O711   O     0.05213   0.85800   0.45186   0.00000  Uiso   1.00
O712   O     0.27516   0.87378   0.04719   0.00000  Uiso   1.00
O713   O     0.05043   0.85137   0.04438   0.00000  Uiso   1.00
O714   O     0.27443   0.87840   0.45635   0.00000  Uiso   1.00
O715   O     0.21200   0.71612   0.31269   0.00000  Uiso   1.00
O716   O     0.13184   0.95219   0.17953   0.00000  Uiso   1.00
O717   O     0.12080   0.71514   0.18757   0.00000  Uiso   1.00
O718   O     0.20240   0.95303   0.32002   0.00000  Uiso   1.00
O719   O     0.22774   0.79513   0.25001   0.00000  Uiso   1.00
O720   O     0.22774   0.87154   0.25001   0.00000  Uiso   1.00
O721   O     0.10559   0.79513   0.25000   0.00000  Uiso   1.00
O722   O     0.16666   0.87156   0.18393   0.00000  Uiso   1.00
O723   O     0.16667   0.79511   0.31608   0.00000  Uiso   1.00
O724   O     0.16667   0.87156   0.31608   0.00000  Uiso   1.00
O725   O     0.16666   0.79511   0.18393   0.00000  Uiso   1.00
O726   O     0.23968   0.84693   0.38333   0.00000  Uiso   1.00
Zn727  Zn    0.16667   0.88437   0.25000   0.00000  Uiso   1.00
Zn728  Zn    0.16667   0.78229   0.25000   0.00000  Uiso   1.00
C729   C     0.42011   0.83330   0.25396   0.00000  Uiso   1.00
C730   C     0.37548   0.83355   0.25740   0.00000  Uiso   1.00
C731   C     0.52232   0.69122   0.28167   0.00000  Uiso   1.00
C732   C     0.48140   0.97581   0.21574   0.00000  Uiso   1.00
C733   C     0.47763   0.69072   0.21831   0.00000  Uiso   1.00
C734   C     0.51886   0.97626   0.28412   0.00000  Uiso   1.00
C735   C     0.49899   0.83346   0.16354   0.00000  Uiso   1.00
C736   C     0.50034   0.83350   0.33646   0.00000  Uiso   1.00
C737   C     0.53644   0.84460   0.40724   0.00000  Uiso   1.00
C738   C     0.45994   0.84097   0.09349   0.00000  Uiso   1.00
C739   C     0.49936   0.83511   0.38443   0.00000  Uiso   1.00
C740   C     0.57986   0.83355   0.24594   0.00000  Uiso   1.00
C741   C     0.49817   0.83481   0.11551   0.00000  Uiso   1.00
C742   C     0.46107   0.83514   0.40598   0.00000  Uiso   1.00
C743   C     0.53585   0.83836   0.09299   0.00000  Uiso   1.00
C744   C     0.45978   0.84440   0.45224   0.00000  Uiso   1.00
C745   C     0.53557   0.84987   0.04734   0.00000  Uiso   1.00
C746   C     0.49754   0.84894   0.47642   0.00000  Uiso   1.00
C747   C     0.49731   0.84873   0.02350   0.00000  Uiso   1.00
C748   C     0.53568   0.85272   0.45357   0.00000  Uiso   1.00
C749   C     0.45910   0.84583   0.04657   0.00000  Uiso   1.00
C750   C     0.42200   0.85003   0.47510   0.00000  Uiso   1.00
C751   C     0.42125   0.84812   0.02217   0.00000  Uiso   1.00
C752   C     0.57206   0.86301   0.02455   0.00000  Uiso   1.00
C753   C     0.59187   0.80420   0.38440   0.00000  Uiso   1.00
C754   C     0.40857   0.80440   0.13185   0.00000  Uiso   1.00
C755   C     0.42392   0.82291   0.38064   0.00000  Uiso   1.00
C756   C     0.57427   0.82862   0.11686   0.00000  Uiso   1.00
C757   C     0.38322   0.90454   0.44245   0.00000  Uiso   1.00
C758   C     0.60558   0.91815   0.06407   0.00000  Uiso   1.00
C759   C     0.35857   0.81320   0.03487   0.00000  Uiso   1.00
C760   C     0.60432   0.92396   0.44259   0.00000  Uiso   1.00
C761   C     0.37111   0.75039   0.27048   0.00000  Uiso   1.00
C762   C     0.57186   0.86502   0.47777   0.00000  Uiso   1.00
C763   C     0.62724   0.91831   0.23358   0.00000  Uiso   1.00
C764   C     0.62730   0.75185   0.22354   0.00000  Uiso   1.00
C765   C     0.37396   0.91714   0.27090   0.00000  Uiso   1.00
C766   C     0.58624   0.69972   0.31718   0.00000  Uiso   1.00
C767   C     0.49057   0.96005   0.14186   0.00000  Uiso   1.00
C768   C     0.41427   0.69588   0.18060   0.00000  Uiso   1.00
C769   C     0.51091   0.96048   0.35815   0.00000  Uiso   1.00
C770   C     0.35353   0.79247   0.25466   0.00000  Uiso   1.00
C771   C     0.64614   0.87549   0.24529   0.00000  Uiso   1.00
C772   C     0.64578   0.79293   0.24164   0.00000  Uiso   1.00
C773   C     0.35439   0.87510   0.25659   0.00000  Uiso   1.00
C774   C     0.62442   0.83414   0.24190   0.00000  Uiso   1.00
H775   H     0.61886   0.80479   0.36161   0.00000  Uiso   1.00
H776   H     0.58119   0.92082   0.09004   0.00000  Uiso   1.00
H777   H     0.59960   0.94294   0.03679   0.00000  Uiso   1.00
H778   H     0.63557   0.92738   0.08028   0.00000  Uiso   1.00
H779   H     0.37659   0.78148   0.03131   0.00000  Uiso   1.00
H780   H     0.33926   0.81893   0.00437   0.00000  Uiso   1.00
H781   H     0.33696   0.80818   0.06318   0.00000  Uiso   1.00
H782   H     0.57391   0.94016   0.44951   0.00000  Uiso   1.00
H783   H     0.60985   0.92610   0.40590   0.00000  Uiso   1.00
H784   H     0.62878   0.94417   0.45986   0.00000  Uiso   1.00
H785   H     0.60782   0.72886   0.31997   0.00000  Uiso   1.00
H786   H     0.60342   0.79603   0.41876   0.00000  Uiso   1.00
H787   H     0.59677   0.67919   0.28822   0.00000  Uiso   1.00
H788   H     0.58924   0.67986   0.34862   0.00000  Uiso   1.00
H789   H     0.47938   0.93845   0.11373   0.00000  Uiso   1.00
H790   H     0.52341   0.95094   0.14895   0.00000  Uiso   1.00
H791   H     0.48884   0.99559   0.13026   0.00000  Uiso   1.00
H792   H     0.39120   0.72324   0.17825   0.00000  Uiso   1.00
H793   H     0.40385   0.67316   0.20809   0.00000  Uiso   1.00
H794   H     0.41330   0.67747   0.14811   0.00000  Uiso   1.00
H795   H     0.47778   0.95174   0.35142   0.00000  Uiso   1.00
H796   H     0.51361   0.99579   0.37041   0.00000  Uiso   1.00
H797   H     0.57031   0.77723   0.37254   0.00000  Uiso   1.00
H798   H     0.52191   0.93834   0.38570   0.00000  Uiso   1.00
H799   H     0.42307   0.79441   0.16402   0.00000  Uiso   1.00
H800   H     0.41268   0.77731   0.10629   0.00000  Uiso   1.00
H801   H     0.37490   0.80762   0.13806   0.00000  Uiso   1.00
H802   H     0.41124   0.91723   0.42478   0.00000  Uiso   1.00
H803   H     0.37824   0.92415   0.47382   0.00000  Uiso   1.00
H804   H     0.35646   0.91028   0.41960   0.00000  Uiso   1.00
N805   N     0.50000   0.95240   0.25000   0.00000  Uiso   1.00
N806   N     0.50000   0.71427   0.25000   0.00000  Uiso   1.00
N807   N     0.39424   0.81304   0.36074   0.00000  Uiso   1.00
N808   N     0.60492   0.82078   0.13571   0.00000  Uiso   1.00
N809   N     0.38502   0.71712   0.28386   0.00000  Uiso   1.00
N810   N     0.61220   0.95225   0.22381   0.00000  Uiso   1.00
N811   N     0.61265   0.71941   0.20847   0.00000  Uiso   1.00
N812   N     0.38959   0.95041   0.28264   0.00000  Uiso   1.00
O813   O     0.43892   0.87154   0.25000   0.00000  Uiso   1.00
O814   O     0.42415   0.84673   0.11820   0.00000  Uiso   1.00
O815   O     0.38547   0.85800   0.45186   0.00000  Uiso   1.00
O816   O     0.60849   0.87378   0.04719   0.00000  Uiso   1.00
O817   O     0.38377   0.85137   0.04438   0.00000  Uiso   1.00
O818   O     0.60776   0.87840   0.45635   0.00000  Uiso   1.00
O819   O     0.54533   0.71612   0.31269   0.00000  Uiso   1.00
O820   O     0.46517   0.95219   0.17953   0.00000  Uiso   1.00
O821   O     0.45413   0.71514   0.18757   0.00000  Uiso   1.00
O822   O     0.53573   0.95303   0.32002   0.00000  Uiso   1.00
O823   O     0.56108   0.79513   0.25001   0.00000  Uiso   1.00
O824   O     0.56108   0.87154   0.25001   0.00000  Uiso   1.00
O825   O     0.43892   0.79513   0.25000   0.00000  Uiso   1.00
O826   O     0.49999   0.87156   0.18393   0.00000  Uiso   1.00
O827   O     0.50001   0.79511   0.31608   0.00000  Uiso   1.00
O828   O     0.50001   0.87156   0.31608   0.00000  Uiso   1.00
O829   O     0.49999   0.79511   0.18393   0.00000  Uiso   1.00
O830   O     0.57301   0.84693   0.38333   0.00000  Uiso   1.00
Zn831  Zn    0.50000   0.88437   0.25000   0.00000  Uiso   1.00
Zn832  Zn    0.50000   0.78229   0.25000   0.00000  Uiso   1.00
C833   C     0.75344   0.83330   0.25396   0.00000  Uiso   1.00
C834   C     0.70882   0.83355   0.25740   0.00000  Uiso   1.00
C835   C     0.85565   0.69122   0.28167   0.00000  Uiso   1.00
C836   C     0.81473   0.97581   0.21574   0.00000  Uiso   1.00
C837   C     0.81097   0.69072   0.21831   0.00000  Uiso   1.00
C838   C     0.85220   0.97626   0.28412   0.00000  Uiso   1.00
C839   C     0.83233   0.83346   0.16354   0.00000  Uiso   1.00
C840   C     0.83367   0.83350   0.33646   0.00000  Uiso   1.00
C841   C     0.86977   0.84460   0.40724   0.00000  Uiso   1.00
C842   C     0.79328   0.84097   0.09349   0.00000  Uiso   1.00
C843   C     0.83270   0.83511   0.38443   0.00000  Uiso   1.00
C844   C     0.91319   0.83355   0.24594   0.00000  Uiso   1.00
C845   C     0.83150   0.83481   0.11551   0.00000  Uiso   1.00
C846   C     0.79440   0.83514   0.40598   0.00000  Uiso   1.00
C847   C     0.86918   0.83836   0.09299   0.00000  Uiso   1.00
C848   C     0.79311   0.84440   0.45224   0.00000  Uiso   1.00
C849   C     0.86890   0.84987   0.04734   0.00000  Uiso   1.00
C850   C     0.83087   0.84894   0.47642   0.00000  Uiso   1.00
C851   C     0.83064   0.84873   0.02350   0.00000  Uiso   1.00
C852   C     0.86901   0.85272   0.45357   0.00000  Uiso   1.00
C853   C     0.79243   0.84583   0.04657   0.00000  Uiso   1.00
C854   C     0.75533   0.85003   0.47510   0.00000  Uiso   1.00
C855   C     0.75459   0.84812   0.02217   0.00000  Uiso   1.00
C856   C     0.90539   0.86301   0.02455   0.00000  Uiso   1.00
C857   C     0.92520   0.80420   0.38440   0.00000  Uiso   1.00
C858   C     0.74191   0.80440   0.13185   0.00000  Uiso   1.00
C859   C     0.75726   0.82291   0.38064   0.00000  Uiso   1.00
C860   C     0.90761   0.82862   0.11686   0.00000  Uiso   1.00
C861   C     0.71655   0.90454   0.44245   0.00000  Uiso   1.00
C862   C     0.93892   0.91815   0.06407   0.00000  Uiso   1.00
C863   C     0.69191   0.81320   0.03487   0.00000  Uiso   1.00
C864   C     0.93766   0.92396   0.44259   0.00000  Uiso   1.00
C865   C     0.70444   0.75039   0.27048   0.00000  Uiso   1.00
C866   C     0.90519   0.86502   0.47777   0.00000  Uiso   1.00
C867   C     0.96057   0.91831   0.23358   0.00000  Uiso   1.00
C868   C     0.96064   0.75185   0.22354   0.00000  Uiso   1.00
C869   C     0.70730   0.91714   0.27090   0.00000  Uiso   1.00
C870   C     0.91957   0.69972   0.31718   0.00000  Uiso   1.00
C871   C     0.82390   0.96005   0.14186   0.00000  Uiso   1.00
C872   C     0.74760   0.69588   0.18060   0.00000  Uiso   1.00
C873   C     0.84425   0.96048   0.35815   0.00000  Uiso   1.00
C874   C     0.68686   0.79247   0.25466   0.00000  Uiso   1.00
C875   C     0.97947   0.87549   0.24529   0.00000  Uiso   1.00
C876   C     0.97911   0.79293   0.24164   0.00000  Uiso   1.00
C877   C     0.68772   0.87510   0.25659   0.00000  Uiso   1.00
C878   C     0.95776   0.83414   0.24190   0.00000  Uiso   1.00
H879   H     0.95219   0.80479   0.36161   0.00000  Uiso   1.00
H880   H     0.91452   0.92082   0.09004   0.00000  Uiso   1.00
H881   H     0.93294   0.94294   0.03679   0.00000  Uiso   1.00
H882   H     0.96890   0.92738   0.08028   0.00000  Uiso   1.00
H883   H     0.70992   0.78148   0.03131   0.00000  Uiso   1.00
H884   H     0.67260   0.81893   0.00437   0.00000  Uiso   1.00
H885   H     0.67029   0.80818   0.06318   0.00000  Uiso   1.00
H886   H     0.90725   0.94016   0.44951   0.00000  Uiso   1.00
H887   H     0.94318   0.92610   0.40590   0.00000  Uiso   1.00
H888   H     0.96212   0.94417   0.45986   0.00000  Uiso   1.00
H889   H     0.94115   0.72886   0.31997   0.00000  Uiso   1.00
H890   H     0.93675   0.79603   0.41876   0.00000  Uiso   1.00
H891   H     0.93010   0.67919   0.28822   0.00000  Uiso   1.00
H892   H     0.92257   0.67986   0.34862   0.00000  Uiso   1.00
H893   H     0.81272   0.93845   0.11373   0.00000  Uiso   1.00
H894   H     0.85675   0.95094   0.14895   0.00000  Uiso   1.00
H895   H     0.82217   0.99559   0.13026   0.00000  Uiso   1.00
H896   H     0.72453   0.72324   0.17825   0.00000  Uiso   1.00
H897   H     0.73718   0.67316   0.20809   0.00000  Uiso   1.00
H898   H     0.74664   0.67747   0.14811   0.00000  Uiso   1.00
H899   H     0.81111   0.95174   0.35142   0.00000  Uiso   1.00
H900   H     0.84695   0.99579   0.37041   0.00000  Uiso   1.00
H901   H     0.90364   0.77723   0.37254   0.00000  Uiso   1.00
H902   H     0.85524   0.93834   0.38570   0.00000  Uiso   1.00
H903   H     0.75640   0.79441   0.16402   0.00000  Uiso   1.00
H904   H     0.74601   0.77731   0.10629   0.00000  Uiso   1.00
H905   H     0.70824   0.80762   0.13806   0.00000  Uiso   1.00
H906   H     0.74458   0.91723   0.42478   0.00000  Uiso   1.00
H907   H     0.71157   0.92415   0.47382   0.00000  Uiso   1.00
H908   H     0.68980   0.91028   0.41960   0.00000  Uiso   1.00
N909   N     0.83333   0.95240   0.25000   0.00000  Uiso   1.00
N910   N     0.83333   0.71427   0.25000   0.00000  Uiso   1.00
N911   N     0.72757   0.81304   0.36074   0.00000  Uiso   1.00
N912   N     0.93825   0.82078   0.13571   0.00000  Uiso   1.00
N913   N     0.71835   0.71712   0.28386   0.00000  Uiso   1.00
N914   N     0.94554   0.95225   0.22381   0.00000  Uiso   1.00
N915   N     0.94598   0.71941   0.20847   0.00000  Uiso   1.00
N916   N     0.72293   0.95041   0.28264   0.00000  Uiso   1.00
O917   O     0.77226   0.87154   0.25000   0.00000  Uiso   1.00
O918   O     0.75748   0.84673   0.11820   0.00000  Uiso   1.00
O919   O     0.71880   0.85800   0.45186   0.00000  Uiso   1.00
O920   O     0.94182   0.87378   0.04719   0.00000  Uiso   1.00
O921   O     0.71710   0.85137   0.04438   0.00000  Uiso   1.00
O922   O     0.94110   0.87840   0.45635   0.00000  Uiso   1.00
O923   O     0.87866   0.71612   0.31269   0.00000  Uiso   1.00
O924   O     0.79851   0.95219   0.17953   0.00000  Uiso   1.00
O925   O     0.78747   0.71514   0.18757   0.00000  Uiso   1.00
O926   O     0.86906   0.95303   0.32002   0.00000  Uiso   1.00
O927   O     0.89441   0.79513   0.25001   0.00000  Uiso   1.00
O928   O     0.89441   0.87154   0.25001   0.00000  Uiso   1.00
O929   O     0.77226   0.79513   0.25000   0.00000  Uiso   1.00
O930   O     0.83333   0.87156   0.18393   0.00000  Uiso   1.00
O931   O     0.83334   0.79511   0.31608   0.00000  Uiso   1.00
O932   O     0.83334   0.87156   0.31608   0.00000  Uiso   1.00
O933   O     0.83333   0.79511   0.18393   0.00000  Uiso   1.00
O934   O     0.90635   0.84693   0.38333   0.00000  Uiso   1.00
Zn935  Zn    0.83333   0.88437   0.25000   0.00000  Uiso   1.00
Zn936  Zn    0.83333   0.78229   0.25000   0.00000  Uiso   1.00
C937   C     0.08678   0.16663   0.75396   0.00000  Uiso   1.00
C938   C     0.04215   0.16689   0.75740   0.00000  Uiso   1.00
C939   C     0.18899   0.02455   0.78167   0.00000  Uiso   1.00
C940   C     0.14807   0.30915   0.71574   0.00000  Uiso   1.00
C941   C     0.14430   0.02405   0.71831   0.00000  Uiso   1.00
C942   C     0.18553   0.30959   0.78412   0.00000  Uiso   1.00
C943   C     0.16566   0.16680   0.66354   0.00000  Uiso   1.00
C944   C     0.16701   0.16684   0.83646   0.00000  Uiso   1.00
C945   C     0.20311   0.17793   0.90724   0.00000  Uiso   1.00
C946   C     0.12661   0.17430   0.59349   0.00000  Uiso   1.00
C947   C     0.16603   0.16844   0.88443   0.00000  Uiso   1.00
C948   C     0.24652   0.16688   0.74594   0.00000  Uiso   1.00
C949   C     0.16484   0.16815   0.61551   0.00000  Uiso   1.00
C950   C     0.12774   0.16847   0.90598   0.00000  Uiso   1.00
C951   C     0.20252   0.17169   0.59299   0.00000  Uiso   1.00
C952   C     0.12644   0.17773   0.95224   0.00000  Uiso   1.00
C953   C     0.20223   0.18320   0.54734   0.00000  Uiso   1.00
C954   C     0.16420   0.18227   0.97642   0.00000  Uiso   1.00
C955   C     0.16397   0.18207   0.52350   0.00000  Uiso   1.00
C956   C     0.20234   0.18605   0.95357   0.00000  Uiso   1.00
C957   C     0.12577   0.17917   0.54657   0.00000  Uiso   1.00
C958   C     0.08867   0.18336   0.97510   0.00000  Uiso   1.00
C959   C     0.08792   0.18145   0.52217   0.00000  Uiso   1.00
C960   C     0.23873   0.19635   0.52455   0.00000  Uiso   1.00
C961   C     0.25853   0.13753   0.88440   0.00000  Uiso   1.00
C962   C     0.07524   0.13773   0.63185   0.00000  Uiso   1.00
C963   C     0.09059   0.15624   0.88064   0.00000  Uiso   1.00
C964   C     0.24094   0.16195   0.61686   0.00000  Uiso   1.00
C965   C     0.04989   0.23787   0.94245   0.00000  Uiso   1.00
C966   C     0.27225   0.25149   0.56407   0.00000  Uiso   1.00
C967   C     0.02524   0.14653   0.53487   0.00000  Uiso   1.00
C968   C     0.27099   0.25729   0.94259   0.00000  Uiso   1.00
C969   C     0.03777   0.08372   0.77048   0.00000  Uiso   1.00
C970   C     0.23853   0.19835   0.97777   0.00000  Uiso   1.00
C971   C     0.29390   0.25165   0.73358   0.00000  Uiso   1.00
C972   C     0.29397   0.08519   0.72354   0.00000  Uiso   1.00
C973   C     0.04063   0.25048   0.77090   0.00000  Uiso   1.00
C974   C     0.25290   0.03306   0.81718   0.00000  Uiso   1.00
C975   C     0.15723   0.29338   0.64186   0.00000  Uiso   1.00
C976   C     0.08094   0.02921   0.68060   0.00000  Uiso   1.00
C977   C     0.17758   0.29381   0.85815   0.00000  Uiso   1.00
C978   C     0.02019   0.12580   0.75466   0.00000  Uiso   1.00
C979   C     0.31280   0.20882   0.74529   0.00000  Uiso   1.00
C980   C     0.31244   0.12627   0.74164   0.00000  Uiso   1.00
C981   C     0.02106   0.20843   0.75659   0.00000  Uiso   1.00
C982   C     0.29109   0.16747   0.74190   0.00000  Uiso   1.00
H983   H     0.28552   0.13813   0.86161   0.00000  Uiso   1.00
H984   H     0.24786   0.25416   0.59004   0.00000  Uiso   1.00
H985   H     0.26627   0.27627   0.53679   0.00000  Uiso   1.00
H986   H     0.30224   0.26071   0.58028   0.00000  Uiso   1.00
H987   H     0.04326   0.11481   0.53131   0.00000  Uiso   1.00
H988   H     0.00593   0.15226   0.50437   0.00000  Uiso   1.00
H989   H     0.00362   0.14152   0.56318   0.00000  Uiso   1.00
H990   H     0.24058   0.27349   0.94951   0.00000  Uiso   1.00
H991   H     0.27651   0.25943   0.90590   0.00000  Uiso   1.00
H992   H     0.29545   0.27750   0.95986   0.00000  Uiso   1.00
H993   H     0.27448   0.06219   0.81997   0.00000  Uiso   1.00
H994   H     0.27009   0.12936   0.91876   0.00000  Uiso   1.00
H995   H     0.26343   0.01252   0.78822   0.00000  Uiso   1.00
H996   H     0.25590   0.01319   0.84862   0.00000  Uiso   1.00
H997   H     0.14605   0.27178   0.61373   0.00000  Uiso   1.00
H998   H     0.19008   0.28427   0.64895   0.00000  Uiso   1.00
H999   H     0.15550   0.32892   0.63026   0.00000  Uiso   1.00
H1000  H     0.05786   0.05658   0.67825   0.00000  Uiso   1.00
H1001  H     0.07051   0.00650   0.70809   0.00000  Uiso   1.00
H1002  H     0.07997   0.01081   0.64811   0.00000  Uiso   1.00
H1003  H     0.14445   0.28508   0.85142   0.00000  Uiso   1.00
H1004  H     0.18028   0.32912   0.87041   0.00000  Uiso   1.00
H1005  H     0.23698   0.11056   0.87254   0.00000  Uiso   1.00
H1006  H     0.18858   0.27168   0.88570   0.00000  Uiso   1.00
H1007  H     0.08973   0.12775   0.66402   0.00000  Uiso   1.00
H1008  H     0.07935   0.11064   0.60629   0.00000  Uiso   1.00
H1009  H     0.04157   0.14096   0.63806   0.00000  Uiso   1.00
H1010  H     0.07791   0.25056   0.92478   0.00000  Uiso   1.00
H1011  H     0.04490   0.25748   0.97382   0.00000  Uiso   1.00
H1012  H     0.02313   0.24361   0.91960   0.00000  Uiso   1.00
N1013  N     0.16667   0.28573   0.75000   0.00000  Uiso   1.00
N1014  N     0.16667   0.04760   0.75000   0.00000  Uiso   1.00
N1015  N     0.06090   0.14638   0.86074   0.00000  Uiso   1.00
N1016  N     0.27158   0.15411   0.63571   0.00000  Uiso   1.00
N1017  N     0.05169   0.05046   0.78386   0.00000  Uiso   1.00
N1018  N     0.27887   0.28558   0.72381   0.00000  Uiso   1.00
N1019  N     0.27931   0.05274   0.70847   0.00000  Uiso   1.00
N1020  N     0.05626   0.28375   0.78264   0.00000  Uiso   1.00
O1021  O     0.10559   0.20487   0.75000   0.00000  Uiso   1.00
O1022  O     0.09081   0.18006   0.61820   0.00000  Uiso   1.00
O1023  O     0.05213   0.19134   0.95186   0.00000  Uiso   1.00
O1024  O     0.27516   0.20712   0.54719   0.00000  Uiso   1.00
O1025  O     0.05043   0.18470   0.54438   0.00000  Uiso   1.00
O1026  O     0.27443   0.21173   0.95635   0.00000  Uiso   1.00
O1027  O     0.21200   0.04945   0.81269   0.00000  Uiso   1.00
O1028  O     0.13184   0.28552   0.67953   0.00000  Uiso   1.00
O1029  O     0.12080   0.04848   0.68757   0.00000  Uiso   1.00
O1030  O     0.20240   0.28637   0.82002   0.00000  Uiso   1.00
O1031  O     0.22774   0.12846   0.75001   0.00000  Uiso   1.00
O1032  O     0.22774   0.20487   0.75001   0.00000  Uiso   1.00
O1033  O     0.10559   0.12846   0.75000   0.00000  Uiso   1.00
O1034  O     0.16666   0.20489   0.68393   0.00000  Uiso   1.00
O1035  O     0.16667   0.12844   0.81608   0.00000  Uiso   1.00
O1036  O     0.16667   0.20489   0.81608   0.00000  Uiso   1.00
O1037  O     0.16666   0.12844   0.68393   0.00000  Uiso   1.00
O1038  O     0.23968   0.18026   0.88333   0.00000  Uiso   1.00
Zn1039 Zn    0.16667   0.21771   0.75000   0.00000  Uiso   1.00
Zn1040 Zn    0.16667   0.11563   0.75000   0.00000  Uiso   1.00
C1041  C     0.42011   0.16663   0.75396   0.00000  Uiso   1.00
C1042  C     0.37548   0.16689   0.75740   0.00000  Uiso   1.00
C1043  C     0.52232   0.02455   0.78167   0.00000  Uiso   1.00
C1044  C     0.48140   0.30915   0.71574   0.00000  Uiso   1.00
C1045  C     0.47763   0.02405   0.71831   0.00000  Uiso   1.00
C1046  C     0.51886   0.30959   0.78412   0.00000  Uiso   1.00
C1047  C     0.49899   0.16680   0.66354   0.00000  Uiso   1.00
C1048  C     0.50034   0.16684   0.83646   0.00000  Uiso   1.00
C1049  C     0.53644   0.17793   0.90724   0.00000  Uiso   1.00
C1050  C     0.45994   0.17430   0.59349   0.00000  Uiso   1.00
C1051  C     0.49936   0.16844   0.88443   0.00000  Uiso   1.00
C1052  C     0.57986   0.16688   0.74594   0.00000  Uiso   1.00
C1053  C     0.49817   0.16815   0.61551   0.00000  Uiso   1.00
C1054  C     0.46107   0.16847   0.90598   0.00000  Uiso   1.00
C1055  C     0.53585   0.17169   0.59299   0.00000  Uiso   1.00
C1056  C     0.45978   0.17773   0.95224   0.00000  Uiso   1.00
C1057  C     0.53557   0.18320   0.54734   0.00000  Uiso   1.00
C1058  C     0.49754   0.18227   0.97642   0.00000  Uiso   1.00
C1059  C     0.49731   0.18207   0.52350   0.00000  Uiso   1.00
C1060  C     0.53568   0.18605   0.95357   0.00000  Uiso   1.00
C1061  C     0.45910   0.17917   0.54657   0.00000  Uiso   1.00
C1062  C     0.42200   0.18336   0.97510   0.00000  Uiso   1.00
C1063  C     0.42125   0.18145   0.52217   0.00000  Uiso   1.00
C1064  C     0.57206   0.19635   0.52455   0.00000  Uiso   1.00
C1065  C     0.59187   0.13753   0.88440   0.00000  Uiso   1.00
C1066  C     0.40857   0.13773   0.63185   0.00000  Uiso   1.00
C1067  C     0.42392   0.15624   0.88064   0.00000  Uiso   1.00
C1068  C     0.57427   0.16195   0.61686   0.00000  Uiso   1.00
C1069  C     0.38322   0.23787   0.94245   0.00000  Uiso   1.00
C1070  C     0.60558   0.25149   0.56407   0.00000  Uiso   1.00
C1071  C     0.35857   0.14653   0.53487   0.00000  Uiso   1.00
C1072  C     0.60432   0.25729   0.94259   0.00000  Uiso   1.00
C1073  C     0.37111   0.08372   0.77048   0.00000  Uiso   1.00
C1074  C     0.57186   0.19835   0.97777   0.00000  Uiso   1.00
C1075  C     0.62724   0.25165   0.73358   0.00000  Uiso   1.00
C1076  C     0.62730   0.08519   0.72354   0.00000  Uiso   1.00
C1077  C     0.37396   0.25048   0.77090   0.00000  Uiso   1.00
C1078  C     0.58624   0.03306   0.81718   0.00000  Uiso   1.00
C1079  C     0.49057   0.29338   0.64186   0.00000  Uiso   1.00
C1080  C     0.41427   0.02921   0.68060   0.00000  Uiso   1.00
C1081  C     0.51091   0.29381   0.85815   0.00000  Uiso   1.00
C1082  C     0.35353   0.12580   0.75466   0.00000  Uiso   1.00
C1083  C     0.64614   0.20882   0.74529   0.00000  Uiso   1.00
C1084  C     0.64578   0.12627   0.74164   0.00000  Uiso   1.00
C1085  C     0.35439   0.20843   0.75659   0.00000  Uiso   1.00
C1086  C     0.62442   0.16747   0.74190   0.00000  Uiso   1.00
H1087  H     0.61886   0.13813   0.86161   0.00000  Uiso   1.00
H1088  H     0.58119   0.25416   0.59004   0.00000  Uiso   1.00
H1089  H     0.59960   0.27627   0.53679   0.00000  Uiso   1.00
H1090  H     0.63557   0.26071   0.58028   0.00000  Uiso   1.00
H1091  H     0.37659   0.11481   0.53131   0.00000  Uiso   1.00
H1092  H     0.33926   0.15226   0.50437   0.00000  Uiso   1.00
H1093  H     0.33696   0.14152   0.56318   0.00000  Uiso   1.00
H1094  H     0.57391   0.27349   0.94951   0.00000  Uiso   1.00
H1095  H     0.60985   0.25943   0.90590   0.00000  Uiso   1.00
H1096  H     0.62878   0.27750   0.95986   0.00000  Uiso   1.00
H1097  H     0.60782   0.06219   0.81997   0.00000  Uiso   1.00
H1098  H     0.60342   0.12936   0.91876   0.00000  Uiso   1.00
H1099  H     0.59677   0.01252   0.78822   0.00000  Uiso   1.00
H1100  H     0.58924   0.01319   0.84862   0.00000  Uiso   1.00
H1101  H     0.47938   0.27178   0.61373   0.00000  Uiso   1.00
H1102  H     0.52341   0.28427   0.64895   0.00000  Uiso   1.00
H1103  H     0.48884   0.32892   0.63026   0.00000  Uiso   1.00
H1104  H     0.39120   0.05658   0.67825   0.00000  Uiso   1.00
H1105  H     0.40385   0.00650   0.70809   0.00000  Uiso   1.00
H1106  H     0.41330   0.01081   0.64811   0.00000  Uiso   1.00
H1107  H     0.47778   0.28508   0.85142   0.00000  Uiso   1.00
H1108  H     0.51361   0.32912   0.87041   0.00000  Uiso   1.00
H1109  H     0.57031   0.11056   0.87254   0.00000  Uiso   1.00
H1110  H     0.52191   0.27168   0.88570   0.00000  Uiso   1.00
H1111  H     0.42307   0.12775   0.66402   0.00000  Uiso   1.00
H1112  H     0.41268   0.11064   0.60629   0.00000  Uiso   1.00
H1113  H     0.37490   0.14096   0.63806   0.00000  Uiso   1.00
H1114  H     0.41124   0.25056   0.92478   0.00000  Uiso   1.00
H1115  H     0.37824   0.25748   0.97382   0.00000  Uiso   1.00
H1116  H     0.35646   0.24361   0.91960   0.00000  Uiso   1.00
N1117  N     0.50000   0.28573   0.75000   0.00000  Uiso   1.00
N1118  N     0.50000   0.04760   0.75000   0.00000  Uiso   1.00
N1119  N     0.39424   0.14638   0.86074   0.00000  Uiso   1.00
N1120  N     0.60492   0.15411   0.63571   0.00000  Uiso   1.00
N1121  N     0.38502   0.05046   0.78386   0.00000  Uiso   1.00
N1122  N     0.61220   0.28558   0.72381   0.00000  Uiso   1.00
N1123  N     0.61265   0.05274   0.70847   0.00000  Uiso   1.00
N1124  N     0.38959   0.28375   0.78264   0.00000  Uiso   1.00
O1125  O     0.43892   0.20487   0.75000   0.00000  Uiso   1.00
O1126  O     0.42415   0.18006   0.61820   0.00000  Uiso   1.00
O1127  O     0.38547   0.19134   0.95186   0.00000  Uiso   1.00
O1128  O     0.60849   0.20712   0.54719   0.00000  Uiso   1.00
O1129  O     0.38377   0.18470   0.54438   0.00000  Uiso   1.00
O1130  O     0.60776   0.21173   0.95635   0.00000  Uiso   1.00
O1131  O     0.54533   0.04945   0.81269   0.00000  Uiso   1.00
O1132  O     0.46517   0.28552   0.67953   0.00000  Uiso   1.00
O1133  O     0.45413   0.04848   0.68757   0.00000  Uiso   1.00
O1134  O     0.53573   0.28637   0.82002   0.00000  Uiso   1.00
O1135  O     0.56108   0.12846   0.75001   0.00000  Uiso   1.00
O1136  O     0.56108   0.20487   0.75001   0.00000  Uiso   1.00
O1137  O     0.43892   0.12846   0.75000   0.00000  Uiso   1.00
O1138  O     0.49999   0.20489   0.68393   0.00000  Uiso   1.00
O1139  O     0.50001   0.12844   0.81608   0.00000  Uiso   1.00
O1140  O     0.50001   0.20489   0.81608   0.00000  Uiso   1.00
O1141  O     0.49999   0.12844   0.68393   0.00000  Uiso   1.00
O1142  O     0.57301   0.18026   0.88333   0.00000  Uiso   1.00
Zn1143 Zn    0.50000   0.21771   0.75000   0.00000  Uiso   1.00
Zn1144 Zn    0.50000   0.11563   0.75000   0.00000  Uiso   1.00
C1145  C     0.75344   0.16663   0.75396   0.00000  Uiso   1.00
C1146  C     0.70882   0.16689   0.75740   0.00000  Uiso   1.00
C1147  C     0.85565   0.02455   0.78167   0.00000  Uiso   1.00
C1148  C     0.81473   0.30915   0.71574   0.00000  Uiso   1.00
C1149  C     0.81097   0.02405   0.71831   0.00000  Uiso   1.00
C1150  C     0.85220   0.30959   0.78412   0.00000  Uiso   1.00
C1151  C     0.83233   0.16680   0.66354   0.00000  Uiso   1.00
C1152  C     0.83367   0.16684   0.83646   0.00000  Uiso   1.00
C1153  C     0.86977   0.17793   0.90724   0.00000  Uiso   1.00
C1154  C     0.79328   0.17430   0.59349   0.00000  Uiso   1.00
C1155  C     0.83270   0.16844   0.88443   0.00000  Uiso   1.00
C1156  C     0.91319   0.16688   0.74594   0.00000  Uiso   1.00
C1157  C     0.83150   0.16815   0.61551   0.00000  Uiso   1.00
C1158  C     0.79440   0.16847   0.90598   0.00000  Uiso   1.00
C1159  C     0.86918   0.17169   0.59299   0.00000  Uiso   1.00
C1160  C     0.79311   0.17773   0.95224   0.00000  Uiso   1.00
C1161  C     0.86890   0.18320   0.54734   0.00000  Uiso   1.00
C1162  C     0.83087   0.18227   0.97642   0.00000  Uiso   1.00
C1163  C     0.83064   0.18207   0.52350   0.00000  Uiso   1.00
C1164  C     0.86901   0.18605   0.95357   0.00000  Uiso   1.00
C1165  C     0.79243   0.17917   0.54657   0.00000  Uiso   1.00
C1166  C     0.75533   0.18336   0.97510   0.00000  Uiso   1.00
C1167  C     0.75459   0.18145   0.52217   0.00000  Uiso   1.00
C1168  C     0.90539   0.19635   0.52455   0.00000  Uiso   1.00
C1169  C     0.92520   0.13753   0.88440   0.00000  Uiso   1.00
C1170  C     0.74191   0.13773   0.63185   0.00000  Uiso   1.00
C1171  C     0.75726   0.15624   0.88064   0.00000  Uiso   1.00
C1172  C     0.90761   0.16195   0.61686   0.00000  Uiso   1.00
C1173  C     0.71655   0.23787   0.94245   0.00000  Uiso   1.00
C1174  C     0.93892   0.25149   0.56407   0.00000  Uiso   1.00
C1175  C     0.69191   0.14653   0.53487   0.00000  Uiso   1.00
C1176  C     0.93766   0.25729   0.94259   0.00000  Uiso   1.00
C1177  C     0.70444   0.08372   0.77048   0.00000  Uiso   1.00
C1178  C     0.90519   0.19835   0.97777   0.00000  Uiso   1.00
C1179  C     0.96057   0.25165   0.73358   0.00000  Uiso   1.00
C1180  C     0.96064   0.08519   0.72354   0.00000  Uiso   1.00
C1181  C     0.70730   0.25048   0.77090   0.00000  Uiso   1.00
C1182  C     0.91957   0.03306   0.81718   0.00000  Uiso   1.00
C1183  C     0.82390   0.29338   0.64186   0.00000  Uiso   1.00
C1184  C     0.74760   0.02921   0.68060   0.00000  Uiso   1.00
C1185  C     0.84425   0.29381   0.85815   0.00000  Uiso   1.00
C1186  C     0.68686   0.12580   0.75466   0.00000  Uiso   1.00
C1187  C     0.97947   0.20882   0.74529   0.00000  Uiso   1.00
C1188  C     0.97911   0.12627   0.74164   0.00000  Uiso   1.00
C1189  C     0.68772   0.20843   0.75659   0.00000  Uiso   1.00
C1190  C     0.95776   0.16747   0.74190   0.00000  Uiso   1.00
H1191  H     0.95219   0.13813   0.86161   0.00000  Uiso   1.00
H1192  H     0.91452   0.25416   0.59004   0.00000  Uiso   1.00
H1193  H     0.93294   0.27627   0.53679   0.00000  Uiso   1.00
H1194  H     0.96890   0.26071   0.58028   0.00000  Uiso   1.00
H1195  H     0.70992   0.11481   0.53131   0.00000  Uiso   1.00
H1196  H     0.67260   0.15226   0.50437   0.00000  Uiso   1.00
H1197  H     0.67029   0.14152   0.56318   0.00000  Uiso   1.00
H1198  H     0.90725   0.27349   0.94951   0.00000  Uiso   1.00
H1199  H     0.94318   0.25943   0.90590   0.00000  Uiso   1.00
H1200  H     0.96212   0.27750   0.95986   0.00000  Uiso   1.00
H1201  H     0.94115   0.06219   0.81997   0.00000  Uiso   1.00
H1202  H     0.93675   0.12936   0.91876   0.00000  Uiso   1.00
H1203  H     0.93010   0.01252   0.78822   0.00000  Uiso   1.00
H1204  H     0.92257   0.01319   0.84862   0.00000  Uiso   1.00
H1205  H     0.81272   0.27178   0.61373   0.00000  Uiso   1.00
H1206  H     0.85675   0.28427   0.64895   0.00000  Uiso   1.00
H1207  H     0.82217   0.32892   0.63026   0.00000  Uiso   1.00
H1208  H     0.72453   0.05658   0.67825   0.00000  Uiso   1.00
H1209  H     0.73718   0.00650   0.70809   0.00000  Uiso   1.00
H1210  H     0.74664   0.01081   0.64811   0.00000  Uiso   1.00
H1211  H     0.81111   0.28508   0.85142   0.00000  Uiso   1.00
H1212  H     0.84695   0.32912   0.87041   0.00000  Uiso   1.00
H1213  H     0.90364   0.11056   0.87254   0.00000  Uiso   1.00
H1214  H     0.85524   0.27168   0.88570   0.00000  Uiso   1.00
H1215  H     0.75640   0.12775   0.66402   0.00000  Uiso   1.00
H1216  H     0.74601   0.11064   0.60629   0.00000  Uiso   1.00
H1217  H     0.70824   0.14096   0.63806   0.00000  Uiso   1.00
H1218  H     0.74458   0.25056   0.92478   0.00000  Uiso   1.00
H1219  H     0.71157   0.25748   0.97382   0.00000  Uiso   1.00
H1220  H     0.68980   0.24361   0.91960   0.00000  Uiso   1.00
N1221  N     0.83333   0.28573   0.75000   0.00000  Uiso   1.00
N1222  N     0.83333   0.04760   0.75000   0.00000  Uiso   1.00
N1223  N     0.72757   0.14638   0.86074   0.00000  Uiso   1.00
N1224  N     0.93825   0.15411   0.63571   0.00000  Uiso   1.00
N1225  N     0.71835   0.05046   0.78386   0.00000  Uiso   1.00
N1226  N     0.94554   0.28558   0.72381   0.00000  Uiso   1.00
N1227  N     0.94598   0.05274   0.70847   0.00000  Uiso   1.00
N1228  N     0.72293   0.28375   0.78264   0.00000  Uiso   1.00
O1229  O     0.77226   0.20487   0.75000   0.00000  Uiso   1.00
O1230  O     0.75748   0.18006   0.61820   0.00000  Uiso   1.00
O1231  O     0.71880   0.19134   0.95186   0.00000  Uiso   1.00
O1232  O     0.94182   0.20712   0.54719   0.00000  Uiso   1.00
O1233  O     0.71710   0.18470   0.54438   0.00000  Uiso   1.00
O1234  O     0.94110   0.21173   0.95635   0.00000  Uiso   1.00
O1235  O     0.87866   0.04945   0.81269   0.00000  Uiso   1.00
O1236  O     0.79851   0.28552   0.67953   0.00000  Uiso   1.00
O1237  O     0.78747   0.04848   0.68757   0.00000  Uiso   1.00
O1238  O     0.86906   0.28637   0.82002   0.00000  Uiso   1.00
O1239  O     0.89441   0.12846   0.75001   0.00000  Uiso   1.00
O1240  O     0.89441   0.20487   0.75001   0.00000  Uiso   1.00
O1241  O     0.77226   0.12846   0.75000   0.00000  Uiso   1.00
O1242  O     0.83333   0.20489   0.68393   0.00000  Uiso   1.00
O1243  O     0.83334   0.12844   0.81608   0.00000  Uiso   1.00
O1244  O     0.83334   0.20489   0.81608   0.00000  Uiso   1.00
O1245  O     0.83333   0.12844   0.68393   0.00000  Uiso   1.00
O1246  O     0.90635   0.18026   0.88333   0.00000  Uiso   1.00
Zn1247 Zn    0.83333   0.21771   0.75000   0.00000  Uiso   1.00
Zn1248 Zn    0.83333   0.11563   0.75000   0.00000  Uiso   1.00
C1249  C     0.08678   0.49996   0.75396   0.00000  Uiso   1.00
C1250  C     0.04215   0.50022   0.75740   0.00000  Uiso   1.00
C1251  C     0.18899   0.35789   0.78167   0.00000  Uiso   1.00
C1252  C     0.14807   0.64248   0.71574   0.00000  Uiso   1.00
C1253  C     0.14430   0.35739   0.71831   0.00000  Uiso   1.00
C1254  C     0.18553   0.64292   0.78412   0.00000  Uiso   1.00
C1255  C     0.16566   0.50013   0.66354   0.00000  Uiso   1.00
C1256  C     0.16701   0.50017   0.83646   0.00000  Uiso   1.00
C1257  C     0.20311   0.51127   0.90724   0.00000  Uiso   1.00
C1258  C     0.12661   0.50763   0.59349   0.00000  Uiso   1.00
C1259  C     0.16603   0.50178   0.88443   0.00000  Uiso   1.00
C1260  C     0.24652   0.50021   0.74594   0.00000  Uiso   1.00
C1261  C     0.16484   0.50148   0.61551   0.00000  Uiso   1.00
C1262  C     0.12774   0.50180   0.90598   0.00000  Uiso   1.00
C1263  C     0.20252   0.50502   0.59299   0.00000  Uiso   1.00
C1264  C     0.12644   0.51106   0.95224   0.00000  Uiso   1.00
C1265  C     0.20223   0.51654   0.54734   0.00000  Uiso   1.00
C1266  C     0.16420   0.51561   0.97642   0.00000  Uiso   1.00
C1267  C     0.16397   0.51540   0.52350   0.00000  Uiso   1.00
C1268  C     0.20234   0.51939   0.95357   0.00000  Uiso   1.00
C1269  C     0.12577   0.51250   0.54657   0.00000  Uiso   1.00
C1270  C     0.08867   0.51670   0.97510   0.00000  Uiso   1.00
C1271  C     0.08792   0.51478   0.52217   0.00000  Uiso   1.00
C1272  C     0.23873   0.52968   0.52455   0.00000  Uiso   1.00
C1273  C     0.25853   0.47087   0.88440   0.00000  Uiso   1.00
C1274  C     0.07524   0.47106   0.63185   0.00000  Uiso   1.00
C1275  C     0.09059   0.48958   0.88064   0.00000  Uiso   1.00
C1276  C     0.24094   0.49529   0.61686   0.00000  Uiso   1.00
C1277  C     0.04989   0.57120   0.94245   0.00000  Uiso   1.00
C1278  C     0.27225   0.58482   0.56407   0.00000  Uiso   1.00
C1279  C     0.02524   0.47987   0.53487   0.00000  Uiso   1.00
C1280  C     0.27099   0.59063   0.94259   0.00000  Uiso   1.00
C1281  C     0.03777   0.41706   0.77048   0.00000  Uiso   1.00
C1282  C     0.23853   0.53168   0.97777   0.00000  Uiso   1.00
C1283  C     0.29390   0.58498   0.73358   0.00000  Uiso   1.00
C1284  C     0.29397   0.41852   0.72354   0.00000  Uiso   1.00
C1285  C     0.04063   0.58381   0.77090   0.00000  Uiso   1.00
C1286  C     0.25290   0.36639   0.81718   0.00000  Uiso   1.00
C1287  C     0.15723   0.62671   0.64186   0.00000  Uiso   1.00
C1288  C     0.08094   0.36254   0.68060   0.00000  Uiso   1.00
C1289  C     0.17758   0.62715   0.85815   0.00000  Uiso   1.00
C1290  C     0.02019   0.45913   0.75466   0.00000  Uiso   1.00
C1291  C     0.31280   0.54216   0.74529   0.00000  Uiso   1.00
C1292  C     0.31244   0.45960   0.74164   0.00000  Uiso   1.00
C1293  C     0.02106   0.54177   0.75659   0.00000  Uiso   1.00
C1294  C     0.29109   0.50081   0.74190   0.00000  Uiso   1.00
H1295  H     0.28552   0.47146   0.86161   0.00000  Uiso   1.00
H1296  H     0.24786   0.58749   0.59004   0.00000  Uiso   1.00
H1297  H     0.26627   0.60960   0.53679   0.00000  Uiso   1.00
H1298  H     0.30224   0.59405   0.58028   0.00000  Uiso   1.00
H1299  H     0.04326   0.44814   0.53131   0.00000  Uiso   1.00
H1300  H     0.00593   0.48559   0.50437   0.00000  Uiso   1.00
H1301  H     0.00362   0.47485   0.56318   0.00000  Uiso   1.00
H1302  H     0.24058   0.60682   0.94951   0.00000  Uiso   1.00
H1303  H     0.27651   0.59276   0.90590   0.00000  Uiso   1.00
H1304  H     0.29545   0.61084   0.95986   0.00000  Uiso   1.00
H1305  H     0.27448   0.39553   0.81997   0.00000  Uiso   1.00
H1306  H     0.27009   0.46270   0.91876   0.00000  Uiso   1.00
H1307  H     0.26343   0.34586   0.78822   0.00000  Uiso   1.00
H1308  H     0.25590   0.34652   0.84862   0.00000  Uiso   1.00
H1309  H     0.14605   0.60511   0.61373   0.00000  Uiso   1.00
H1310  H     0.19008   0.61760   0.64895   0.00000  Uiso   1.00
H1311  H     0.15550   0.66226   0.63026   0.00000  Uiso   1.00
H1312  H     0.05786   0.38991   0.67825   0.00000  Uiso   1.00
H1313  H     0.07051   0.33983   0.70809   0.00000  Uiso   1.00
H1314  H     0.07997   0.34414   0.64811   0.00000  Uiso   1.00
H1315  H     0.14445   0.61841   0.85142   0.00000  Uiso   1.00
H1316  H     0.18028   0.66245   0.87041   0.00000  Uiso   1.00
H1317  H     0.23698   0.44389   0.87254   0.00000  Uiso   1.00
H1318  H     0.18858   0.60501   0.88570   0.00000  Uiso   1.00
H1319  H     0.08973   0.46108   0.66402   0.00000  Uiso   1.00
H1320  H     0.07935   0.44397   0.60629   0.00000  Uiso   1.00
H1321  H     0.04157   0.47429   0.63806   0.00000  Uiso   1.00
H1322  H     0.07791   0.58389   0.92478   0.00000  Uiso   1.00
H1323  H     0.04490   0.59081   0.97382   0.00000  Uiso   1.00
H1324  H     0.02313   0.57694   0.91960   0.00000  Uiso   1.00
N1325  N     0.16667   0.61907   0.75000   0.00000  Uiso   1.00
N1326  N     0.16667   0.38093   0.75000   0.00000  Uiso   1.00
N1327  N     0.06090   0.47971   0.86074   0.00000  Uiso   1.00
N1328  N     0.27158   0.48745   0.63571   0.00000  Uiso   1.00
N1329  N     0.05169   0.38379   0.78386   0.00000  Uiso   1.00
N1330  N     0.27887   0.61891   0.72381   0.00000  Uiso   1.00
N1331  N     0.27931   0.38607   0.70847   0.00000  Uiso   1.00
N1332  N     0.05626   0.61708   0.78264   0.00000  Uiso   1.00
O1333  O     0.10559   0.53821   0.75000   0.00000  Uiso   1.00
O1334  O     0.09081   0.51339   0.61820   0.00000  Uiso   1.00
O1335  O     0.05213   0.52467   0.95186   0.00000  Uiso   1.00
O1336  O     0.27516   0.54045   0.54719   0.00000  Uiso   1.00
O1337  O     0.05043   0.51803   0.54438   0.00000  Uiso   1.00
O1338  O     0.27443   0.54506   0.95635   0.00000  Uiso   1.00
O1339  O     0.21200   0.38278   0.81269   0.00000  Uiso   1.00
O1340  O     0.13184   0.61885   0.67953   0.00000  Uiso   1.00
O1341  O     0.12080   0.38181   0.68757   0.00000  Uiso   1.00
O1342  O     0.20240   0.61970   0.82002   0.00000  Uiso   1.00
O1343  O     0.22774   0.46179   0.75001   0.00000  Uiso   1.00
O1344  O     0.22774   0.53821   0.75001   0.00000  Uiso   1.00
O1345  O     0.10559   0.46179   0.75000   0.00000  Uiso   1.00
O1346  O     0.16666   0.53823   0.68393   0.00000  Uiso   1.00
O1347  O     0.16667   0.46177   0.81608   0.00000  Uiso   1.00
O1348  O     0.16667   0.53823   0.81608   0.00000  Uiso   1.00
O1349  O     0.16666   0.46177   0.68393   0.00000  Uiso   1.00
O1350  O     0.23968   0.51359   0.88333   0.00000  Uiso   1.00
Zn1351 Zn    0.16667   0.55104   0.75000   0.00000  Uiso   1.00
Zn1352 Zn    0.16667   0.44896   0.75000   0.00000  Uiso   1.00
C1353  C     0.42011   0.49996   0.75396   0.00000  Uiso   1.00
C1354  C     0.37548   0.50022   0.75740   0.00000  Uiso   1.00
C1355  C     0.52232   0.35789   0.78167   0.00000  Uiso   1.00
C1356  C     0.48140   0.64248   0.71574   0.00000  Uiso   1.00
C1357  C     0.47763   0.35739   0.71831   0.00000  Uiso   1.00
C1358  C     0.51886   0.64292   0.78412   0.00000  Uiso   1.00
C1359  C     0.49899   0.50013   0.66354   0.00000  Uiso   1.00
C1360  C     0.50034   0.50017   0.83646   0.00000  Uiso   1.00
C1361  C     0.53644   0.51127   0.90724   0.00000  Uiso   1.00
C1362  C     0.45994   0.50763   0.59349   0.00000  Uiso   1.00
C1363  C     0.49936   0.50178   0.88443   0.00000  Uiso   1.00
C1364  C     0.57986   0.50021   0.74594   0.00000  Uiso   1.00
C1365  C     0.49817   0.50148   0.61551   0.00000  Uiso   1.00
C1366  C     0.46107   0.50180   0.90598   0.00000  Uiso   1.00
C1367  C     0.53585   0.50502   0.59299   0.00000  Uiso   1.00
C1368  C     0.45978   0.51106   0.95224   0.00000  Uiso   1.00
C1369  C     0.53557   0.51654   0.54734   0.00000  Uiso   1.00
C1370  C     0.49754   0.51561   0.97642   0.00000  Uiso   1.00
C1371  C     0.49731   0.51540   0.52350   0.00000  Uiso   1.00
C1372  C     0.53568   0.51939   0.95357   0.00000  Uiso   1.00
C1373  C     0.45910   0.51250   0.54657   0.00000  Uiso   1.00
C1374  C     0.42200   0.51670   0.97510   0.00000  Uiso   1.00
C1375  C     0.42125   0.51478   0.52217   0.00000  Uiso   1.00
C1376  C     0.57206   0.52968   0.52455   0.00000  Uiso   1.00
C1377  C     0.59187   0.47087   0.88440   0.00000  Uiso   1.00
C1378  C     0.40857   0.47106   0.63185   0.00000  Uiso   1.00
C1379  C     0.42392   0.48958   0.88064   0.00000  Uiso   1.00
C1380  C     0.57427   0.49529   0.61686   0.00000  Uiso   1.00
C1381  C     0.38322   0.57120   0.94245   0.00000  Uiso   1.00
C1382  C     0.60558   0.58482   0.56407   0.00000  Uiso   1.00
C1383  C     0.35857   0.47987   0.53487   0.00000  Uiso   1.00
C1384  C     0.60432   0.59063   0.94259   0.00000  Uiso   1.00
C1385  C     0.37111   0.41706   0.77048   0.00000  Uiso   1.00
C1386  C     0.57186   0.53168   0.97777   0.00000  Uiso   1.00
C1387  C     0.62724   0.58498   0.73358   0.00000  Uiso   1.00
C1388  C     0.62730   0.41852   0.72354   0.00000  Uiso   1.00
C1389  C     0.37396   0.58381   0.77090   0.00000  Uiso   1.00
C1390  C     0.58624   0.36639   0.81718   0.00000  Uiso   1.00
C1391  C     0.49057   0.62671   0.64186   0.00000  Uiso   1.00
C1392  C     0.41427   0.36254   0.68060   0.00000  Uiso   1.00
C1393  C     0.51091   0.62715   0.85815   0.00000  Uiso   1.00
C1394  C     0.35353   0.45913   0.75466   0.00000  Uiso   1.00
C1395  C     0.64614   0.54216   0.74529   0.00000  Uiso   1.00
C1396  C     0.64578   0.45960   0.74164   0.00000  Uiso   1.00
C1397  C     0.35439   0.54177   0.75659   0.00000  Uiso   1.00
C1398  C     0.62442   0.50081   0.74190   0.00000  Uiso   1.00
H1399  H     0.61886   0.47146   0.86161   0.00000  Uiso   1.00
H1400  H     0.58119   0.58749   0.59004   0.00000  Uiso   1.00
H1401  H     0.59960   0.60960   0.53679   0.00000  Uiso   1.00
H1402  H     0.63557   0.59405   0.58028   0.00000  Uiso   1.00
H1403  H     0.37659   0.44814   0.53131   0.00000  Uiso   1.00
H1404  H     0.33926   0.48559   0.50437   0.00000  Uiso   1.00
H1405  H     0.33696   0.47485   0.56318   0.00000  Uiso   1.00
H1406  H     0.57391   0.60682   0.94951   0.00000  Uiso   1.00
H1407  H     0.60985   0.59276   0.90590   0.00000  Uiso   1.00
H1408  H     0.62878   0.61084   0.95986   0.00000  Uiso   1.00
H1409  H     0.60782   0.39553   0.81997   0.00000  Uiso   1.00
H1410  H     0.60342   0.46270   0.91876   0.00000  Uiso   1.00
H1411  H     0.59677   0.34586   0.78822   0.00000  Uiso   1.00
H1412  H     0.58924   0.34652   0.84862   0.00000  Uiso   1.00
H1413  H     0.47938   0.60511   0.61373   0.00000  Uiso   1.00
H1414  H     0.52341   0.61760   0.64895   0.00000  Uiso   1.00
H1415  H     0.48884   0.66226   0.63026   0.00000  Uiso   1.00
H1416  H     0.39120   0.38991   0.67825   0.00000  Uiso   1.00
H1417  H     0.40385   0.33983   0.70809   0.00000  Uiso   1.00
H1418  H     0.41330   0.34414   0.64811   0.00000  Uiso   1.00
H1419  H     0.47778   0.61841   0.85142   0.00000  Uiso   1.00
H1420  H     0.51361   0.66245   0.87041   0.00000  Uiso   1.00
H1421  H     0.57031   0.44389   0.87254   0.00000  Uiso   1.00
H1422  H     0.52191   0.60501   0.88570   0.00000  Uiso   1.00
H1423  H     0.42307   0.46108   0.66402   0.00000  Uiso   1.00
H1424  H     0.41268   0.44397   0.60629   0.00000  Uiso   1.00
H1425  H     0.37490   0.47429   0.63806   0.00000  Uiso   1.00
H1426  H     0.41124   0.58389   0.92478   0.00000  Uiso   1.00
H1427  H     0.37824   0.59081   0.97382   0.00000  Uiso   1.00
H1428  H     0.35646   0.57694   0.91960   0.00000  Uiso   1.00
N1429  N     0.50000   0.61907   0.75000   0.00000  Uiso   1.00
N1430  N     0.50000   0.38093   0.75000   0.00000  Uiso   1.00
N1431  N     0.39424   0.47971   0.86074   0.00000  Uiso   1.00
N1432  N     0.60492   0.48745   0.63571   0.00000  Uiso   1.00
N1433  N     0.38502   0.38379   0.78386   0.00000  Uiso   1.00
N1434  N     0.61220   0.61891   0.72381   0.00000  Uiso   1.00
N1435  N     0.61265   0.38607   0.70847   0.00000  Uiso   1.00
N1436  N     0.38959   0.61708   0.78264   0.00000  Uiso   1.00
O1437  O     0.43892   0.53821   0.75000   0.00000  Uiso   1.00
O1438  O     0.42415   0.51339   0.61820   0.00000  Uiso   1.00
O1439  O     0.38547   0.52467   0.95186   0.00000  Uiso   1.00
O1440  O     0.60849   0.54045   0.54719   0.00000  Uiso   1.00
O1441  O     0.38377   0.51803   0.54438   0.00000  Uiso   1.00
O1442  O     0.60776   0.54506   0.95635   0.00000  Uiso   1.00
O1443  O     0.54533   0.38278   0.81269   0.00000  Uiso   1.00
O1444  O     0.46517   0.61885   0.67953   0.00000  Uiso   1.00
O1445  O     0.45413   0.38181   0.68757   0.00000  Uiso   1.00
O1446  O     0.53573   0.61970   0.82002   0.00000  Uiso   1.00
O1447  O     0.56108   0.46179   0.75001   0.00000  Uiso   1.00
O1448  O     0.56108   0.53821   0.75001   0.00000  Uiso   1.00
O1449  O     0.43892   0.46179   0.75000   0.00000  Uiso   1.00
O1450  O     0.49999   0.53823   0.68393   0.00000  Uiso   1.00
O1451  O     0.50001   0.46177   0.81608   0.00000  Uiso   1.00
O1452  O     0.50001   0.53823   0.81608   0.00000  Uiso   1.00
O1453  O     0.49999   0.46177   0.68393   0.00000  Uiso   1.00
O1454  O     0.57301   0.51359   0.88333   0.00000  Uiso   1.00
Zn1455 Zn    0.50000   0.55104   0.75000   0.00000  Uiso   1.00
Zn1456 Zn    0.50000   0.44896   0.75000   0.00000  Uiso   1.00
C1457  C     0.75344   0.49996   0.75396   0.00000  Uiso   1.00
C1458  C     0.70882   0.50022   0.75740   0.00000  Uiso   1.00
C1459  C     0.85565   0.35789   0.78167   0.00000  Uiso   1.00
C1460  C     0.81473   0.64248   0.71574   0.00000  Uiso   1.00
C1461  C     0.81097   0.35739   0.71831   0.00000  Uiso   1.00
C1462  C     0.85220   0.64292   0.78412   0.00000  Uiso   1.00
C1463  C     0.83233   0.50013   0.66354   0.00000  Uiso   1.00
C1464  C     0.83367   0.50017   0.83646   0.00000  Uiso   1.00
C1465  C     0.86977   0.51127   0.90724   0.00000  Uiso   1.00
C1466  C     0.79328   0.50763   0.59349   0.00000  Uiso   1.00
C1467  C     0.83270   0.50178   0.88443   0.00000  Uiso   1.00
C1468  C     0.91319   0.50021   0.74594   0.00000  Uiso   1.00
C1469  C     0.83150   0.50148   0.61551   0.00000  Uiso   1.00
C1470  C     0.79440   0.50180   0.90598   0.00000  Uiso   1.00
C1471  C     0.86918   0.50502   0.59299   0.00000  Uiso   1.00
C1472  C     0.79311   0.51106   0.95224   0.00000  Uiso   1.00
C1473  C     0.86890   0.51654   0.54734   0.00000  Uiso   1.00
C1474  C     0.83087   0.51561   0.97642   0.00000  Uiso   1.00
C1475  C     0.83064   0.51540   0.52350   0.00000  Uiso   1.00
C1476  C     0.86901   0.51939   0.95357   0.00000  Uiso   1.00
C1477  C     0.79243   0.51250   0.54657   0.00000  Uiso   1.00
C1478  C     0.75533   0.51670   0.97510   0.00000  Uiso   1.00
C1479  C     0.75459   0.51478   0.52217   0.00000  Uiso   1.00
C1480  C     0.90539   0.52968   0.52455   0.00000  Uiso   1.00
C1481  C     0.92520   0.47087   0.88440   0.00000  Uiso   1.00
C1482  C     0.74191   0.47106   0.63185   0.00000  Uiso   1.00
C1483  C     0.75726   0.48958   0.88064   0.00000  Uiso   1.00
C1484  C     0.90761   0.49529   0.61686   0.00000  Uiso   1.00
C1485  C     0.71655   0.57120   0.94245   0.00000  Uiso   1.00
C1486  C     0.93892   0.58482   0.56407   0.00000  Uiso   1.00
C1487  C     0.69191   0.47987   0.53487   0.00000  Uiso   1.00
C1488  C     0.93766   0.59063   0.94259   0.00000  Uiso   1.00
C1489  C     0.70444   0.41706   0.77048   0.00000  Uiso   1.00
C1490  C     0.90519   0.53168   0.97777   0.00000  Uiso   1.00
C1491  C     0.96057   0.58498   0.73358   0.00000  Uiso   1.00
C1492  C     0.96064   0.41852   0.72354   0.00000  Uiso   1.00
C1493  C     0.70730   0.58381   0.77090   0.00000  Uiso   1.00
C1494  C     0.91957   0.36639   0.81718   0.00000  Uiso   1.00
C1495  C     0.82390   0.62671   0.64186   0.00000  Uiso   1.00
C1496  C     0.74760   0.36254   0.68060   0.00000  Uiso   1.00
C1497  C     0.84425   0.62715   0.85815   0.00000  Uiso   1.00
C1498  C     0.68686   0.45913   0.75466   0.00000  Uiso   1.00
C1499  C     0.97947   0.54216   0.74529   0.00000  Uiso   1.00
C1500  C     0.97911   0.45960   0.74164   0.00000  Uiso   1.00
C1501  C     0.68772   0.54177   0.75659   0.00000  Uiso   1.00
C1502  C     0.95776   0.50081   0.74190   0.00000  Uiso   1.00
H1503  H     0.95219   0.47146   0.86161   0.00000  Uiso   1.00
H1504  H     0.91452   0.58749   0.59004   0.00000  Uiso   1.00
H1505  H     0.93294   0.60960   0.53679   0.00000  Uiso   1.00
H1506  H     0.96890   0.59405   0.58028   0.00000  Uiso   1.00
H1507  H     0.70992   0.44814   0.53131   0.00000  Uiso   1.00
H1508  H     0.67260   0.48559   0.50437   0.00000  Uiso   1.00
H1509  H     0.67029   0.47485   0.56318   0.00000  Uiso   1.00
H1510  H     0.90725   0.60682   0.94951   0.00000  Uiso   1.00
H1511  H     0.94318   0.59276   0.90590   0.00000  Uiso   1.00
H1512  H     0.96212   0.61084   0.95986   0.00000  Uiso   1.00
H1513  H     0.94115   0.39553   0.81997   0.00000  Uiso   1.00
H1514  H     0.93675   0.46270   0.91876   0.00000  Uiso   1.00
H1515  H     0.93010   0.34586   0.78822   0.00000  Uiso   1.00
H1516  H     0.92257   0.34652   0.84862   0.00000  Uiso   1.00
H1517  H     0.81272   0.60511   0.61373   0.00000  Uiso   1.00
H1518  H     0.85675   0.61760   0.64895   0.00000  Uiso   1.00
H1519  H     0.82217   0.66226   0.63026   0.00000  Uiso   1.00
H1520  H     0.72453   0.38991   0.67825   0.00000  Uiso   1.00
H1521  H     0.73718   0.33983   0.70809   0.00000  Uiso   1.00
H1522  H     0.74664   0.34414   0.64811   0.00000  Uiso   1.00
H1523  H     0.81111   0.61841   0.85142   0.00000  Uiso   1.00
H1524  H     0.84695   0.66245   0.87041   0.00000  Uiso   1.00
H1525  H     0.90364   0.44389   0.87254   0.00000  Uiso   1.00
H1526  H     0.85524   0.60501   0.88570   0.00000  Uiso   1.00
H1527  H     0.75640   0.46108   0.66402   0.00000  Uiso   1.00
H1528  H     0.74601   0.44397   0.60629   0.00000  Uiso   1.00
H1529  H     0.70824   0.47429   0.63806   0.00000  Uiso   1.00
H1530  H     0.74458   0.58389   0.92478   0.00000  Uiso   1.00
H1531  H     0.71157   0.59081   0.97382   0.00000  Uiso   1.00
H1532  H     0.68980   0.57694   0.91960   0.00000  Uiso   1.00
N1533  N     0.83333   0.61907   0.75000   0.00000  Uiso   1.00
N1534  N     0.83333   0.38093   0.75000   0.00000  Uiso   1.00
N1535  N     0.72757   0.47971   0.86074   0.00000  Uiso   1.00
N1536  N     0.93825   0.48745   0.63571   0.00000  Uiso   1.00
N1537  N     0.71835   0.38379   0.78386   0.00000  Uiso   1.00
N1538  N     0.94554   0.61891   0.72381   0.00000  Uiso   1.00
N1539  N     0.94598   0.38607   0.70847   0.00000  Uiso   1.00
N1540  N     0.72293   0.61708   0.78264   0.00000  Uiso   1.00
O1541  O     0.77226   0.53821   0.75000   0.00000  Uiso   1.00
O1542  O     0.75748   0.51339   0.61820   0.00000  Uiso   1.00
O1543  O     0.71880   0.52467   0.95186   0.00000  Uiso   1.00
O1544  O     0.94182   0.54045   0.54719   0.00000  Uiso   1.00
O1545  O     0.71710   0.51803   0.54438   0.00000  Uiso   1.00
O1546  O     0.94110   0.54506   0.95635   0.00000  Uiso   1.00
O1547  O     0.87866   0.38278   0.81269   0.00000  Uiso   1.00
O1548  O     0.79851   0.61885   0.67953   0.00000  Uiso   1.00
O1549  O     0.78747   0.38181   0.68757   0.00000  Uiso   1.00
O1550  O     0.86906   0.61970   0.82002   0.00000  Uiso   1.00
O1551  O     0.89441   0.46179   0.75001   0.00000  Uiso   1.00
O1552  O     0.89441   0.53821   0.75001   0.00000  Uiso   1.00
O1553  O     0.77226   0.46179   0.75000   0.00000  Uiso   1.00
O1554  O     0.83333   0.53823   0.68393   0.00000  Uiso   1.00
O1555  O     0.83334   0.46177   0.81608   0.00000  Uiso   1.00
O1556  O     0.83334   0.53823   0.81608   0.00000  Uiso   1.00
O1557  O     0.83333   0.46177   0.68393   0.00000  Uiso   1.00
O1558  O     0.90635   0.51359   0.88333   0.00000  Uiso   1.00
Zn1559 Zn    0.83333   0.55104   0.75000   0.00000  Uiso   1.00
Zn1560 Zn    0.83333   0.44896   0.75000   0.00000  Uiso   1.00
C1561  C     0.08678   0.83330   0.75396   0.00000  Uiso   1.00
C1562  C     0.04215   0.83355   0.75740   0.00000  Uiso   1.00
C1563  C     0.18899   0.69122   0.78167   0.00000  Uiso   1.00
C1564  C     0.14807   0.97581   0.71574   0.00000  Uiso   1.00
C1565  C     0.14430   0.69072   0.71831   0.00000  Uiso   1.00
C1566  C     0.18553   0.97626   0.78412   0.00000  Uiso   1.00
C1567  C     0.16566   0.83346   0.66354   0.00000  Uiso   1.00
C1568  C     0.16701   0.83350   0.83646   0.00000  Uiso   1.00
C1569  C     0.20311   0.84460   0.90724   0.00000  Uiso   1.00
C1570  C     0.12661   0.84097   0.59349   0.00000  Uiso   1.00
C1571  C     0.16603   0.83511   0.88443   0.00000  Uiso   1.00
C1572  C     0.24652   0.83355   0.74594   0.00000  Uiso   1.00
C1573  C     0.16484   0.83481   0.61551   0.00000  Uiso   1.00
C1574  C     0.12774   0.83514   0.90598   0.00000  Uiso   1.00
C1575  C     0.20252   0.83836   0.59299   0.00000  Uiso   1.00
C1576  C     0.12644   0.84440   0.95224   0.00000  Uiso   1.00
C1577  C     0.20223   0.84987   0.54734   0.00000  Uiso   1.00
C1578  C     0.16420   0.84894   0.97642   0.00000  Uiso   1.00
C1579  C     0.16397   0.84873   0.52350   0.00000  Uiso   1.00
C1580  C     0.20234   0.85272   0.95357   0.00000  Uiso   1.00
C1581  C     0.12577   0.84583   0.54657   0.00000  Uiso   1.00
C1582  C     0.08867   0.85003   0.97510   0.00000  Uiso   1.00
C1583  C     0.08792   0.84812   0.52217   0.00000  Uiso   1.00
C1584  C     0.23873   0.86301   0.52455   0.00000  Uiso   1.00
C1585  C     0.25853   0.80420   0.88440   0.00000  Uiso   1.00
C1586  C     0.07524   0.80440   0.63185   0.00000  Uiso   1.00
C1587  C     0.09059   0.82291   0.88064   0.00000  Uiso   1.00
C1588  C     0.24094   0.82862   0.61686   0.00000  Uiso   1.00
C1589  C     0.04989   0.90454   0.94245   0.00000  Uiso   1.00
C1590  C     0.27225   0.91815   0.56407   0.00000  Uiso   1.00
C1591  C     0.02524   0.81320   0.53487   0.00000  Uiso   1.00
C1592  C     0.27099   0.92396   0.94259   0.00000  Uiso   1.00
C1593  C     0.03777   0.75039   0.77048   0.00000  Uiso   1.00
C1594  C     0.23853   0.86502   0.97777   0.00000  Uiso   1.00
C1595  C     0.29390   0.91831   0.73358   0.00000  Uiso   1.00
C1596  C     0.29397   0.75185   0.72354   0.00000  Uiso   1.00
C1597  C     0.04063   0.91714   0.77090   0.00000  Uiso   1.00
C1598  C     0.25290   0.69972   0.81718   0.00000  Uiso   1.00
C1599  C     0.15723   0.96005   0.64186   0.00000  Uiso   1.00
C1600  C     0.08094   0.69588   0.68060   0.00000  Uiso   1.00
C1601  C     0.17758   0.96048   0.85815   0.00000  Uiso   1.00
C1602  C     0.02019   0.79247   0.75466   0.00000  Uiso   1.00
C1603  C     0.31280   0.87549   0.74529   0.00000  Uiso   1.00
C1604  C     0.31244   0.79293   0.74164   0.00000  Uiso   1.00
C1605  C     0.02106   0.87510   0.75659   0.00000  Uiso   1.00
C1606  C     0.29109   0.83414   0.74190   0.00000  Uiso   1.00
H1607  H     0.28552   0.80479   0.86161   0.00000  Uiso   1.00
H1608  H     0.24786   0.92082   0.59004   0.00000  Uiso   1.00
H1609  H     0.26627   0.94294   0.53679   0.00000  Uiso   1.00
H1610  H     0.30224   0.92738   0.58028   0.00000  Uiso   1.00
H1611  H     0.04326   0.78148   0.53131   0.00000  Uiso   1.00
H1612  H     0.00593   0.81893   0.50437   0.00000  Uiso   1.00
H1613  H     0.00362   0.80818   0.56318   0.00000  Uiso   1.00
H1614  H     0.24058   0.94016   0.94951   0.00000  Uiso   1.00
H1615  H     0.27651   0.92610   0.90590   0.00000  Uiso   1.00
H1616  H     0.29545   0.94417   0.95986   0.00000  Uiso   1.00
H1617  H     0.27448   0.72886   0.81997   0.00000  Uiso   1.00
H1618  H     0.27009   0.79603   0.91876   0.00000  Uiso   1.00
H1619  H     0.26343   0.67919   0.78822   0.00000  Uiso   1.00
H1620  H     0.25590   0.67986   0.84862   0.00000  Uiso   1.00
H1621  H     0.14605   0.93845   0.61373   0.00000  Uiso   1.00
H1622  H     0.19008   0.95094   0.64895   0.00000  Uiso   1.00
H1623  H     0.15550   0.99559   0.63026   0.00000  Uiso   1.00
H1624  H     0.05786   0.72324   0.67825   0.00000  Uiso   1.00
H1625  H     0.07051   0.67316   0.70809   0.00000  Uiso   1.00
H1626  H     0.07997   0.67747   0.64811   0.00000  Uiso   1.00
H1627  H     0.14445   0.95174   0.85142   0.00000  Uiso   1.00
H1628  H     0.18028   0.99579   0.87041   0.00000  Uiso   1.00
H1629  H     0.23698   0.77723   0.87254   0.00000  Uiso   1.00
H1630  H     0.18858   0.93834   0.88570   0.00000  Uiso   1.00
H1631  H     0.08973   0.79441   0.66402   0.00000  Uiso   1.00
H1632  H     0.07935   0.77731   0.60629   0.00000  Uiso   1.00
H1633  H     0.04157   0.80762   0.63806   0.00000  Uiso   1.00
H1634  H     0.07791   0.91723   0.92478   0.00000  Uiso   1.00
H1635  H     0.04490   0.92415   0.97382   0.00000  Uiso   1.00
H1636  H     0.02313   0.91028   0.91960   0.00000  Uiso   1.00
N1637  N     0.16667   0.95240   0.75000   0.00000  Uiso   1.00
N1638  N     0.16667   0.71427   0.75000   0.00000  Uiso   1.00
N1639  N     0.06090   0.81304   0.86074   0.00000  Uiso   1.00
N1640  N     0.27158   0.82078   0.63571   0.00000  Uiso   1.00
N1641  N     0.05169   0.71712   0.78386   0.00000  Uiso   1.00
N1642  N     0.27887   0.95225   0.72381   0.00000  Uiso   1.00
N1643  N     0.27931   0.71941   0.70847   0.00000  Uiso   1.00
N1644  N     0.05626   0.95041   0.78264   0.00000  Uiso   1.00
O1645  O     0.10559   0.87154   0.75000   0.00000  Uiso   1.00
O1646  O     0.09081   0.84673   0.61820   0.00000  Uiso   1.00
O1647  O     0.05213   0.85800   0.95186   0.00000  Uiso   1.00
O1648  O     0.27516   0.87378   0.54719   0.00000  Uiso   1.00
O1649  O     0.05043   0.85137   0.54438   0.00000  Uiso   1.00
O1650  O     0.27443   0.87840   0.95635   0.00000  Uiso   1.00
O1651  O     0.21200   0.71612   0.81269   0.00000  Uiso   1.00
O1652  O     0.13184   0.95219   0.67953   0.00000  Uiso   1.00
O1653  O     0.12080   0.71514   0.68757   0.00000  Uiso   1.00
O1654  O     0.20240   0.95303   0.82002   0.00000  Uiso   1.00
O1655  O     0.22774   0.79513   0.75001   0.00000  Uiso   1.00
O1656  O     0.22774   0.87154   0.75001   0.00000  Uiso   1.00
O1657  O     0.10559   0.79513   0.75000   0.00000  Uiso   1.00
O1658  O     0.16666   0.87156   0.68393   0.00000  Uiso   1.00
O1659  O     0.16667   0.79511   0.81608   0.00000  Uiso   1.00
O1660  O     0.16667   0.87156   0.81608   0.00000  Uiso   1.00
O1661  O     0.16666   0.79511   0.68393   0.00000  Uiso   1.00
O1662  O     0.23968   0.84693   0.88333   0.00000  Uiso   1.00
Zn1663 Zn    0.16667   0.88437   0.75000   0.00000  Uiso   1.00
Zn1664 Zn    0.16667   0.78229   0.75000   0.00000  Uiso   1.00
C1665  C     0.42011   0.83330   0.75396   0.00000  Uiso   1.00
C1666  C     0.37548   0.83355   0.75740   0.00000  Uiso   1.00
C1667  C     0.52232   0.69122   0.78167   0.00000  Uiso   1.00
C1668  C     0.48140   0.97581   0.71574   0.00000  Uiso   1.00
C1669  C     0.47763   0.69072   0.71831   0.00000  Uiso   1.00
C1670  C     0.51886   0.97626   0.78412   0.00000  Uiso   1.00
C1671  C     0.49899   0.83346   0.66354   0.00000  Uiso   1.00
C1672  C     0.50034   0.83350   0.83646   0.00000  Uiso   1.00
C1673  C     0.53644   0.84460   0.90724   0.00000  Uiso   1.00
C1674  C     0.45994   0.84097   0.59349   0.00000  Uiso   1.00
C1675  C     0.49936   0.83511   0.88443   0.00000  Uiso   1.00
C1676  C     0.57986   0.83355   0.74594   0.00000  Uiso   1.00
C1677  C     0.49817   0.83481   0.61551   0.00000  Uiso   1.00
C1678  C     0.46107   0.83514   0.90598   0.00000  Uiso   1.00
C1679  C     0.53585   0.83836   0.59299   0.00000  Uiso   1.00
C1680  C     0.45978   0.84440   0.95224   0.00000  Uiso   1.00
C1681  C     0.53557   0.84987   0.54734   0.00000  Uiso   1.00
C1682  C     0.49754   0.84894   0.97642   0.00000  Uiso   1.00
C1683  C     0.49731   0.84873   0.52350   0.00000  Uiso   1.00
C1684  C     0.53568   0.85272   0.95357   0.00000  Uiso   1.00
C1685  C     0.45910   0.84583   0.54657   0.00000  Uiso   1.00
C1686  C     0.42200   0.85003   0.97510   0.00000  Uiso   1.00
C1687  C     0.42125   0.84812   0.52217   0.00000  Uiso   1.00
C1688  C     0.57206   0.86301   0.52455   0.00000  Uiso   1.00
C1689  C     0.59187   0.80420   0.88440   0.00000  Uiso   1.00
C1690  C     0.40857   0.80440   0.63185   0.00000  Uiso   1.00
C1691  C     0.42392   0.82291   0.88064   0.00000  Uiso   1.00
C1692  C     0.57427   0.82862   0.61686   0.00000  Uiso   1.00
C1693  C     0.38322   0.90454   0.94245   0.00000  Uiso   1.00
C1694  C     0.60558   0.91815   0.56407   0.00000  Uiso   1.00
C1695  C     0.35857   0.81320   0.53487   0.00000  Uiso   1.00
C1696  C     0.60432   0.92396   0.94259   0.00000  Uiso   1.00
C1697  C     0.37111   0.75039   0.77048   0.00000  Uiso   1.00
C1698  C     0.57186   0.86502   0.97777   0.00000  Uiso   1.00
C1699  C     0.62724   0.91831   0.73358   0.00000  Uiso   1.00
C1700  C     0.62730   0.75185   0.72354   0.00000  Uiso   1.00
C1701  C     0.37396   0.91714   0.77090   0.00000  Uiso   1.00
C1702  C     0.58624   0.69972   0.81718   0.00000  Uiso   1.00
C1703  C     0.49057   0.96005   0.64186   0.00000  Uiso   1.00
C1704  C     0.41427   0.69588   0.68060   0.00000  Uiso   1.00
C1705  C     0.51091   0.96048   0.85815   0.00000  Uiso   1.00
C1706  C     0.35353   0.79247   0.75466   0.00000  Uiso   1.00
C1707  C     0.64614   0.87549   0.74529   0.00000  Uiso   1.00
C1708  C     0.64578   0.79293   0.74164   0.00000  Uiso   1.00
C1709  C     0.35439   0.87510   0.75659   0.00000  Uiso   1.00
C1710  C     0.62442   0.83414   0.74190   0.00000  Uiso   1.00
H1711  H     0.61886   0.80479   0.86161   0.00000  Uiso   1.00
H1712  H     0.58119   0.92082   0.59004   0.00000  Uiso   1.00
H1713  H     0.59960   0.94294   0.53679   0.00000  Uiso   1.00
H1714  H     0.63557   0.92738   0.58028   0.00000  Uiso   1.00
H1715  H     0.37659   0.78148   0.53131   0.00000  Uiso   1.00
H1716  H     0.33926   0.81893   0.50437   0.00000  Uiso   1.00
H1717  H     0.33696   0.80818   0.56318   0.00000  Uiso   1.00
H1718  H     0.57391   0.94016   0.94951   0.00000  Uiso   1.00
H1719  H     0.60985   0.92610   0.90590   0.00000  Uiso   1.00
H1720  H     0.62878   0.94417   0.95986   0.00000  Uiso   1.00
H1721  H     0.60782   0.72886   0.81997   0.00000  Uiso   1.00
H1722  H     0.60342   0.79603   0.91876   0.00000  Uiso   1.00
H1723  H     0.59677   0.67919   0.78822   0.00000  Uiso   1.00
H1724  H     0.58924   0.67986   0.84862   0.00000  Uiso   1.00
H1725  H     0.47938   0.93845   0.61373   0.00000  Uiso   1.00
H1726  H     0.52341   0.95094   0.64895   0.00000  Uiso   1.00
H1727  H     0.48884   0.99559   0.63026   0.00000  Uiso   1.00
H1728  H     0.39120   0.72324   0.67825   0.00000  Uiso   1.00
H1729  H     0.40385   0.67316   0.70809   0.00000  Uiso   1.00
H1730  H     0.41330   0.67747   0.64811   0.00000  Uiso   1.00
H1731  H     0.47778   0.95174   0.85142   0.00000  Uiso   1.00
H1732  H     0.51361   0.99579   0.87041   0.00000  Uiso   1.00
H1733  H     0.57031   0.77723   0.87254   0.00000  Uiso   1.00
H1734  H     0.52191   0.93834   0.88570   0.00000  Uiso   1.00
H1735  H     0.42307   0.79441   0.66402   0.00000  Uiso   1.00
H1736  H     0.41268   0.77731   0.60629   0.00000  Uiso   1.00
H1737  H     0.37490   0.80762   0.63806   0.00000  Uiso   1.00
H1738  H     0.41124   0.91723   0.92478   0.00000  Uiso   1.00
H1739  H     0.37824   0.92415   0.97382   0.00000  Uiso   1.00
H1740  H     0.35646   0.91028   0.91960   0.00000  Uiso   1.00
N1741  N     0.50000   0.95240   0.75000   0.00000  Uiso   1.00
N1742  N     0.50000   0.71427   0.75000   0.00000  Uiso   1.00
N1743  N     0.39424   0.81304   0.86074   0.00000  Uiso   1.00
N1744  N     0.60492   0.82078   0.63571   0.00000  Uiso   1.00
N1745  N     0.38502   0.71712   0.78386   0.00000  Uiso   1.00
N1746  N     0.61220   0.95225   0.72381   0.00000  Uiso   1.00
N1747  N     0.61265   0.71941   0.70847   0.00000  Uiso   1.00
N1748  N     0.38959   0.95041   0.78264   0.00000  Uiso   1.00
O1749  O     0.43892   0.87154   0.75000   0.00000  Uiso   1.00
O1750  O     0.42415   0.84673   0.61820   0.00000  Uiso   1.00
O1751  O     0.38547   0.85800   0.95186   0.00000  Uiso   1.00
O1752  O     0.60849   0.87378   0.54719   0.00000  Uiso   1.00
O1753  O     0.38377   0.85137   0.54438   0.00000  Uiso   1.00
O1754  O     0.60776   0.87840   0.95635   0.00000  Uiso   1.00
O1755  O     0.54533   0.71612   0.81269   0.00000  Uiso   1.00
O1756  O     0.46517   0.95219   0.67953   0.00000  Uiso   1.00
O1757  O     0.45413   0.71514   0.68757   0.00000  Uiso   1.00
O1758  O     0.53573   0.95303   0.82002   0.00000  Uiso   1.00
O1759  O     0.56108   0.79513   0.75001   0.00000  Uiso   1.00
O1760  O     0.56108   0.87154   0.75001   0.00000  Uiso   1.00
O1761  O     0.43892   0.79513   0.75000   0.00000  Uiso   1.00
O1762  O     0.49999   0.87156   0.68393   0.00000  Uiso   1.00
O1763  O     0.50001   0.79511   0.81608   0.00000  Uiso   1.00
O1764  O     0.50001   0.87156   0.81608   0.00000  Uiso   1.00
O1765  O     0.49999   0.79511   0.68393   0.00000  Uiso   1.00
O1766  O     0.57301   0.84693   0.88333   0.00000  Uiso   1.00
Zn1767 Zn    0.50000   0.88437   0.75000   0.00000  Uiso   1.00
Zn1768 Zn    0.50000   0.78229   0.75000   0.00000  Uiso   1.00
C1769  C     0.75344   0.83330   0.75396   0.00000  Uiso   1.00
C1770  C     0.70882   0.83355   0.75740   0.00000  Uiso   1.00
C1771  C     0.85565   0.69122   0.78167   0.00000  Uiso   1.00
C1772  C     0.81473   0.97581   0.71574   0.00000  Uiso   1.00
C1773  C     0.81097   0.69072   0.71831   0.00000  Uiso   1.00
C1774  C     0.85220   0.97626   0.78412   0.00000  Uiso   1.00
C1775  C     0.83233   0.83346   0.66354   0.00000  Uiso   1.00
C1776  C     0.83367   0.83350   0.83646   0.00000  Uiso   1.00
C1777  C     0.86977   0.84460   0.90724   0.00000  Uiso   1.00
C1778  C     0.79328   0.84097   0.59349   0.00000  Uiso   1.00
C1779  C     0.83270   0.83511   0.88443   0.00000  Uiso   1.00
C1780  C     0.91319   0.83355   0.74594   0.00000  Uiso   1.00
C1781  C     0.83150   0.83481   0.61551   0.00000  Uiso   1.00
C1782  C     0.79440   0.83514   0.90598   0.00000  Uiso   1.00
C1783  C     0.86918   0.83836   0.59299   0.00000  Uiso   1.00
C1784  C     0.79311   0.84440   0.95224   0.00000  Uiso   1.00
C1785  C     0.86890   0.84987   0.54734   0.00000  Uiso   1.00
C1786  C     0.83087   0.84894   0.97642   0.00000  Uiso   1.00
C1787  C     0.83064   0.84873   0.52350   0.00000  Uiso   1.00
C1788  C     0.86901   0.85272   0.95357   0.00000  Uiso   1.00
C1789  C     0.79243   0.84583   0.54657   0.00000  Uiso   1.00
C1790  C     0.75533   0.85003   0.97510   0.00000  Uiso   1.00
C1791  C     0.75459   0.84812   0.52217   0.00000  Uiso   1.00
C1792  C     0.90539   0.86301   0.52455   0.00000  Uiso   1.00
C1793  C     0.92520   0.80420   0.88440   0.00000  Uiso   1.00
C1794  C     0.74191   0.80440   0.63185   0.00000  Uiso   1.00
C1795  C     0.75726   0.82291   0.88064   0.00000  Uiso   1.00
C1796  C     0.90761   0.82862   0.61686   0.00000  Uiso   1.00
C1797  C     0.71655   0.90454   0.94245   0.00000  Uiso   1.00
C1798  C     0.93892   0.91815   0.56407   0.00000  Uiso   1.00
C1799  C     0.69191   0.81320   0.53487   0.00000  Uiso   1.00
C1800  C     0.93766   0.92396   0.94259   0.00000  Uiso   1.00
C1801  C     0.70444   0.75039   0.77048   0.00000  Uiso   1.00
C1802  C     0.90519   0.86502   0.97777   0.00000  Uiso   1.00
C1803  C     0.96057   0.91831   0.73358   0.00000  Uiso   1.00
C1804  C     0.96064   0.75185   0.72354   0.00000  Uiso   1.00
C1805  C     0.70730   0.91714   0.77090   0.00000  Uiso   1.00
C1806  C     0.91957   0.69972   0.81718   0.00000  Uiso   1.00
C1807  C     0.82390   0.96005   0.64186   0.00000  Uiso   1.00
C1808  C     0.74760   0.69588   0.68060   0.00000  Uiso   1.00
C1809  C     0.84425   0.96048   0.85815   0.00000  Uiso   1.00
C1810  C     0.68686   0.79247   0.75466   0.00000  Uiso   1.00
C1811  C     0.97947   0.87549   0.74529   0.00000  Uiso   1.00
C1812  C     0.97911   0.79293   0.74164   0.00000  Uiso   1.00
C1813  C     0.68772   0.87510   0.75659   0.00000  Uiso   1.00
C1814  C     0.95776   0.83414   0.74190   0.00000  Uiso   1.00
H1815  H     0.95219   0.80479   0.86161   0.00000  Uiso   1.00
H1816  H     0.91452   0.92082   0.59004   0.00000  Uiso   1.00
H1817  H     0.93294   0.94294   0.53679   0.00000  Uiso   1.00
H1818  H     0.96890   0.92738   0.58028   0.00000  Uiso   1.00
H1819  H     0.70992   0.78148   0.53131   0.00000  Uiso   1.00
H1820  H     0.67260   0.81893   0.50437   0.00000  Uiso   1.00
H1821  H     0.67029   0.80818   0.56318   0.00000  Uiso   1.00
H1822  H     0.90725   0.94016   0.94951   0.00000  Uiso   1.00
H1823  H     0.94318   0.92610   0.90590   0.00000  Uiso   1.00
H1824  H     0.96212   0.94417   0.95986   0.00000  Uiso   1.00
H1825  H     0.94115   0.72886   0.81997   0.00000  Uiso   1.00
H1826  H     0.93675   0.79603   0.91876   0.00000  Uiso   1.00
H1827  H     0.93010   0.67919   0.78822   0.00000  Uiso   1.00
H1828  H     0.92257   0.67986   0.84862   0.00000  Uiso   1.00
H1829  H     0.81272   0.93845   0.61373   0.00000  Uiso   1.00
H1830  H     0.85675   0.95094   0.64895   0.00000  Uiso   1.00
H1831  H     0.82217   0.99559   0.63026   0.00000  Uiso   1.00
H1832  H     0.72453   0.72324   0.67825   0.00000  Uiso   1.00
H1833  H     0.73718   0.67316   0.70809   0.00000  Uiso   1.00
H1834  H     0.74664   0.67747   0.64811   0.00000  Uiso   1.00
H1835  H     0.81111   0.95174   0.85142   0.00000  Uiso   1.00
H1836  H     0.84695   0.99579   0.87041   0.00000  Uiso   1.00
H1837  H     0.90364   0.77723   0.87254   0.00000  Uiso   1.00
H1838  H     0.85524   0.93834   0.88570   0.00000  Uiso   1.00
H1839  H     0.75640   0.79441   0.66402   0.00000  Uiso   1.00
H1840  H     0.74601   0.77731   0.60629   0.00000  Uiso   1.00
H1841  H     0.70824   0.80762   0.63806   0.00000  Uiso   1.00
H1842  H     0.74458   0.91723   0.92478   0.00000  Uiso   1.00
H1843  H     0.71157   0.92415   0.97382   0.00000  Uiso   1.00
H1844  H     0.68980   0.91028   0.91960   0.00000  Uiso   1.00
N1845  N     0.83333   0.95240   0.75000   0.00000  Uiso   1.00
N1846  N     0.83333   0.71427   0.75000   0.00000  Uiso   1.00
N1847  N     0.72757   0.81304   0.86074   0.00000  Uiso   1.00
N1848  N     0.93825   0.82078   0.63571   0.00000  Uiso   1.00
N1849  N     0.71835   0.71712   0.78386   0.00000  Uiso   1.00
N1850  N     0.94554   0.95225   0.72381   0.00000  Uiso   1.00
N1851  N     0.94598   0.71941   0.70847   0.00000  Uiso   1.00
N1852  N     0.72293   0.95041   0.78264   0.00000  Uiso   1.00
O1853  O     0.77226   0.87154   0.75000   0.00000  Uiso   1.00
O1854  O     0.75748   0.84673   0.61820   0.00000  Uiso   1.00
O1855  O     0.71880   0.85800   0.95186   0.00000  Uiso   1.00
O1856  O     0.94182   0.87378   0.54719   0.00000  Uiso   1.00
O1857  O     0.71710   0.85137   0.54438   0.00000  Uiso   1.00
O1858  O     0.94110   0.87840   0.95635   0.00000  Uiso   1.00
O1859  O     0.87866   0.71612   0.81269   0.00000  Uiso   1.00
O1860  O     0.79851   0.95219   0.67953   0.00000  Uiso   1.00
O1861  O     0.78747   0.71514   0.68757   0.00000  Uiso   1.00
O1862  O     0.86906   0.95303   0.82002   0.00000  Uiso   1.00
O1863  O     0.89441   0.79513   0.75001   0.00000  Uiso   1.00
O1864  O     0.89441   0.87154   0.75001   0.00000  Uiso   1.00
O1865  O     0.77226   0.79513   0.75000   0.00000  Uiso   1.00
O1866  O     0.83333   0.87156   0.68393   0.00000  Uiso   1.00
O1867  O     0.83334   0.79511   0.81608   0.00000  Uiso   1.00
O1868  O     0.83334   0.87156   0.81608   0.00000  Uiso   1.00
O1869  O     0.83333   0.79511   0.68393   0.00000  Uiso   1.00
O1870  O     0.90635   0.84693   0.88333   0.00000  Uiso   1.00
Zn1871 Zn    0.83333   0.88437   0.75000   0.00000  Uiso   1.00
Zn1872 Zn    0.83333   0.78229   0.75000   0.00000  Uiso   1.00
loop_
_geom_bond_atom_site_label_1
_geom_bond_atom_site_label_2
_geom_bond_distance
_geom_bond_site_symmetry_2
_ccdc_geom_bond_type
C1     C2      1.445   .     S
C1     O85     1.289   .     A
C1     O97     1.294   .     A
C2     C45     1.412   .     A
C2     C42     1.407   .     A
C3     O91     1.387   .     S
C3     N78     1.367   .     A
C3     C630    1.438   1_545 S
C4     N77     1.370   .     A
C4     O92     1.381   .     S
C4     C317    1.439   .     S
C5     O93     1.389   .     S
C5     N78     1.369   .     A
C5     C628    1.439   1_545 S
C6     N77     1.371   .     A
C6     O94     1.381   .     S
C6     C315    1.438   .     S
C7     O98     1.282   .     A
C7     C13     1.429   .     S
C7     O101    1.290   .     A
C8     O99     1.289   .     A
C8     O100    1.282   .     A
C8     C11     1.428   .     S
C9     O102    1.386   .     S
C9     C11     1.396   .     A
C9     C20     1.399   .     A
C10    C21     1.403   .     A
C10    O86     1.388   .     S
C10    C13     1.404   .     A
C11    C14     1.398   .     A
C12    O95     1.293   .     A
C12    C46     1.445   .     S
C12    O96     1.290   .     A
C13    C15     1.398   .     A
C14    C27     1.453   .     S
C14    C16     1.404   .     A
C15    C17     1.400   .     A
C15    C28     1.454   .     S
C16    C22     1.413   .     A
C16    C18     1.414   .     A
C17    C24     1.418   .     A
C17    C19     1.418   .     A
C18    C20     1.416   .     A
C18    C955    1.400   .     S
C19    C21     1.420   .     A
C19    C954    1.400   1_554 S
C20    C34     1.411   .     A
C21    C23     1.417   .     A
C22    O87     1.383   .     S
C22    C959    1.402   .     S
C23    O89     1.389   .     S
C23    C958    1.402   1_554 S
C24    O88     1.384   .     S
C24    C970    1.393   1_554 S
C25    O102    1.410   .     S
C25    H69     1.111   .     S
C25    H58     1.112   .     S
C25    H47     1.110   .     S
C26    H72     1.115   .     S
C26    H73     1.109   .     S
C26    H71     1.102   .     S
C26    O86     1.410   .     S
C27    N79     1.157   .     T
C28    N80     1.157   .     T
C29    H76     1.108   .     S
C29    H74     1.114   .     S
C29    H75     1.113   .     S
C29    O87     1.411   .     S
C30    H48     1.112   .     S
C30    H50     1.109   .     S
C30    H49     1.112   .     S
C30    O88     1.412   .     S
C31    O89     1.415   .     S
C31    H52     1.109   .     S
C31    H53     1.109   .     S
C31    H51     1.115   .     S
C32    O90     1.417   .     S
C32    H55     1.110   .     S
C32    H54     1.117   .     S
C32    H56     1.109   .     S
C33    C42     1.451   .     S
C33    N81     1.156   .     T
C34    O90     1.384   .     S
C34    C960    1.393   .     S
C35    C43     1.454   .     S
C35    N82     1.157   .     T
C36    N83     1.157   .     T
C36    C44     1.453   .     S
C37    N84     1.157   .     T
C37    C45     1.455   .     S
C38    O91     1.415   .     S
C38    H57     1.108   .     S
C38    H60     1.110   .     S
C38    H59     1.112   .     S
C39    H61     1.109   .     S
C39    O92     1.414   .     S
C39    H62     1.114   .     S
C39    H63     1.111   .     S
C40    O93     1.417   .     S
C40    H66     1.109   .     S
C40    H65     1.113   .     S
C40    H64     1.107   .     S
C41    H67     1.115   .     S
C41    H68     1.111   .     S
C41    O94     1.414   .     S
C41    H70     1.108   .     S
C42    C252    1.378   1_455 S
C43    C46     1.411   .     A
C43    C149    1.381   .     S
C44    C46     1.407   .     A
C44    C146    1.378   .     S
C45    C251    1.381   1_455 S
N77    Zn103   2.017   .     S
N78    Zn104   2.017   .     S
O85    Zn103   2.005   .     S
O95    Zn104   2.005   .     S
O96    Zn103   2.011   .     S
O97    Zn104   2.011   .     S
O98    Zn103   2.001   .     S
O99    Zn104   2.001   .     S
O100   Zn103   2.002   .     S
O101   Zn104   2.002   .     S
C105   C106    1.445   .     S
C105   O189    1.289   .     A
C105   O201    1.294   .     A
C106   C149    1.412   .     A
C106   C146    1.407   .     A
C107   O195    1.387   .     S
C107   N182    1.367   .     A
C107   C734    1.438   1_545 S
C108   N181    1.370   .     A
C108   O196    1.381   .     S
C108   C421    1.439   .     S
C109   O197    1.389   .     S
C109   N182    1.369   .     A
C109   C732    1.439   1_545 S
C110   N181    1.371   .     A
C110   O198    1.381   .     S
C110   C419    1.438   .     S
C111   O202    1.282   .     A
C111   C117    1.429   .     S
C111   O205    1.290   .     A
C112   O203    1.289   .     A
C112   O204    1.282   .     A
C112   C115    1.428   .     S
C113   O206    1.386   .     S
C113   C115    1.396   .     A
C113   C124    1.399   .     A
C114   C125    1.403   .     A
C114   O190    1.388   .     S
C114   C117    1.404   .     A
C115   C118    1.398   .     A
C116   O199    1.293   .     A
C116   C150    1.445   .     S
C116   O200    1.290   .     A
C117   C119    1.398   .     A
C118   C131    1.453   .     S
C118   C120    1.404   .     A
C119   C121    1.400   .     A
C119   C132    1.454   .     S
C120   C126    1.413   .     A
C120   C122    1.414   .     A
C121   C128    1.418   .     A
C121   C123    1.418   .     A
C122   C124    1.416   .     A
C122   C1059   1.400   .     S
C123   C125    1.420   .     A
C123   C1058   1.400   1_554 S
C124   C138    1.411   .     A
C125   C127    1.417   .     A
C126   O191    1.383   .     S
C126   C1063   1.402   .     S
C127   O193    1.389   .     S
C127   C1062   1.402   1_554 S
C128   O192    1.384   .     S
C128   C1074   1.393   1_554 S
C129   O206    1.410   .     S
C129   H173    1.111   .     S
C129   H162    1.112   .     S
C129   H151    1.110   .     S
C130   H176    1.115   .     S
C130   H177    1.109   .     S
C130   H175    1.102   .     S
C130   O190    1.410   .     S
C131   N183    1.157   .     T
C132   N184    1.157   .     T
C133   H180    1.108   .     S
C133   H178    1.114   .     S
C133   H179    1.113   .     S
C133   O191    1.411   .     S
C134   H152    1.112   .     S
C134   H154    1.109   .     S
C134   H153    1.112   .     S
C134   O192    1.412   .     S
C135   O193    1.415   .     S
C135   H156    1.109   .     S
C135   H157    1.109   .     S
C135   H155    1.115   .     S
C136   O194    1.417   .     S
C136   H159    1.110   .     S
C136   H158    1.117   .     S
C136   H160    1.109   .     S
C137   C146    1.451   .     S
C137   N185    1.156   .     T
C138   O194    1.384   .     S
C138   C1064   1.393   .     S
C139   C147    1.454   .     S
C139   N186    1.157   .     T
C140   N187    1.157   .     T
C140   C148    1.453   .     S
C141   N188    1.157   .     T
C141   C149    1.455   .     S
C142   O195    1.415   .     S
C142   H161    1.108   .     S
C142   H164    1.110   .     S
C142   H163    1.112   .     S
C143   H165    1.109   .     S
C143   O196    1.414   .     S
C143   H166    1.114   .     S
C143   H167    1.111   .     S
C144   O197    1.417   .     S
C144   H170    1.109   .     S
C144   H169    1.113   .     S
C144   H168    1.107   .     S
C145   H171    1.115   .     S
C145   H172    1.111   .     S
C145   O198    1.414   .     S
C145   H174    1.108   .     S
C147   C150    1.411   .     A
C147   C253    1.381   .     S
C148   C150    1.407   .     A
C148   C250    1.378   .     S
N181   Zn207   2.017   .     S
N182   Zn208   2.017   .     S
O189   Zn207   2.005   .     S
O199   Zn208   2.005   .     S
O200   Zn207   2.011   .     S
O201   Zn208   2.011   .     S
O202   Zn207   2.001   .     S
O203   Zn208   2.001   .     S
O204   Zn207   2.002   .     S
O205   Zn208   2.002   .     S
C209   C210    1.445   .     S
C209   O293    1.289   .     A
C209   O305    1.294   .     A
C210   C253    1.412   .     A
C210   C250    1.407   .     A
C211   O299    1.387   .     S
C211   N286    1.367   .     A
C211   C838    1.438   1_545 S
C212   N285    1.370   .     A
C212   O300    1.381   .     S
C212   C525    1.439   .     S
C213   O301    1.389   .     S
C213   N286    1.369   .     A
C213   C836    1.439   1_545 S
C214   N285    1.371   .     A
C214   O302    1.381   .     S
C214   C523    1.438   .     S
C215   O306    1.282   .     A
C215   C221    1.429   .     S
C215   O309    1.290   .     A
C216   O307    1.289   .     A
C216   O308    1.282   .     A
C216   C219    1.428   .     S
C217   O310    1.386   .     S
C217   C219    1.396   .     A
C217   C228    1.399   .     A
C218   C229    1.403   .     A
C218   O294    1.388   .     S
C218   C221    1.404   .     A
C219   C222    1.398   .     A
C220   O303    1.293   .     A
C220   C254    1.445   .     S
C220   O304    1.290   .     A
C221   C223    1.398   .     A
C222   C235    1.453   .     S
C222   C224    1.404   .     A
C223   C225    1.400   .     A
C223   C236    1.454   .     S
C224   C230    1.413   .     A
C224   C226    1.414   .     A
C225   C232    1.418   .     A
C225   C227    1.418   .     A
C226   C228    1.416   .     A
C226   C1163   1.400   .     S
C227   C229    1.420   .     A
C227   C1162   1.400   1_554 S
C228   C242    1.411   .     A
C229   C231    1.417   .     A
C230   O295    1.383   .     S
C230   C1167   1.402   .     S
C231   O297    1.389   .     S
C231   C1166   1.402   1_554 S
C232   O296    1.384   .     S
C232   C1178   1.393   1_554 S
C233   O310    1.410   .     S
C233   H277    1.111   .     S
C233   H266    1.112   .     S
C233   H255    1.110   .     S
C234   H280    1.115   .     S
C234   H281    1.109   .     S
C234   H279    1.102   .     S
C234   O294    1.410   .     S
C235   N287    1.157   .     T
C236   N288    1.157   .     T
C237   H284    1.108   .     S
C237   H282    1.114   .     S
C237   H283    1.113   .     S
C237   O295    1.411   .     S
C238   H256    1.112   .     S
C238   H258    1.109   .     S
C238   H257    1.112   .     S
C238   O296    1.412   .     S
C239   O297    1.415   .     S
C239   H260    1.109   .     S
C239   H261    1.109   .     S
C239   H259    1.115   .     S
C240   O298    1.417   .     S
C240   H263    1.110   .     S
C240   H262    1.117   .     S
C240   H264    1.109   .     S
C241   C250    1.451   .     S
C241   N289    1.156   .     T
C242   O298    1.384   .     S
C242   C1168   1.393   .     S
C243   C251    1.454   .     S
C243   N290    1.157   .     T
C244   N291    1.157   .     T
C244   C252    1.453   .     S
C245   N292    1.157   .     T
C245   C253    1.455   .     S
C246   O299    1.415   .     S
C246   H265    1.108   .     S
C246   H268    1.110   .     S
C246   H267    1.112   .     S
C247   H269    1.109   .     S
C247   O300    1.414   .     S
C247   H270    1.114   .     S
C247   H271    1.111   .     S
C248   O301    1.417   .     S
C248   H274    1.109   .     S
C248   H273    1.113   .     S
C248   H272    1.107   .     S
C249   H275    1.115   .     S
C249   H276    1.111   .     S
C249   O302    1.414   .     S
C249   H278    1.108   .     S
C251   C254    1.411   .     A
C251   C45     1.381   1_655 S
C252   C254    1.407   .     A
C252   C42     1.378   1_655 S
N285   Zn311   2.017   .     S
N286   Zn312   2.017   .     S
O293   Zn311   2.005   .     S
O303   Zn312   2.005   .     S
O304   Zn311   2.011   .     S
O305   Zn312   2.011   .     S
O306   Zn311   2.001   .     S
O307   Zn312   2.001   .     S
O308   Zn311   2.002   .     S
O309   Zn312   2.002   .     S
C313   C314    1.445   .     S
C313   O397    1.289   .     A
C313   O409    1.294   .     A
C314   C357    1.412   .     A
C314   C354    1.407   .     A
C315   O403    1.387   .     S
C315   N390    1.367   .     A
C316   N389    1.370   .     A
C316   O404    1.381   .     S
C316   C629    1.439   .     S
C317   O405    1.389   .     S
C317   N390    1.369   .     A
C318   N389    1.371   .     A
C318   O406    1.381   .     S
C318   C627    1.438   .     S
C319   O410    1.282   .     A
C319   C325    1.429   .     S
C319   O413    1.290   .     A
C320   O411    1.289   .     A
C320   O412    1.282   .     A
C320   C323    1.428   .     S
C321   O414    1.386   .     S
C321   C323    1.396   .     A
C321   C332    1.399   .     A
C322   C333    1.403   .     A
C322   O398    1.388   .     S
C322   C325    1.404   .     A
C323   C326    1.398   .     A
C324   O407    1.293   .     A
C324   C358    1.445   .     S
C324   O408    1.290   .     A
C325   C327    1.398   .     A
C326   C339    1.453   .     S
C326   C328    1.404   .     A
C327   C329    1.400   .     A
C327   C340    1.454   .     S
C328   C334    1.413   .     A
C328   C330    1.414   .     A
C329   C336    1.418   .     A
C329   C331    1.418   .     A
C330   C332    1.416   .     A
C330   C1267   1.400   .     S
C331   C333    1.420   .     A
C331   C1266   1.400   1_554 S
C332   C346    1.411   .     A
C333   C335    1.417   .     A
C334   O399    1.383   .     S
C334   C1271   1.402   .     S
C335   O401    1.389   .     S
C335   C1270   1.402   1_554 S
C336   O400    1.384   .     S
C336   C1282   1.393   1_554 S
C337   O414    1.410   .     S
C337   H381    1.111   .     S
C337   H370    1.112   .     S
C337   H359    1.110   .     S
C338   H384    1.115   .     S
C338   H385    1.109   .     S
C338   H383    1.102   .     S
C338   O398    1.410   .     S
C339   N391    1.157   .     T
C340   N392    1.157   .     T
C341   H388    1.108   .     S
C341   H386    1.114   .     S
C341   H387    1.113   .     S
C341   O399    1.411   .     S
C342   H360    1.112   .     S
C342   H362    1.109   .     S
C342   H361    1.112   .     S
C342   O400    1.412   .     S
C343   O401    1.415   .     S
C343   H364    1.109   .     S
C343   H365    1.109   .     S
C343   H363    1.115   .     S
C344   O402    1.417   .     S
C344   H367    1.110   .     S
C344   H366    1.117   .     S
C344   H368    1.109   .     S
C345   C354    1.451   .     S
C345   N393    1.156   .     T
C346   O402    1.384   .     S
C346   C1272   1.393   .     S
C347   C355    1.454   .     S
C347   N394    1.157   .     T
C348   N395    1.157   .     T
C348   C356    1.453   .     S
C349   N396    1.157   .     T
C349   C357    1.455   .     S
C350   O403    1.415   .     S
C350   H369    1.108   .     S
C350   H372    1.110   .     S
C350   H371    1.112   .     S
C351   H373    1.109   .     S
C351   O404    1.414   .     S
C351   H374    1.114   .     S
C351   H375    1.111   .     S
C352   O405    1.417   .     S
C352   H378    1.109   .     S
C352   H377    1.113   .     S
C352   H376    1.107   .     S
C353   H379    1.115   .     S
C353   H380    1.111   .     S
C353   O406    1.414   .     S
C353   H382    1.108   .     S
C354   C564    1.378   1_455 S
C355   C358    1.411   .     A
C355   C461    1.381   .     S
C356   C358    1.407   .     A
C356   C458    1.378   .     S
C357   C563    1.381   1_455 S
N389   Zn415   2.017   .     S
N390   Zn416   2.017   .     S
O397   Zn415   2.005   .     S
O407   Zn416   2.005   .     S
O408   Zn415   2.011   .     S
O409   Zn416   2.011   .     S
O410   Zn415   2.001   .     S
O411   Zn416   2.001   .     S
O412   Zn415   2.002   .     S
O413   Zn416   2.002   .     S
C417   C418    1.445   .     S
C417   O501    1.289   .     A
C417   O513    1.294   .     A
C418   C461    1.412   .     A
C418   C458    1.407   .     A
C419   O507    1.387   .     S
C419   N494    1.367   .     A
C420   N493    1.370   .     A
C420   O508    1.381   .     S
C420   C733    1.439   .     S
C421   O509    1.389   .     S
C421   N494    1.369   .     A
C422   N493    1.371   .     A
C422   O510    1.381   .     S
C422   C731    1.438   .     S
C423   O514    1.282   .     A
C423   C429    1.429   .     S
C423   O517    1.290   .     A
C424   O515    1.289   .     A
C424   O516    1.282   .     A
C424   C427    1.428   .     S
C425   O518    1.386   .     S
C425   C427    1.396   .     A
C425   C436    1.399   .     A
C426   C437    1.403   .     A
C426   O502    1.388   .     S
C426   C429    1.404   .     A
C427   C430    1.398   .     A
C428   O511    1.293   .     A
C428   C462    1.445   .     S
C428   O512    1.290   .     A
C429   C431    1.398   .     A
C430   C443    1.453   .     S
C430   C432    1.404   .     A
C431   C433    1.400   .     A
C431   C444    1.454   .     S
C432   C438    1.413   .     A
C432   C434    1.414   .     A
C433   C440    1.418   .     A
C433   C435    1.418   .     A
C434   C436    1.416   .     A
C434   C1371   1.400   .     S
C435   C437    1.420   .     A
C435   C1370   1.400   1_554 S
C436   C450    1.411   .     A
C437   C439    1.417   .     A
C438   O503    1.383   .     S
C438   C1375   1.402   .     S
C439   O505    1.389   .     S
C439   C1374   1.402   1_554 S
C440   O504    1.384   .     S
C440   C1386   1.393   1_554 S
C441   O518    1.410   .     S
C441   H485    1.111   .     S
C441   H474    1.112   .     S
C441   H463    1.110   .     S
C442   H488    1.115   .     S
C442   H489    1.109   .     S
C442   H487    1.102   .     S
C442   O502    1.410   .     S
C443   N495    1.157   .     T
C444   N496    1.157   .     T
C445   H492    1.108   .     S
C445   H490    1.114   .     S
C445   H491    1.113   .     S
C445   O503    1.411   .     S
C446   H464    1.112   .     S
C446   H466    1.109   .     S
C446   H465    1.112   .     S
C446   O504    1.412   .     S
C447   O505    1.415   .     S
C447   H468    1.109   .     S
C447   H469    1.109   .     S
C447   H467    1.115   .     S
C448   O506    1.417   .     S
C448   H471    1.110   .     S
C448   H470    1.117   .     S
C448   H472    1.109   .     S
C449   C458    1.451   .     S
C449   N497    1.156   .     T
C450   O506    1.384   .     S
C450   C1376   1.393   .     S
C451   C459    1.454   .     S
C451   N498    1.157   .     T
C452   N499    1.157   .     T
C452   C460    1.453   .     S
C453   N500    1.157   .     T
C453   C461    1.455   .     S
C454   O507    1.415   .     S
C454   H473    1.108   .     S
C454   H476    1.110   .     S
C454   H475    1.112   .     S
C455   H477    1.109   .     S
C455   O508    1.414   .     S
C455   H478    1.114   .     S
C455   H479    1.111   .     S
C456   O509    1.417   .     S
C456   H482    1.109   .     S
C456   H481    1.113   .     S
C456   H480    1.107   .     S
C457   H483    1.115   .     S
C457   H484    1.111   .     S
C457   O510    1.414   .     S
C457   H486    1.108   .     S
C459   C462    1.411   .     A
C459   C565    1.381   .     S
C460   C462    1.407   .     A
C460   C562    1.378   .     S
N493   Zn519   2.017   .     S
N494   Zn520   2.017   .     S
O501   Zn519   2.005   .     S
O511   Zn520   2.005   .     S
O512   Zn519   2.011   .     S
O513   Zn520   2.011   .     S
O514   Zn519   2.001   .     S
O515   Zn520   2.001   .     S
O516   Zn519   2.002   .     S
O517   Zn520   2.002   .     S
C521   C522    1.445   .     S
C521   O605    1.289   .     A
C521   O617    1.294   .     A
C522   C565    1.412   .     A
C522   C562    1.407   .     A
C523   O611    1.387   .     S
C523   N598    1.367   .     A
C524   N597    1.370   .     A
C524   O612    1.381   .     S
C524   C837    1.439   .     S
C525   O613    1.389   .     S
C525   N598    1.369   .     A
C526   N597    1.371   .     A
C526   O614    1.381   .     S
C526   C835    1.438   .     S
C527   O618    1.282   .     A
C527   C533    1.429   .     S
C527   O621    1.290   .     A
C528   O619    1.289   .     A
C528   O620    1.282   .     A
C528   C531    1.428   .     S
C529   O622    1.386   .     S
C529   C531    1.396   .     A
C529   C540    1.399   .     A
C530   C541    1.403   .     A
C530   O606    1.388   .     S
C530   C533    1.404   .     A
C531   C534    1.398   .     A
C532   O615    1.293   .     A
C532   C566    1.445   .     S
C532   O616    1.290   .     A
C533   C535    1.398   .     A
C534   C547    1.453   .     S
C534   C536    1.404   .     A
C535   C537    1.400   .     A
C535   C548    1.454   .     S
C536   C542    1.413   .     A
C536   C538    1.414   .     A
C537   C544    1.418   .     A
C537   C539    1.418   .     A
C538   C540    1.416   .     A
C538   C1475   1.400   .     S
C539   C541    1.420   .     A
C539   C1474   1.400   1_554 S
C540   C554    1.411   .     A
C541   C543    1.417   .     A
C542   O607    1.383   .     S
C542   C1479   1.402   .     S
C543   O609    1.389   .     S
C543   C1478   1.402   1_554 S
C544   O608    1.384   .     S
C544   C1490   1.393   1_554 S
C545   O622    1.410   .     S
C545   H589    1.111   .     S
C545   H578    1.112   .     S
C545   H567    1.110   .     S
C546   H592    1.115   .     S
C546   H593    1.109   .     S
C546   H591    1.102   .     S
C546   O606    1.410   .     S
C547   N599    1.157   .     T
C548   N600    1.157   .     T
C549   H596    1.108   .     S
C549   H594    1.114   .     S
C549   H595    1.113   .     S
C549   O607    1.411   .     S
C550   H568    1.112   .     S
C550   H570    1.109   .     S
C550   H569    1.112   .     S
C550   O608    1.412   .     S
C551   O609    1.415   .     S
C551   H572    1.109   .     S
C551   H573    1.109   .     S
C551   H571    1.115   .     S
C552   O610    1.417   .     S
C552   H575    1.110   .     S
C552   H574    1.117   .     S
C552   H576    1.109   .     S
C553   C562    1.451   .     S
C553   N601    1.156   .     T
C554   O610    1.384   .     S
C554   C1480   1.393   .     S
C555   C563    1.454   .     S
C555   N602    1.157   .     T
C556   N603    1.157   .     T
C556   C564    1.453   .     S
C557   N604    1.157   .     T
C557   C565    1.455   .     S
C558   O611    1.415   .     S
C558   H577    1.108   .     S
C558   H580    1.110   .     S
C558   H579    1.112   .     S
C559   H581    1.109   .     S
C559   O612    1.414   .     S
C559   H582    1.114   .     S
C559   H583    1.111   .     S
C560   O613    1.417   .     S
C560   H586    1.109   .     S
C560   H585    1.113   .     S
C560   H584    1.107   .     S
C561   H587    1.115   .     S
C561   H588    1.111   .     S
C561   O614    1.414   .     S
C561   H590    1.108   .     S
C563   C566    1.411   .     A
C563   C357    1.381   1_655 S
C564   C566    1.407   .     A
C564   C354    1.378   1_655 S
N597   Zn623   2.017   .     S
N598   Zn624   2.017   .     S
O605   Zn623   2.005   .     S
O615   Zn624   2.005   .     S
O616   Zn623   2.011   .     S
O617   Zn624   2.011   .     S
O618   Zn623   2.001   .     S
O619   Zn624   2.001   .     S
O620   Zn623   2.002   .     S
O621   Zn624   2.002   .     S
C625   C626    1.445   .     S
C625   O709    1.289   .     A
C625   O721    1.294   .     A
C626   C669    1.412   .     A
C626   C666    1.407   .     A
C627   O715    1.387   .     S
C627   N702    1.367   .     A
C628   N701    1.370   .     A
C628   O716    1.381   .     S
C628   C5      1.439   1_565 S
C629   O717    1.389   .     S
C629   N702    1.369   .     A
C630   N701    1.371   .     A
C630   O718    1.381   .     S
C630   C3      1.438   1_565 S
C631   O722    1.282   .     A
C631   C637    1.429   .     S
C631   O725    1.290   .     A
C632   O723    1.289   .     A
C632   O724    1.282   .     A
C632   C635    1.428   .     S
C633   O726    1.386   .     S
C633   C635    1.396   .     A
C633   C644    1.399   .     A
C634   C645    1.403   .     A
C634   O710    1.388   .     S
C634   C637    1.404   .     A
C635   C638    1.398   .     A
C636   O719    1.293   .     A
C636   C670    1.445   .     S
C636   O720    1.290   .     A
C637   C639    1.398   .     A
C638   C651    1.453   .     S
C638   C640    1.404   .     A
C639   C641    1.400   .     A
C639   C652    1.454   .     S
C640   C646    1.413   .     A
C640   C642    1.414   .     A
C641   C648    1.418   .     A
C641   C643    1.418   .     A
C642   C644    1.416   .     A
C642   C1579   1.400   .     S
C643   C645    1.420   .     A
C643   C1578   1.400   1_554 S
C644   C658    1.411   .     A
C645   C647    1.417   .     A
C646   O711    1.383   .     S
C646   C1583   1.402   .     S
C647   O713    1.389   .     S
C647   C1582   1.402   1_554 S
C648   O712    1.384   .     S
C648   C1594   1.393   1_554 S
C649   O726    1.410   .     S
C649   H693    1.111   .     S
C649   H682    1.112   .     S
C649   H671    1.110   .     S
C650   H696    1.115   .     S
C650   H697    1.109   .     S
C650   H695    1.102   .     S
C650   O710    1.410   .     S
C651   N703    1.157   .     T
C652   N704    1.157   .     T
C653   H700    1.108   .     S
C653   H698    1.114   .     S
C653   H699    1.113   .     S
C653   O711    1.411   .     S
C654   H672    1.112   .     S
C654   H674    1.109   .     S
C654   H673    1.112   .     S
C654   O712    1.412   .     S
C655   O713    1.415   .     S
C655   H676    1.109   .     S
C655   H677    1.109   .     S
C655   H675    1.115   .     S
C656   O714    1.417   .     S
C656   H679    1.110   .     S
C656   H678    1.117   .     S
C656   H680    1.109   .     S
C657   C666    1.451   .     S
C657   N705    1.156   .     T
C658   O714    1.384   .     S
C658   C1584   1.393   .     S
C659   C667    1.454   .     S
C659   N706    1.157   .     T
C660   N707    1.157   .     T
C660   C668    1.453   .     S
C661   N708    1.157   .     T
C661   C669    1.455   .     S
C662   O715    1.415   .     S
C662   H681    1.108   .     S
C662   H684    1.110   .     S
C662   H683    1.112   .     S
C663   H685    1.109   .     S
C663   O716    1.414   .     S
C663   H686    1.114   .     S
C663   H687    1.111   .     S
C664   O717    1.417   .     S
C664   H690    1.109   .     S
C664   H689    1.113   .     S
C664   H688    1.107   .     S
C665   H691    1.115   .     S
C665   H692    1.111   .     S
C665   O718    1.414   .     S
C665   H694    1.108   .     S
C666   C876    1.378   1_455 S
C667   C670    1.411   .     A
C667   C773    1.381   .     S
C668   C670    1.407   .     A
C668   C770    1.378   .     S
C669   C875    1.381   1_455 S
N701   Zn727   2.017   .     S
N702   Zn728   2.017   .     S
O709   Zn727   2.005   .     S
O719   Zn728   2.005   .     S
O720   Zn727   2.011   .     S
O721   Zn728   2.011   .     S
O722   Zn727   2.001   .     S
O723   Zn728   2.001   .     S
O724   Zn727   2.002   .     S
O725   Zn728   2.002   .     S
C729   C730    1.445   .     S
C729   O813    1.289   .     A
C729   O825    1.294   .     A
C730   C773    1.412   .     A
C730   C770    1.407   .     A
C731   O819    1.387   .     S
C731   N806    1.367   .     A
C732   N805    1.370   .     A
C732   O820    1.381   .     S
C732   C109    1.439   1_565 S
C733   O821    1.389   .     S
C733   N806    1.369   .     A
C734   N805    1.371   .     A
C734   O822    1.381   .     S
C734   C107    1.438   1_565 S
C735   O826    1.282   .     A
C735   C741    1.429   .     S
C735   O829    1.290   .     A
C736   O827    1.289   .     A
C736   O828    1.282   .     A
C736   C739    1.428   .     S
C737   O830    1.386   .     S
C737   C739    1.396   .     A
C737   C748    1.399   .     A
C738   C749    1.403   .     A
C738   O814    1.388   .     S
C738   C741    1.404   .     A
C739   C742    1.398   .     A
C740   O823    1.293   .     A
C740   C774    1.445   .     S
C740   O824    1.290   .     A
C741   C743    1.398   .     A
C742   C755    1.453   .     S
C742   C744    1.404   .     A
C743   C745    1.400   .     A
C743   C756    1.454   .     S
C744   C750    1.413   .     A
C744   C746    1.414   .     A
C745   C752    1.418   .     A
C745   C747    1.418   .     A
C746   C748    1.416   .     A
C746   C1683   1.400   .     S
C747   C749    1.420   .     A
C747   C1682   1.400   1_554 S
C748   C762    1.411   .     A
C749   C751    1.417   .     A
C750   O815    1.383   .     S
C750   C1687   1.402   .     S
C751   O817    1.389   .     S
C751   C1686   1.402   1_554 S
C752   O816    1.384   .     S
C752   C1698   1.393   1_554 S
C753   O830    1.410   .     S
C753   H797    1.111   .     S
C753   H786    1.112   .     S
C753   H775    1.110   .     S
C754   H800    1.115   .     S
C754   H801    1.109   .     S
C754   H799    1.102   .     S
C754   O814    1.410   .     S
C755   N807    1.157   .     T
C756   N808    1.157   .     T
C757   H804    1.108   .     S
C757   H802    1.114   .     S
C757   H803    1.113   .     S
C757   O815    1.411   .     S
C758   H776    1.112   .     S
C758   H778    1.109   .     S
C758   H777    1.112   .     S
C758   O816    1.412   .     S
C759   O817    1.415   .     S
C759   H780    1.109   .     S
C759   H781    1.109   .     S
C759   H779    1.115   .     S
C760   O818    1.417   .     S
C760   H783    1.110   .     S
C760   H782    1.117   .     S
C760   H784    1.109   .     S
C761   C770    1.451   .     S
C761   N809    1.156   .     T
C762   O818    1.384   .     S
C762   C1688   1.393   .     S
C763   C771    1.454   .     S
C763   N810    1.157   .     T
C764   N811    1.157   .     T
C764   C772    1.453   .     S
C765   N812    1.157   .     T
C765   C773    1.455   .     S
C766   O819    1.415   .     S
C766   H785    1.108   .     S
C766   H788    1.110   .     S
C766   H787    1.112   .     S
C767   H789    1.109   .     S
C767   O820    1.414   .     S
C767   H790    1.114   .     S
C767   H791    1.111   .     S
C768   O821    1.417   .     S
C768   H794    1.109   .     S
C768   H793    1.113   .     S
C768   H792    1.107   .     S
C769   H795    1.115   .     S
C769   H796    1.111   .     S
C769   O822    1.414   .     S
C769   H798    1.108   .     S
C771   C774    1.411   .     A
C771   C877    1.381   .     S
C772   C774    1.407   .     A
C772   C874    1.378   .     S
N805   Zn831   2.017   .     S
N806   Zn832   2.017   .     S
O813   Zn831   2.005   .     S
O823   Zn832   2.005   .     S
O824   Zn831   2.011   .     S
O825   Zn832   2.011   .     S
O826   Zn831   2.001   .     S
O827   Zn832   2.001   .     S
O828   Zn831   2.002   .     S
O829   Zn832   2.002   .     S
C833   C834    1.445   .     S
C833   O917    1.289   .     A
C833   O929    1.294   .     A
C834   C877    1.412   .     A
C834   C874    1.407   .     A
C835   O923    1.387   .     S
C835   N910    1.367   .     A
C836   N909    1.370   .     A
C836   O924    1.381   .     S
C836   C213    1.439   1_565 S
C837   O925    1.389   .     S
C837   N910    1.369   .     A
C838   N909    1.371   .     A
C838   O926    1.381   .     S
C838   C211    1.438   1_565 S
C839   O930    1.282   .     A
C839   C845    1.429   .     S
C839   O933    1.290   .     A
C840   O931    1.289   .     A
C840   O932    1.282   .     A
C840   C843    1.428   .     S
C841   O934    1.386   .     S
C841   C843    1.396   .     A
C841   C852    1.399   .     A
C842   C853    1.403   .     A
C842   O918    1.388   .     S
C842   C845    1.404   .     A
C843   C846    1.398   .     A
C844   O927    1.293   .     A
C844   C878    1.445   .     S
C844   O928    1.290   .     A
C845   C847    1.398   .     A
C846   C859    1.453   .     S
C846   C848    1.404   .     A
C847   C849    1.400   .     A
C847   C860    1.454   .     S
C848   C854    1.413   .     A
C848   C850    1.414   .     A
C849   C856    1.418   .     A
C849   C851    1.418   .     A
C850   C852    1.416   .     A
C850   C1787   1.400   .     S
C851   C853    1.420   .     A
C851   C1786   1.400   1_554 S
C852   C866    1.411   .     A
C853   C855    1.417   .     A
C854   O919    1.383   .     S
C854   C1791   1.402   .     S
C855   O921    1.389   .     S
C855   C1790   1.402   1_554 S
C856   O920    1.384   .     S
C856   C1802   1.393   1_554 S
C857   O934    1.410   .     S
C857   H901    1.111   .     S
C857   H890    1.112   .     S
C857   H879    1.110   .     S
C858   H904    1.115   .     S
C858   H905    1.109   .     S
C858   H903    1.102   .     S
C858   O918    1.410   .     S
C859   N911    1.157   .     T
C860   N912    1.157   .     T
C861   H908    1.108   .     S
C861   H906    1.114   .     S
C861   H907    1.113   .     S
C861   O919    1.411   .     S
C862   H880    1.112   .     S
C862   H882    1.109   .     S
C862   H881    1.112   .     S
C862   O920    1.412   .     S
C863   O921    1.415   .     S
C863   H884    1.109   .     S
C863   H885    1.109   .     S
C863   H883    1.115   .     S
C864   O922    1.417   .     S
C864   H887    1.110   .     S
C864   H886    1.117   .     S
C864   H888    1.109   .     S
C865   C874    1.451   .     S
C865   N913    1.156   .     T
C866   O922    1.384   .     S
C866   C1792   1.393   .     S
C867   C875    1.454   .     S
C867   N914    1.157   .     T
C868   N915    1.157   .     T
C868   C876    1.453   .     S
C869   N916    1.157   .     T
C869   C877    1.455   .     S
C870   O923    1.415   .     S
C870   H889    1.108   .     S
C870   H892    1.110   .     S
C870   H891    1.112   .     S
C871   H893    1.109   .     S
C871   O924    1.414   .     S
C871   H894    1.114   .     S
C871   H895    1.111   .     S
C872   O925    1.417   .     S
C872   H898    1.109   .     S
C872   H897    1.113   .     S
C872   H896    1.107   .     S
C873   H899    1.115   .     S
C873   H900    1.111   .     S
C873   O926    1.414   .     S
C873   H902    1.108   .     S
C875   C878    1.411   .     A
C875   C669    1.381   1_655 S
C876   C878    1.407   .     A
C876   C666    1.378   1_655 S
N909   Zn935   2.017   .     S
N910   Zn936   2.017   .     S
O917   Zn935   2.005   .     S
O927   Zn936   2.005   .     S
O928   Zn935   2.011   .     S
O929   Zn936   2.011   .     S
O930   Zn935   2.001   .     S
O931   Zn936   2.001   .     S
O932   Zn935   2.002   .     S
O933   Zn936   2.002   .     S
C937   C938    1.445   .     S
C937   O1021   1.289   .     A
C937   O1033   1.294   .     A
C938   C981    1.412   .     A
C938   C978    1.407   .     A
C939   O1027   1.387   .     S
C939   N1014   1.367   .     A
C939   C1566   1.438   1_545 S
C940   N1013   1.370   .     A
C940   O1028   1.381   .     S
C940   C1253   1.439   .     S
C941   O1029   1.389   .     S
C941   N1014   1.369   .     A
C941   C1564   1.439   1_545 S
C942   N1013   1.371   .     A
C942   O1030   1.381   .     S
C942   C1251   1.438   .     S
C943   O1034   1.282   .     A
C943   C949    1.429   .     S
C943   O1037   1.290   .     A
C944   O1035   1.289   .     A
C944   O1036   1.282   .     A
C944   C947    1.428   .     S
C945   O1038   1.386   .     S
C945   C947    1.396   .     A
C945   C956    1.399   .     A
C946   C957    1.403   .     A
C946   O1022   1.388   .     S
C946   C949    1.404   .     A
C947   C950    1.398   .     A
C948   O1031   1.293   .     A
C948   C982    1.445   .     S
C948   O1032   1.290   .     A
C949   C951    1.398   .     A
C950   C963    1.453   .     S
C950   C952    1.404   .     A
C951   C953    1.400   .     A
C951   C964    1.454   .     S
C952   C958    1.413   .     A
C952   C954    1.414   .     A
C953   C960    1.418   .     A
C953   C955    1.418   .     A
C954   C956    1.416   .     A
C954   C19     1.400   1_556 S
C955   C957    1.420   .     A
C956   C970    1.411   .     A
C957   C959    1.417   .     A
C958   O1023   1.383   .     S
C958   C23     1.402   1_556 S
C959   O1025   1.389   .     S
C960   O1024   1.384   .     S
C961   O1038   1.410   .     S
C961   H1005   1.111   .     S
C961   H994    1.112   .     S
C961   H983    1.110   .     S
C962   H1008   1.115   .     S
C962   H1009   1.109   .     S
C962   H1007   1.102   .     S
C962   O1022   1.410   .     S
C963   N1015   1.157   .     T
C964   N1016   1.157   .     T
C965   H1012   1.108   .     S
C965   H1010   1.114   .     S
C965   H1011   1.113   .     S
C965   O1023   1.411   .     S
C966   H984    1.112   .     S
C966   H986    1.109   .     S
C966   H985    1.112   .     S
C966   O1024   1.412   .     S
C967   O1025   1.415   .     S
C967   H988    1.109   .     S
C967   H989    1.109   .     S
C967   H987    1.115   .     S
C968   O1026   1.417   .     S
C968   H991    1.110   .     S
C968   H990    1.117   .     S
C968   H992    1.109   .     S
C969   C978    1.451   .     S
C969   N1017   1.156   .     T
C970   O1026   1.384   .     S
C970   C24     1.393   1_556 S
C971   C979    1.454   .     S
C971   N1018   1.157   .     T
C972   N1019   1.157   .     T
C972   C980    1.453   .     S
C973   N1020   1.157   .     T
C973   C981    1.455   .     S
C974   O1027   1.415   .     S
C974   H993    1.108   .     S
C974   H996    1.110   .     S
C974   H995    1.112   .     S
C975   H997    1.109   .     S
C975   O1028   1.414   .     S
C975   H998    1.114   .     S
C975   H999    1.111   .     S
C976   O1029   1.417   .     S
C976   H1002   1.109   .     S
C976   H1001   1.113   .     S
C976   H1000   1.107   .     S
C977   H1003   1.115   .     S
C977   H1004   1.111   .     S
C977   O1030   1.414   .     S
C977   H1006   1.108   .     S
C978   C1188   1.378   1_455 S
C979   C982    1.411   .     A
C979   C1085   1.381   .     S
C980   C982    1.407   .     A
C980   C1082   1.378   .     S
C981   C1187   1.381   1_455 S
N1013  Zn1039  2.017   .     S
N1014  Zn1040  2.017   .     S
O1021  Zn1039  2.005   .     S
O1031  Zn1040  2.005   .     S
O1032  Zn1039  2.011   .     S
O1033  Zn1040  2.011   .     S
O1034  Zn1039  2.001   .     S
O1035  Zn1040  2.001   .     S
O1036  Zn1039  2.002   .     S
O1037  Zn1040  2.002   .     S
C1041  C1042   1.445   .     S
C1041  O1125   1.289   .     A
C1041  O1137   1.294   .     A
C1042  C1085   1.412   .     A
C1042  C1082   1.407   .     A
C1043  O1131   1.387   .     S
C1043  N1118   1.367   .     A
C1043  C1670   1.438   1_545 S
C1044  N1117   1.370   .     A
C1044  O1132   1.381   .     S
C1044  C1357   1.439   .     S
C1045  O1133   1.389   .     S
C1045  N1118   1.369   .     A
C1045  C1668   1.439   1_545 S
C1046  N1117   1.371   .     A
C1046  O1134   1.381   .     S
C1046  C1355   1.438   .     S
C1047  O1138   1.282   .     A
C1047  C1053   1.429   .     S
C1047  O1141   1.290   .     A
C1048  O1139   1.289   .     A
C1048  O1140   1.282   .     A
C1048  C1051   1.428   .     S
C1049  O1142   1.386   .     S
C1049  C1051   1.396   .     A
C1049  C1060   1.399   .     A
C1050  C1061   1.403   .     A
C1050  O1126   1.388   .     S
C1050  C1053   1.404   .     A
C1051  C1054   1.398   .     A
C1052  O1135   1.293   .     A
C1052  C1086   1.445   .     S
C1052  O1136   1.290   .     A
C1053  C1055   1.398   .     A
C1054  C1067   1.453   .     S
C1054  C1056   1.404   .     A
C1055  C1057   1.400   .     A
C1055  C1068   1.454   .     S
C1056  C1062   1.413   .     A
C1056  C1058   1.414   .     A
C1057  C1064   1.418   .     A
C1057  C1059   1.418   .     A
C1058  C1060   1.416   .     A
C1058  C123    1.400   1_556 S
C1059  C1061   1.420   .     A
C1060  C1074   1.411   .     A
C1061  C1063   1.417   .     A
C1062  O1127   1.383   .     S
C1062  C127    1.402   1_556 S
C1063  O1129   1.389   .     S
C1064  O1128   1.384   .     S
C1065  O1142   1.410   .     S
C1065  H1109   1.111   .     S
C1065  H1098   1.112   .     S
C1065  H1087   1.110   .     S
C1066  H1112   1.115   .     S
C1066  H1113   1.109   .     S
C1066  H1111   1.102   .     S
C1066  O1126   1.410   .     S
C1067  N1119   1.157   .     T
C1068  N1120   1.157   .     T
C1069  H1116   1.108   .     S
C1069  H1114   1.114   .     S
C1069  H1115   1.113   .     S
C1069  O1127   1.411   .     S
C1070  H1088   1.112   .     S
C1070  H1090   1.109   .     S
C1070  H1089   1.112   .     S
C1070  O1128   1.412   .     S
C1071  O1129   1.415   .     S
C1071  H1092   1.109   .     S
C1071  H1093   1.109   .     S
C1071  H1091   1.115   .     S
C1072  O1130   1.417   .     S
C1072  H1095   1.110   .     S
C1072  H1094   1.117   .     S
C1072  H1096   1.109   .     S
C1073  C1082   1.451   .     S
C1073  N1121   1.156   .     T
C1074  O1130   1.384   .     S
C1074  C128    1.393   1_556 S
C1075  C1083   1.454   .     S
C1075  N1122   1.157   .     T
C1076  N1123   1.157   .     T
C1076  C1084   1.453   .     S
C1077  N1124   1.157   .     T
C1077  C1085   1.455   .     S
C1078  O1131   1.415   .     S
C1078  H1097   1.108   .     S
C1078  H1100   1.110   .     S
C1078  H1099   1.112   .     S
C1079  H1101   1.109   .     S
C1079  O1132   1.414   .     S
C1079  H1102   1.114   .     S
C1079  H1103   1.111   .     S
C1080  O1133   1.417   .     S
C1080  H1106   1.109   .     S
C1080  H1105   1.113   .     S
C1080  H1104   1.107   .     S
C1081  H1107   1.115   .     S
C1081  H1108   1.111   .     S
C1081  O1134   1.414   .     S
C1081  H1110   1.108   .     S
C1083  C1086   1.411   .     A
C1083  C1189   1.381   .     S
C1084  C1086   1.407   .     A
C1084  C1186   1.378   .     S
N1117  Zn1143  2.017   .     S
N1118  Zn1144  2.017   .     S
O1125  Zn1143  2.005   .     S
O1135  Zn1144  2.005   .     S
O1136  Zn1143  2.011   .     S
O1137  Zn1144  2.011   .     S
O1138  Zn1143  2.001   .     S
O1139  Zn1144  2.001   .     S
O1140  Zn1143  2.002   .     S
O1141  Zn1144  2.002   .     S
C1145  C1146   1.445   .     S
C1145  O1229   1.289   .     A
C1145  O1241   1.294   .     A
C1146  C1189   1.412   .     A
C1146  C1186   1.407   .     A
C1147  O1235   1.387   .     S
C1147  N1222   1.367   .     A
C1147  C1774   1.438   1_545 S
C1148  N1221   1.370   .     A
C1148  O1236   1.381   .     S
C1148  C1461   1.439   .     S
C1149  O1237   1.389   .     S
C1149  N1222   1.369   .     A
C1149  C1772   1.439   1_545 S
C1150  N1221   1.371   .     A
C1150  O1238   1.381   .     S
C1150  C1459   1.438   .     S
C1151  O1242   1.282   .     A
C1151  C1157   1.429   .     S
C1151  O1245   1.290   .     A
C1152  O1243   1.289   .     A
C1152  O1244   1.282   .     A
C1152  C1155   1.428   .     S
C1153  O1246   1.386   .     S
C1153  C1155   1.396   .     A
C1153  C1164   1.399   .     A
C1154  C1165   1.403   .     A
C1154  O1230   1.388   .     S
C1154  C1157   1.404   .     A
C1155  C1158   1.398   .     A
C1156  O1239   1.293   .     A
C1156  C1190   1.445   .     S
C1156  O1240   1.290   .     A
C1157  C1159   1.398   .     A
C1158  C1171   1.453   .     S
C1158  C1160   1.404   .     A
C1159  C1161   1.400   .     A
C1159  C1172   1.454   .     S
C1160  C1166   1.413   .     A
C1160  C1162   1.414   .     A
C1161  C1168   1.418   .     A
C1161  C1163   1.418   .     A
C1162  C1164   1.416   .     A
C1162  C227    1.400   1_556 S
C1163  C1165   1.420   .     A
C1164  C1178   1.411   .     A
C1165  C1167   1.417   .     A
C1166  O1231   1.383   .     S
C1166  C231    1.402   1_556 S
C1167  O1233   1.389   .     S
C1168  O1232   1.384   .     S
C1169  O1246   1.410   .     S
C1169  H1213   1.111   .     S
C1169  H1202   1.112   .     S
C1169  H1191   1.110   .     S
C1170  H1216   1.115   .     S
C1170  H1217   1.109   .     S
C1170  H1215   1.102   .     S
C1170  O1230   1.410   .     S
C1171  N1223   1.157   .     T
C1172  N1224   1.157   .     T
C1173  H1220   1.108   .     S
C1173  H1218   1.114   .     S
C1173  H1219   1.113   .     S
C1173  O1231   1.411   .     S
C1174  H1192   1.112   .     S
C1174  H1194   1.109   .     S
C1174  H1193   1.112   .     S
C1174  O1232   1.412   .     S
C1175  O1233   1.415   .     S
C1175  H1196   1.109   .     S
C1175  H1197   1.109   .     S
C1175  H1195   1.115   .     S
C1176  O1234   1.417   .     S
C1176  H1199   1.110   .     S
C1176  H1198   1.117   .     S
C1176  H1200   1.109   .     S
C1177  C1186   1.451   .     S
C1177  N1225   1.156   .     T
C1178  O1234   1.384   .     S
C1178  C232    1.393   1_556 S
C1179  C1187   1.454   .     S
C1179  N1226   1.157   .     T
C1180  N1227   1.157   .     T
C1180  C1188   1.453   .     S
C1181  N1228   1.157   .     T
C1181  C1189   1.455   .     S
C1182  O1235   1.415   .     S
C1182  H1201   1.108   .     S
C1182  H1204   1.110   .     S
C1182  H1203   1.112   .     S
C1183  H1205   1.109   .     S
C1183  O1236   1.414   .     S
C1183  H1206   1.114   .     S
C1183  H1207   1.111   .     S
C1184  O1237   1.417   .     S
C1184  H1210   1.109   .     S
C1184  H1209   1.113   .     S
C1184  H1208   1.107   .     S
C1185  H1211   1.115   .     S
C1185  H1212   1.111   .     S
C1185  O1238   1.414   .     S
C1185  H1214   1.108   .     S
C1187  C1190   1.411   .     A
C1187  C981    1.381   1_655 S
C1188  C1190   1.407   .     A
C1188  C978    1.378   1_655 S
N1221  Zn1247  2.017   .     S
N1222  Zn1248  2.017   .     S
O1229  Zn1247  2.005   .     S
O1239  Zn1248  2.005   .     S
O1240  Zn1247  2.011   .     S
O1241  Zn1248  2.011   .     S
O1242  Zn1247  2.001   .     S
O1243  Zn1248  2.001   .     S
O1244  Zn1247  2.002   .     S
O1245  Zn1248  2.002   .     S
C1249  C1250   1.445   .     S
C1249  O1333   1.289   .     A
C1249  O1345   1.294   .     A
C1250  C1293   1.412   .     A
C1250  C1290   1.407   .     A
C1251  O1339   1.387   .     S
C1251  N1326   1.367   .     A
C1252  N1325   1.370   .     A
C1252  O1340   1.381   .     S
C1252  C1565   1.439   .     S
C1253  O1341   1.389   .     S
C1253  N1326   1.369   .     A
C1254  N1325   1.371   .     A
C1254  O1342   1.381   .     S
C1254  C1563   1.438   .     S
C1255  O1346   1.282   .     A
C1255  C1261   1.429   .     S
C1255  O1349   1.290   .     A
C1256  O1347   1.289   .     A
C1256  O1348   1.282   .     A
C1256  C1259   1.428   .     S
C1257  O1350   1.386   .     S
C1257  C1259   1.396   .     A
C1257  C1268   1.399   .     A
C1258  C1269   1.403   .     A
C1258  O1334   1.388   .     S
C1258  C1261   1.404   .     A
C1259  C1262   1.398   .     A
C1260  O1343   1.293   .     A
C1260  C1294   1.445   .     S
C1260  O1344   1.290   .     A
C1261  C1263   1.398   .     A
C1262  C1275   1.453   .     S
C1262  C1264   1.404   .     A
C1263  C1265   1.400   .     A
C1263  C1276   1.454   .     S
C1264  C1270   1.413   .     A
C1264  C1266   1.414   .     A
C1265  C1272   1.418   .     A
C1265  C1267   1.418   .     A
C1266  C1268   1.416   .     A
C1266  C331    1.400   1_556 S
C1267  C1269   1.420   .     A
C1268  C1282   1.411   .     A
C1269  C1271   1.417   .     A
C1270  O1335   1.383   .     S
C1270  C335    1.402   1_556 S
C1271  O1337   1.389   .     S
C1272  O1336   1.384   .     S
C1273  O1350   1.410   .     S
C1273  H1317   1.111   .     S
C1273  H1306   1.112   .     S
C1273  H1295   1.110   .     S
C1274  H1320   1.115   .     S
C1274  H1321   1.109   .     S
C1274  H1319   1.102   .     S
C1274  O1334   1.410   .     S
C1275  N1327   1.157   .     T
C1276  N1328   1.157   .     T
C1277  H1324   1.108   .     S
C1277  H1322   1.114   .     S
C1277  H1323   1.113   .     S
C1277  O1335   1.411   .     S
C1278  H1296   1.112   .     S
C1278  H1298   1.109   .     S
C1278  H1297   1.112   .     S
C1278  O1336   1.412   .     S
C1279  O1337   1.415   .     S
C1279  H1300   1.109   .     S
C1279  H1301   1.109   .     S
C1279  H1299   1.115   .     S
C1280  O1338   1.417   .     S
C1280  H1303   1.110   .     S
C1280  H1302   1.117   .     S
C1280  H1304   1.109   .     S
C1281  C1290   1.451   .     S
C1281  N1329   1.156   .     T
C1282  O1338   1.384   .     S
C1282  C336    1.393   1_556 S
C1283  C1291   1.454   .     S
C1283  N1330   1.157   .     T
C1284  N1331   1.157   .     T
C1284  C1292   1.453   .     S
C1285  N1332   1.157   .     T
C1285  C1293   1.455   .     S
C1286  O1339   1.415   .     S
C1286  H1305   1.108   .     S
C1286  H1308   1.110   .     S
C1286  H1307   1.112   .     S
C1287  H1309   1.109   .     S
C1287  O1340   1.414   .     S
C1287  H1310   1.114   .     S
C1287  H1311   1.111   .     S
C1288  O1341   1.417   .     S
C1288  H1314   1.109   .     S
C1288  H1313   1.113   .     S
C1288  H1312   1.107   .     S
C1289  H1315   1.115   .     S
C1289  H1316   1.111   .     S
C1289  O1342   1.414   .     S
C1289  H1318   1.108   .     S
C1290  C1500   1.378   1_455 S
C1291  C1294   1.411   .     A
C1291  C1397   1.381   .     S
C1292  C1294   1.407   .     A
C1292  C1394   1.378   .     S
C1293  C1499   1.381   1_455 S
N1325  Zn1351  2.017   .     S
N1326  Zn1352  2.017   .     S
O1333  Zn1351  2.005   .     S
O1343  Zn1352  2.005   .     S
O1344  Zn1351  2.011   .     S
O1345  Zn1352  2.011   .     S
O1346  Zn1351  2.001   .     S
O1347  Zn1352  2.001   .     S
O1348  Zn1351  2.002   .     S
O1349  Zn1352  2.002   .     S
C1353  C1354   1.445   .     S
C1353  O1437   1.289   .     A
C1353  O1449   1.294   .     A
C1354  C1397   1.412   .     A
C1354  C1394   1.407   .     A
C1355  O1443   1.387   .     S
C1355  N1430   1.367   .     A
C1356  N1429   1.370   .     A
C1356  O1444   1.381   .     S
C1356  C1669   1.439   .     S
C1357  O1445   1.389   .     S
C1357  N1430   1.369   .     A
C1358  N1429   1.371   .     A
C1358  O1446   1.381   .     S
C1358  C1667   1.438   .     S
C1359  O1450   1.282   .     A
C1359  C1365   1.429   .     S
C1359  O1453   1.290   .     A
C1360  O1451   1.289   .     A
C1360  O1452   1.282   .     A
C1360  C1363   1.428   .     S
C1361  O1454   1.386   .     S
C1361  C1363   1.396   .     A
C1361  C1372   1.399   .     A
C1362  C1373   1.403   .     A
C1362  O1438   1.388   .     S
C1362  C1365   1.404   .     A
C1363  C1366   1.398   .     A
C1364  O1447   1.293   .     A
C1364  C1398   1.445   .     S
C1364  O1448   1.290   .     A
C1365  C1367   1.398   .     A
C1366  C1379   1.453   .     S
C1366  C1368   1.404   .     A
C1367  C1369   1.400   .     A
C1367  C1380   1.454   .     S
C1368  C1374   1.413   .     A
C1368  C1370   1.414   .     A
C1369  C1376   1.418   .     A
C1369  C1371   1.418   .     A
C1370  C1372   1.416   .     A
C1370  C435    1.400   1_556 S
C1371  C1373   1.420   .     A
C1372  C1386   1.411   .     A
C1373  C1375   1.417   .     A
C1374  O1439   1.383   .     S
C1374  C439    1.402   1_556 S
C1375  O1441   1.389   .     S
C1376  O1440   1.384   .     S
C1377  O1454   1.410   .     S
C1377  H1421   1.111   .     S
C1377  H1410   1.112   .     S
C1377  H1399   1.110   .     S
C1378  H1424   1.115   .     S
C1378  H1425   1.109   .     S
C1378  H1423   1.102   .     S
C1378  O1438   1.410   .     S
C1379  N1431   1.157   .     T
C1380  N1432   1.157   .     T
C1381  H1428   1.108   .     S
C1381  H1426   1.114   .     S
C1381  H1427   1.113   .     S
C1381  O1439   1.411   .     S
C1382  H1400   1.112   .     S
C1382  H1402   1.109   .     S
C1382  H1401   1.112   .     S
C1382  O1440   1.412   .     S
C1383  O1441   1.415   .     S
C1383  H1404   1.109   .     S
C1383  H1405   1.109   .     S
C1383  H1403   1.115   .     S
C1384  O1442   1.417   .     S
C1384  H1407   1.110   .     S
C1384  H1406   1.117   .     S
C1384  H1408   1.109   .     S
C1385  C1394   1.451   .     S
C1385  N1433   1.156   .     T
C1386  O1442   1.384   .     S
C1386  C440    1.393   1_556 S
C1387  C1395   1.454   .     S
C1387  N1434   1.157   .     T
C1388  N1435   1.157   .     T
C1388  C1396   1.453   .     S
C1389  N1436   1.157   .     T
C1389  C1397   1.455   .     S
C1390  O1443   1.415   .     S
C1390  H1409   1.108   .     S
C1390  H1412   1.110   .     S
C1390  H1411   1.112   .     S
C1391  H1413   1.109   .     S
C1391  O1444   1.414   .     S
C1391  H1414   1.114   .     S
C1391  H1415   1.111   .     S
C1392  O1445   1.417   .     S
C1392  H1418   1.109   .     S
C1392  H1417   1.113   .     S
C1392  H1416   1.107   .     S
C1393  H1419   1.115   .     S
C1393  H1420   1.111   .     S
C1393  O1446   1.414   .     S
C1393  H1422   1.108   .     S
C1395  C1398   1.411   .     A
C1395  C1501   1.381   .     S
C1396  C1398   1.407   .     A
C1396  C1498   1.378   .     S
N1429  Zn1455  2.017   .     S
N1430  Zn1456  2.017   .     S
O1437  Zn1455  2.005   .     S
O1447  Zn1456  2.005   .     S
O1448  Zn1455  2.011   .     S
O1449  Zn1456  2.011   .     S
O1450  Zn1455  2.001   .     S
O1451  Zn1456  2.001   .     S
O1452  Zn1455  2.002   .     S
O1453  Zn1456  2.002   .     S
C1457  C1458   1.445   .     S
C1457  O1541   1.289   .     A
C1457  O1553   1.294   .     A
C1458  C1501   1.412   .     A
C1458  C1498   1.407   .     A
C1459  O1547   1.387   .     S
C1459  N1534   1.367   .     A
C1460  N1533   1.370   .     A
C1460  O1548   1.381   .     S
C1460  C1773   1.439   .     S
C1461  O1549   1.389   .     S
C1461  N1534   1.369   .     A
C1462  N1533   1.371   .     A
C1462  O1550   1.381   .     S
C1462  C1771   1.438   .     S
C1463  O1554   1.282   .     A
C1463  C1469   1.429   .     S
C1463  O1557   1.290   .     A
C1464  O1555   1.289   .     A
C1464  O1556   1.282   .     A
C1464  C1467   1.428   .     S
C1465  O1558   1.386   .     S
C1465  C1467   1.396   .     A
C1465  C1476   1.399   .     A
C1466  C1477   1.403   .     A
C1466  O1542   1.388   .     S
C1466  C1469   1.404   .     A
C1467  C1470   1.398   .     A
C1468  O1551   1.293   .     A
C1468  C1502   1.445   .     S
C1468  O1552   1.290   .     A
C1469  C1471   1.398   .     A
C1470  C1483   1.453   .     S
C1470  C1472   1.404   .     A
C1471  C1473   1.400   .     A
C1471  C1484   1.454   .     S
C1472  C1478   1.413   .     A
C1472  C1474   1.414   .     A
C1473  C1480   1.418   .     A
C1473  C1475   1.418   .     A
C1474  C1476   1.416   .     A
C1474  C539    1.400   1_556 S
C1475  C1477   1.420   .     A
C1476  C1490   1.411   .     A
C1477  C1479   1.417   .     A
C1478  O1543   1.383   .     S
C1478  C543    1.402   1_556 S
C1479  O1545   1.389   .     S
C1480  O1544   1.384   .     S
C1481  O1558   1.410   .     S
C1481  H1525   1.111   .     S
C1481  H1514   1.112   .     S
C1481  H1503   1.110   .     S
C1482  H1528   1.115   .     S
C1482  H1529   1.109   .     S
C1482  H1527   1.102   .     S
C1482  O1542   1.410   .     S
C1483  N1535   1.157   .     T
C1484  N1536   1.157   .     T
C1485  H1532   1.108   .     S
C1485  H1530   1.114   .     S
C1485  H1531   1.113   .     S
C1485  O1543   1.411   .     S
C1486  H1504   1.112   .     S
C1486  H1506   1.109   .     S
C1486  H1505   1.112   .     S
C1486  O1544   1.412   .     S
C1487  O1545   1.415   .     S
C1487  H1508   1.109   .     S
C1487  H1509   1.109   .     S
C1487  H1507   1.115   .     S
C1488  O1546   1.417   .     S
C1488  H1511   1.110   .     S
C1488  H1510   1.117   .     S
C1488  H1512   1.109   .     S
C1489  C1498   1.451   .     S
C1489  N1537   1.156   .     T
C1490  O1546   1.384   .     S
C1490  C544    1.393   1_556 S
C1491  C1499   1.454   .     S
C1491  N1538   1.157   .     T
C1492  N1539   1.157   .     T
C1492  C1500   1.453   .     S
C1493  N1540   1.157   .     T
C1493  C1501   1.455   .     S
C1494  O1547   1.415   .     S
C1494  H1513   1.108   .     S
C1494  H1516   1.110   .     S
C1494  H1515   1.112   .     S
C1495  H1517   1.109   .     S
C1495  O1548   1.414   .     S
C1495  H1518   1.114   .     S
C1495  H1519   1.111   .     S
C1496  O1549   1.417   .     S
C1496  H1522   1.109   .     S
C1496  H1521   1.113   .     S
C1496  H1520   1.107   .     S
C1497  H1523   1.115   .     S
C1497  H1524   1.111   .     S
C1497  O1550   1.414   .     S
C1497  H1526   1.108   .     S
C1499  C1502   1.411   .     A
C1499  C1293   1.381   1_655 S
C1500  C1502   1.407   .     A
C1500  C1290   1.378   1_655 S
N1533  Zn1559  2.017   .     S
N1534  Zn1560  2.017   .     S
O1541  Zn1559  2.005   .     S
O1551  Zn1560  2.005   .     S
O1552  Zn1559  2.011   .     S
O1553  Zn1560  2.011   .     S
O1554  Zn1559  2.001   .     S
O1555  Zn1560  2.001   .     S
O1556  Zn1559  2.002   .     S
O1557  Zn1560  2.002   .     S
C1561  C1562   1.445   .     S
C1561  O1645   1.289   .     A
C1561  O1657   1.294   .     A
C1562  C1605   1.412   .     A
C1562  C1602   1.407   .     A
C1563  O1651   1.387   .     S
C1563  N1638   1.367   .     A
C1564  N1637   1.370   .     A
C1564  O1652   1.381   .     S
C1564  C941    1.439   1_565 S
C1565  O1653   1.389   .     S
C1565  N1638   1.369   .     A
C1566  N1637   1.371   .     A
C1566  O1654   1.381   .     S
C1566  C939    1.438   1_565 S
C1567  O1658   1.282   .     A
C1567  C1573   1.429   .     S
C1567  O1661   1.290   .     A
C1568  O1659   1.289   .     A
C1568  O1660   1.282   .     A
C1568  C1571   1.428   .     S
C1569  O1662   1.386   .     S
C1569  C1571   1.396   .     A
C1569  C1580   1.399   .     A
C1570  C1581   1.403   .     A
C1570  O1646   1.388   .     S
C1570  C1573   1.404   .     A
C1571  C1574   1.398   .     A
C1572  O1655   1.293   .     A
C1572  C1606   1.445   .     S
C1572  O1656   1.290   .     A
C1573  C1575   1.398   .     A
C1574  C1587   1.453   .     S
C1574  C1576   1.404   .     A
C1575  C1577   1.400   .     A
C1575  C1588   1.454   .     S
C1576  C1582   1.413   .     A
C1576  C1578   1.414   .     A
C1577  C1584   1.418   .     A
C1577  C1579   1.418   .     A
C1578  C1580   1.416   .     A
C1578  C643    1.400   1_556 S
C1579  C1581   1.420   .     A
C1580  C1594   1.411   .     A
C1581  C1583   1.417   .     A
C1582  O1647   1.383   .     S
C1582  C647    1.402   1_556 S
C1583  O1649   1.389   .     S
C1584  O1648   1.384   .     S
C1585  O1662   1.410   .     S
C1585  H1629   1.111   .     S
C1585  H1618   1.112   .     S
C1585  H1607   1.110   .     S
C1586  H1632   1.115   .     S
C1586  H1633   1.109   .     S
C1586  H1631   1.102   .     S
C1586  O1646   1.410   .     S
C1587  N1639   1.157   .     T
C1588  N1640   1.157   .     T
C1589  H1636   1.108   .     S
C1589  H1634   1.114   .     S
C1589  H1635   1.113   .     S
C1589  O1647   1.411   .     S
C1590  H1608   1.112   .     S
C1590  H1610   1.109   .     S
C1590  H1609   1.112   .     S
C1590  O1648   1.412   .     S
C1591  O1649   1.415   .     S
C1591  H1612   1.109   .     S
C1591  H1613   1.109   .     S
C1591  H1611   1.115   .     S
C1592  O1650   1.417   .     S
C1592  H1615   1.110   .     S
C1592  H1614   1.117   .     S
C1592  H1616   1.109   .     S
C1593  C1602   1.451   .     S
C1593  N1641   1.156   .     T
C1594  O1650   1.384   .     S
C1594  C648    1.393   1_556 S
C1595  C1603   1.454   .     S
C1595  N1642   1.157   .     T
C1596  N1643   1.157   .     T
C1596  C1604   1.453   .     S
C1597  N1644   1.157   .     T
C1597  C1605   1.455   .     S
C1598  O1651   1.415   .     S
C1598  H1617   1.108   .     S
C1598  H1620   1.110   .     S
C1598  H1619   1.112   .     S
C1599  H1621   1.109   .     S
C1599  O1652   1.414   .     S
C1599  H1622   1.114   .     S
C1599  H1623   1.111   .     S
C1600  O1653   1.417   .     S
C1600  H1626   1.109   .     S
C1600  H1625   1.113   .     S
C1600  H1624   1.107   .     S
C1601  H1627   1.115   .     S
C1601  H1628   1.111   .     S
C1601  O1654   1.414   .     S
C1601  H1630   1.108   .     S
C1602  C1812   1.378   1_455 S
C1603  C1606   1.411   .     A
C1603  C1709   1.381   .     S
C1604  C1606   1.407   .     A
C1604  C1706   1.378   .     S
C1605  C1811   1.381   1_455 S
N1637  Zn1663  2.017   .     S
N1638  Zn1664  2.017   .     S
O1645  Zn1663  2.005   .     S
O1655  Zn1664  2.005   .     S
O1656  Zn1663  2.011   .     S
O1657  Zn1664  2.011   .     S
O1658  Zn1663  2.001   .     S
O1659  Zn1664  2.001   .     S
O1660  Zn1663  2.002   .     S
O1661  Zn1664  2.002   .     S
C1665  C1666   1.445   .     S
C1665  O1749   1.289   .     A
C1665  O1761   1.294   .     A
C1666  C1709   1.412   .     A
C1666  C1706   1.407   .     A
C1667  O1755   1.387   .     S
C1667  N1742   1.367   .     A
C1668  N1741   1.370   .     A
C1668  O1756   1.381   .     S
C1668  C1045   1.439   1_565 S
C1669  O1757   1.389   .     S
C1669  N1742   1.369   .     A
C1670  N1741   1.371   .     A
C1670  O1758   1.381   .     S
C1670  C1043   1.438   1_565 S
C1671  O1762   1.282   .     A
C1671  C1677   1.429   .     S
C1671  O1765   1.290   .     A
C1672  O1763   1.289   .     A
C1672  O1764   1.282   .     A
C1672  C1675   1.428   .     S
C1673  O1766   1.386   .     S
C1673  C1675   1.396   .     A
C1673  C1684   1.399   .     A
C1674  C1685   1.403   .     A
C1674  O1750   1.388   .     S
C1674  C1677   1.404   .     A
C1675  C1678   1.398   .     A
C1676  O1759   1.293   .     A
C1676  C1710   1.445   .     S
C1676  O1760   1.290   .     A
C1677  C1679   1.398   .     A
C1678  C1691   1.453   .     S
C1678  C1680   1.404   .     A
C1679  C1681   1.400   .     A
C1679  C1692   1.454   .     S
C1680  C1686   1.413   .     A
C1680  C1682   1.414   .     A
C1681  C1688   1.418   .     A
C1681  C1683   1.418   .     A
C1682  C1684   1.416   .     A
C1682  C747    1.400   1_556 S
C1683  C1685   1.420   .     A
C1684  C1698   1.411   .     A
C1685  C1687   1.417   .     A
C1686  O1751   1.383   .     S
C1686  C751    1.402   1_556 S
C1687  O1753   1.389   .     S
C1688  O1752   1.384   .     S
C1689  O1766   1.410   .     S
C1689  H1733   1.111   .     S
C1689  H1722   1.112   .     S
C1689  H1711   1.110   .     S
C1690  H1736   1.115   .     S
C1690  H1737   1.109   .     S
C1690  H1735   1.102   .     S
C1690  O1750   1.410   .     S
C1691  N1743   1.157   .     T
C1692  N1744   1.157   .     T
C1693  H1740   1.108   .     S
C1693  H1738   1.114   .     S
C1693  H1739   1.113   .     S
C1693  O1751   1.411   .     S
C1694  H1712   1.112   .     S
C1694  H1714   1.109   .     S
C1694  H1713   1.112   .     S
C1694  O1752   1.412   .     S
C1695  O1753   1.415   .     S
C1695  H1716   1.109   .     S
C1695  H1717   1.109   .     S
C1695  H1715   1.115   .     S
C1696  O1754   1.417   .     S
C1696  H1719   1.110   .     S
C1696  H1718   1.117   .     S
C1696  H1720   1.109   .     S
C1697  C1706   1.451   .     S
C1697  N1745   1.156   .     T
C1698  O1754   1.384   .     S
C1698  C752    1.393   1_556 S
C1699  C1707   1.454   .     S
C1699  N1746   1.157   .     T
C1700  N1747   1.157   .     T
C1700  C1708   1.453   .     S
C1701  N1748   1.157   .     T
C1701  C1709   1.455   .     S
C1702  O1755   1.415   .     S
C1702  H1721   1.108   .     S
C1702  H1724   1.110   .     S
C1702  H1723   1.112   .     S
C1703  H1725   1.109   .     S
C1703  O1756   1.414   .     S
C1703  H1726   1.114   .     S
C1703  H1727   1.111   .     S
C1704  O1757   1.417   .     S
C1704  H1730   1.109   .     S
C1704  H1729   1.113   .     S
C1704  H1728   1.107   .     S
C1705  H1731   1.115   .     S
C1705  H1732   1.111   .     S
C1705  O1758   1.414   .     S
C1705  H1734   1.108   .     S
C1707  C1710   1.411   .     A
C1707  C1813   1.381   .     S
C1708  C1710   1.407   .     A
C1708  C1810   1.378   .     S
N1741  Zn1767  2.017   .     S
N1742  Zn1768  2.017   .     S
O1749  Zn1767  2.005   .     S
O1759  Zn1768  2.005   .     S
O1760  Zn1767  2.011   .     S
O1761  Zn1768  2.011   .     S
O1762  Zn1767  2.001   .     S
O1763  Zn1768  2.001   .     S
O1764  Zn1767  2.002   .     S
O1765  Zn1768  2.002   .     S
C1769  C1770   1.445   .     S
C1769  O1853   1.289   .     A
C1769  O1865   1.294   .     A
C1770  C1813   1.412   .     A
C1770  C1810   1.407   .     A
C1771  O1859   1.387   .     S
C1771  N1846   1.367   .     A
C1772  N1845   1.370   .     A
C1772  O1860   1.381   .     S
C1772  C1149   1.439   1_565 S
C1773  O1861   1.389   .     S
C1773  N1846   1.369   .     A
C1774  N1845   1.371   .     A
C1774  O1862   1.381   .     S
C1774  C1147   1.438   1_565 S
C1775  O1866   1.282   .     A
C1775  C1781   1.429   .     S
C1775  O1869   1.290   .     A
C1776  O1867   1.289   .     A
C1776  O1868   1.282   .     A
C1776  C1779   1.428   .     S
C1777  O1870   1.386   .     S
C1777  C1779   1.396   .     A
C1777  C1788   1.399   .     A
C1778  C1789   1.403   .     A
C1778  O1854   1.388   .     S
C1778  C1781   1.404   .     A
C1779  C1782   1.398   .     A
C1780  O1863   1.293   .     A
C1780  C1814   1.445   .     S
C1780  O1864   1.290   .     A
C1781  C1783   1.398   .     A
C1782  C1795   1.453   .     S
C1782  C1784   1.404   .     A
C1783  C1785   1.400   .     A
C1783  C1796   1.454   .     S
C1784  C1790   1.413   .     A
C1784  C1786   1.414   .     A
C1785  C1792   1.418   .     A
C1785  C1787   1.418   .     A
C1786  C1788   1.416   .     A
C1786  C851    1.400   1_556 S
C1787  C1789   1.420   .     A
C1788  C1802   1.411   .     A
C1789  C1791   1.417   .     A
C1790  O1855   1.383   .     S
C1790  C855    1.402   1_556 S
C1791  O1857   1.389   .     S
C1792  O1856   1.384   .     S
C1793  O1870   1.410   .     S
C1793  H1837   1.111   .     S
C1793  H1826   1.112   .     S
C1793  H1815   1.110   .     S
C1794  H1840   1.115   .     S
C1794  H1841   1.109   .     S
C1794  H1839   1.102   .     S
C1794  O1854   1.410   .     S
C1795  N1847   1.157   .     T
C1796  N1848   1.157   .     T
C1797  H1844   1.108   .     S
C1797  H1842   1.114   .     S
C1797  H1843   1.113   .     S
C1797  O1855   1.411   .     S
C1798  H1816   1.112   .     S
C1798  H1818   1.109   .     S
C1798  H1817   1.112   .     S
C1798  O1856   1.412   .     S
C1799  O1857   1.415   .     S
C1799  H1820   1.109   .     S
C1799  H1821   1.109   .     S
C1799  H1819   1.115   .     S
C1800  O1858   1.417   .     S
C1800  H1823   1.110   .     S
C1800  H1822   1.117   .     S
C1800  H1824   1.109   .     S
C1801  C1810   1.451   .     S
C1801  N1849   1.156   .     T
C1802  O1858   1.384   .     S
C1802  C856    1.393   1_556 S
C1803  C1811   1.454   .     S
C1803  N1850   1.157   .     T
C1804  N1851   1.157   .     T
C1804  C1812   1.453   .     S
C1805  N1852   1.157   .     T
C1805  C1813   1.455   .     S
C1806  O1859   1.415   .     S
C1806  H1825   1.108   .     S
C1806  H1828   1.110   .     S
C1806  H1827   1.112   .     S
C1807  H1829   1.109   .     S
C1807  O1860   1.414   .     S
C1807  H1830   1.114   .     S
C1807  H1831   1.111   .     S
C1808  O1861   1.417   .     S
C1808  H1834   1.109   .     S
C1808  H1833   1.113   .     S
C1808  H1832   1.107   .     S
C1809  H1835   1.115   .     S
C1809  H1836   1.111   .     S
C1809  O1862   1.414   .     S
C1809  H1838   1.108   .     S
C1811  C1814   1.411   .     A
C1811  C1605   1.381   1_655 S
C1812  C1814   1.407   .     A
C1812  C1602   1.378   1_655 S
N1845  Zn1871  2.017   .     S
N1846  Zn1872  2.017   .     S
O1853  Zn1871  2.005   .     S
O1863  Zn1872  2.005   .     S
O1864  Zn1871  2.011   .     S
O1865  Zn1872  2.011   .     S
O1866  Zn1871  2.001   .     S
O1867  Zn1872  2.001   .     S
O1868  Zn1871  2.002   .     S
O1869  Zn1872  2.002   .     S
