data_str_m3_o1_o18_pcu_sym.44
_audit_creation_date              2020-01-03
_audit_creation_method            'Materials Studio'
_symmetry_space_group_name_H-M    'P1'
_symmetry_Int_Tables_number       1
_symmetry_cell_setting            triclinic
loop_
_symmetry_equiv_pos_as_xyz
  x,y,z
_cell_length_a                    29.7469
_cell_length_b                    31.9082
_cell_length_c                    30.9449
_cell_angle_alpha                 89.3753
_cell_angle_beta                  66.6923
_cell_angle_gamma                 88.4116
loop_
_atom_site_label
_atom_site_type_symbol
_atom_site_fract_x
_atom_site_fract_y
_atom_site_fract_z
_atom_site_U_iso_or_equiv
_atom_site_adp_type
_atom_site_occupancy
C1     C     0.16635   0.24649   0.24947   0.00000  Uiso   1.00
C2     C     0.17281   0.31195   0.20827   0.00000  Uiso   1.00
C3     C     0.16842   0.04267   0.24959   0.00000  Uiso   1.00
C4     C     0.16491   0.29066   0.25041   0.00000  Uiso   1.00
C5     C     0.32100   0.13687   0.22534   0.00000  Uiso   1.00
C6     C     0.01234   0.19646   0.27465   0.00000  Uiso   1.00
C7     C     0.03532   0.13719   0.22557   0.00000  Uiso   1.00
C8     C     0.29801   0.19615   0.27443   0.00000  Uiso   1.00
C9     C     0.13579   0.16724   0.33813   0.00000  Uiso   1.00
C10    C     0.19755   0.16610   0.16187   0.00000  Uiso   1.00
C11    C     0.11632   0.17169   0.38910   0.00000  Uiso   1.00
C12    C     0.16698   0.08685   0.25054   0.00000  Uiso   1.00
C13    C     0.21701   0.16167   0.11090   0.00000  Uiso   1.00
C14    C     0.05994   0.20237   0.46201   0.00000  Uiso   1.00
C15    C     0.27341   0.13103   0.03797   0.00000  Uiso   1.00
C16    C     0.07296   0.19417   0.41430   0.00000  Uiso   1.00
C17    C     0.26038   0.13921   0.08569   0.00000  Uiso   1.00
C18    C     0.14643   0.15837   0.41144   0.00000  Uiso   1.00
C19    C     0.18690   0.17500   0.08856   0.00000  Uiso   1.00
C20    C     0.13830   0.17217   0.45647   0.00000  Uiso   1.00
C21    C     0.19504   0.16122   0.04353   0.00000  Uiso   1.00
C22    C     0.09201   0.19075   0.48393   0.00000  Uiso   1.00
C23    C     0.10837   0.17627   0.05333   0.00000  Uiso   1.00
C24    C     0.24133   0.14265   0.01606   0.00000  Uiso   1.00
C25    C     0.17433   0.16576   0.47529   0.00000  Uiso   1.00
C26    C     0.15901   0.16764   0.02470   0.00000  Uiso   1.00
C27    C     0.08360   0.15974   0.10310   0.00000  Uiso   1.00
C28    C     0.24972   0.17365   0.39688   0.00000  Uiso   1.00
C29    C     0.14869   0.28801   0.33820   0.00000  Uiso   1.00
C30    C     0.18465   0.04532   0.16180   0.00000  Uiso   1.00
C31    C     0.31003   0.10257   0.19850   0.00000  Uiso   1.00
C32    C     0.02331   0.23077   0.30149   0.00000  Uiso   1.00
C33    C     0.22497   0.15713   0.44666   0.00000  Uiso   1.00
C34    C     0.07786   0.19421   0.03274   0.00000  Uiso   1.00
C35    C     0.25548   0.13920   0.46724   0.00000  Uiso   1.00
C36    C     0.15842   0.31132   0.29249   0.00000  Uiso   1.00
C37    C     0.17491   0.02202   0.20752   0.00000  Uiso   1.00
C38    C     0.16051   0.02138   0.29174   0.00000  Uiso   1.00
H39    H     0.15601   0.19553   0.10740   0.00000  Uiso   1.00
H40    H     0.07367   0.18582   0.12895   0.00000  Uiso   1.00
H41    H     0.04961   0.14358   0.10702   0.00000  Uiso   1.00
H42    H     0.25966   0.14758   0.37104   0.00000  Uiso   1.00
H43    H     0.22691   0.19774   0.38834   0.00000  Uiso   1.00
H44    H     0.28371   0.18983   0.39296   0.00000  Uiso   1.00
H45    H     0.14589   0.25377   0.33555   0.00000  Uiso   1.00
H46    H     0.17872   0.29346   0.35006   0.00000  Uiso   1.00
H47    H     0.11338   0.29925   0.36562   0.00000  Uiso   1.00
H48    H     0.18749   0.07956   0.16444   0.00000  Uiso   1.00
H49    H     0.21995   0.03406   0.13438   0.00000  Uiso   1.00
H50    H     0.17732   0.13782   0.39261   0.00000  Uiso   1.00
H51    H     0.15461   0.03990   0.14995   0.00000  Uiso   1.00
H52    H     0.01082   0.08685   0.17372   0.00000  Uiso   1.00
H53    H     0.28832   0.07830   0.22329   0.00000  Uiso   1.00
H54    H     0.29052   0.11523   0.17724   0.00000  Uiso   1.00
H55    H     0.32252   0.24649   0.32627   0.00000  Uiso   1.00
H56    H     0.04281   0.21811   0.32275   0.00000  Uiso   1.00
H57    H     0.04502   0.25503   0.27670   0.00000  Uiso   1.00
H58    H     0.28409   0.12819   0.10263   0.00000  Uiso   1.00
H59    H     0.04926   0.20519   0.39735   0.00000  Uiso   1.00
H60    H     0.02490   0.21774   0.48106   0.00000  Uiso   1.00
H61    H     0.30845   0.11567   0.01891   0.00000  Uiso   1.00
H62    H     0.06262   0.11365   0.20629   0.00000  Uiso   1.00
H63    H     0.27071   0.21969   0.29371   0.00000  Uiso   1.00
H64    H     0.10641   0.13565   0.11165   0.00000  Uiso   1.00
I65    I     0.00905   0.22275   0.07714   0.00000  Uiso   1.00
I66    I     0.32430   0.11067   0.42284   0.00000  Uiso   1.00
I67    I     0.15029   0.05484   0.35481   0.00000  Uiso   1.00
I68    I     0.18300   0.27850   0.14520   0.00000  Uiso   1.00
N69    N     0.04759   0.16668   0.25001   0.00000  Uiso   1.00
N70    N     0.28574   0.16666   0.24999   0.00000  Uiso   1.00
O71    O     0.12846   0.22775   0.25000   0.00000  Uiso   1.00
O72    O     0.20488   0.10558   0.24999   0.00000  Uiso   1.00
O73    O     0.20490   0.22774   0.25000   0.00000  Uiso   1.00
O74    O     0.12843   0.10559   0.25000   0.00000  Uiso   1.00
O75    O     0.10661   0.16667   0.31612   0.00000  Uiso   1.00
O76    O     0.22672   0.16666   0.18387   0.00000  Uiso   1.00
O77    O     0.18305   0.16666   0.31612   0.00000  Uiso   1.00
O78    O     0.15028   0.16667   0.18388   0.00000  Uiso   1.00
Zn79   Zn    0.11562   0.16667   0.25000   0.00000  Uiso   1.00
Zn80   Zn    0.21771   0.16666   0.25000   0.00000  Uiso   1.00
C81    C     0.49969   0.24649   0.24947   0.00000  Uiso   1.00
C82    C     0.50614   0.31195   0.20827   0.00000  Uiso   1.00
C83    C     0.50176   0.04267   0.24959   0.00000  Uiso   1.00
C84    C     0.49824   0.29066   0.25041   0.00000  Uiso   1.00
C85    C     0.65433   0.13687   0.22534   0.00000  Uiso   1.00
C86    C     0.34567   0.19646   0.27465   0.00000  Uiso   1.00
C87    C     0.36866   0.13719   0.22557   0.00000  Uiso   1.00
C88    C     0.63134   0.19615   0.27443   0.00000  Uiso   1.00
C89    C     0.46912   0.16724   0.33813   0.00000  Uiso   1.00
C90    C     0.53088   0.16610   0.16187   0.00000  Uiso   1.00
C91    C     0.44966   0.17169   0.38910   0.00000  Uiso   1.00
C92    C     0.50031   0.08685   0.25054   0.00000  Uiso   1.00
C93    C     0.55034   0.16167   0.11090   0.00000  Uiso   1.00
C94    C     0.39327   0.20237   0.46201   0.00000  Uiso   1.00
C95    C     0.60674   0.13103   0.03797   0.00000  Uiso   1.00
C96    C     0.40630   0.19417   0.41430   0.00000  Uiso   1.00
C97    C     0.59371   0.13921   0.08569   0.00000  Uiso   1.00
C98    C     0.47976   0.15837   0.41144   0.00000  Uiso   1.00
C99    C     0.52023   0.17500   0.08856   0.00000  Uiso   1.00
C100   C     0.47163   0.17217   0.45647   0.00000  Uiso   1.00
C101   C     0.52837   0.16122   0.04353   0.00000  Uiso   1.00
C102   C     0.42535   0.19075   0.48393   0.00000  Uiso   1.00
C103   C     0.44170   0.17627   0.05333   0.00000  Uiso   1.00
C104   C     0.57466   0.14265   0.01606   0.00000  Uiso   1.00
C105   C     0.50766   0.16576   0.47529   0.00000  Uiso   1.00
C106   C     0.49234   0.16764   0.02470   0.00000  Uiso   1.00
C107   C     0.41694   0.15974   0.10310   0.00000  Uiso   1.00
C108   C     0.58305   0.17365   0.39688   0.00000  Uiso   1.00
C109   C     0.48202   0.28801   0.33820   0.00000  Uiso   1.00
C110   C     0.51799   0.04532   0.16180   0.00000  Uiso   1.00
C111   C     0.64336   0.10257   0.19850   0.00000  Uiso   1.00
C112   C     0.35664   0.23077   0.30149   0.00000  Uiso   1.00
C113   C     0.55830   0.15713   0.44666   0.00000  Uiso   1.00
C114   C     0.41119   0.19421   0.03274   0.00000  Uiso   1.00
C115   C     0.58882   0.13920   0.46724   0.00000  Uiso   1.00
C116   C     0.49176   0.31132   0.29249   0.00000  Uiso   1.00
C117   C     0.50824   0.02202   0.20752   0.00000  Uiso   1.00
C118   C     0.49385   0.02138   0.29174   0.00000  Uiso   1.00
H119   H     0.48934   0.19553   0.10740   0.00000  Uiso   1.00
H120   H     0.40700   0.18582   0.12895   0.00000  Uiso   1.00
H121   H     0.38295   0.14358   0.10702   0.00000  Uiso   1.00
H122   H     0.59299   0.14758   0.37104   0.00000  Uiso   1.00
H123   H     0.56024   0.19774   0.38834   0.00000  Uiso   1.00
H124   H     0.61704   0.18983   0.39296   0.00000  Uiso   1.00
H125   H     0.47923   0.25377   0.33555   0.00000  Uiso   1.00
H126   H     0.51206   0.29346   0.35006   0.00000  Uiso   1.00
H127   H     0.44671   0.29925   0.36562   0.00000  Uiso   1.00
H128   H     0.52083   0.07956   0.16444   0.00000  Uiso   1.00
H129   H     0.55329   0.03406   0.13438   0.00000  Uiso   1.00
H130   H     0.51065   0.13782   0.39261   0.00000  Uiso   1.00
H131   H     0.48794   0.03990   0.14995   0.00000  Uiso   1.00
H132   H     0.34415   0.08685   0.17372   0.00000  Uiso   1.00
H133   H     0.62165   0.07830   0.22329   0.00000  Uiso   1.00
H134   H     0.62386   0.11523   0.17724   0.00000  Uiso   1.00
H135   H     0.65585   0.24649   0.32627   0.00000  Uiso   1.00
H136   H     0.37614   0.21811   0.32275   0.00000  Uiso   1.00
H137   H     0.37836   0.25503   0.27670   0.00000  Uiso   1.00
H138   H     0.61742   0.12819   0.10263   0.00000  Uiso   1.00
H139   H     0.38259   0.20519   0.39735   0.00000  Uiso   1.00
H140   H     0.35823   0.21774   0.48106   0.00000  Uiso   1.00
H141   H     0.64179   0.11567   0.01891   0.00000  Uiso   1.00
H142   H     0.39595   0.11365   0.20629   0.00000  Uiso   1.00
H143   H     0.60405   0.21969   0.29371   0.00000  Uiso   1.00
H144   H     0.43974   0.13565   0.11165   0.00000  Uiso   1.00
I145   I     0.34238   0.22275   0.07714   0.00000  Uiso   1.00
I146   I     0.65763   0.11067   0.42284   0.00000  Uiso   1.00
I147   I     0.48363   0.05484   0.35481   0.00000  Uiso   1.00
I148   I     0.51633   0.27850   0.14520   0.00000  Uiso   1.00
N149   N     0.38093   0.16668   0.25001   0.00000  Uiso   1.00
N150   N     0.61907   0.16666   0.24999   0.00000  Uiso   1.00
O151   O     0.46179   0.22775   0.25000   0.00000  Uiso   1.00
O152   O     0.53821   0.10558   0.24999   0.00000  Uiso   1.00
O153   O     0.53823   0.22774   0.25000   0.00000  Uiso   1.00
O154   O     0.46177   0.10559   0.25000   0.00000  Uiso   1.00
O155   O     0.43994   0.16667   0.31612   0.00000  Uiso   1.00
O156   O     0.56006   0.16666   0.18387   0.00000  Uiso   1.00
O157   O     0.51639   0.16666   0.31612   0.00000  Uiso   1.00
O158   O     0.48361   0.16667   0.18388   0.00000  Uiso   1.00
Zn159  Zn    0.44896   0.16667   0.25000   0.00000  Uiso   1.00
Zn160  Zn    0.55104   0.16666   0.25000   0.00000  Uiso   1.00
C161   C     0.83302   0.24649   0.24947   0.00000  Uiso   1.00
C162   C     0.83948   0.31195   0.20827   0.00000  Uiso   1.00
C163   C     0.83509   0.04267   0.24959   0.00000  Uiso   1.00
C164   C     0.83157   0.29066   0.25041   0.00000  Uiso   1.00
C165   C     0.98767   0.13687   0.22534   0.00000  Uiso   1.00
C166   C     0.67900   0.19646   0.27465   0.00000  Uiso   1.00
C167   C     0.70199   0.13719   0.22557   0.00000  Uiso   1.00
C168   C     0.96468   0.19615   0.27443   0.00000  Uiso   1.00
C169   C     0.80245   0.16724   0.33813   0.00000  Uiso   1.00
C170   C     0.86421   0.16610   0.16187   0.00000  Uiso   1.00
C171   C     0.78299   0.17169   0.38910   0.00000  Uiso   1.00
C172   C     0.83365   0.08685   0.25054   0.00000  Uiso   1.00
C173   C     0.88368   0.16167   0.11090   0.00000  Uiso   1.00
C174   C     0.72661   0.20237   0.46201   0.00000  Uiso   1.00
C175   C     0.94008   0.13103   0.03797   0.00000  Uiso   1.00
C176   C     0.73963   0.19417   0.41430   0.00000  Uiso   1.00
C177   C     0.92705   0.13921   0.08569   0.00000  Uiso   1.00
C178   C     0.81310   0.15837   0.41144   0.00000  Uiso   1.00
C179   C     0.85357   0.17500   0.08856   0.00000  Uiso   1.00
C180   C     0.80497   0.17217   0.45647   0.00000  Uiso   1.00
C181   C     0.86170   0.16122   0.04353   0.00000  Uiso   1.00
C182   C     0.75868   0.19075   0.48393   0.00000  Uiso   1.00
C183   C     0.77503   0.17627   0.05333   0.00000  Uiso   1.00
C184   C     0.90799   0.14265   0.01606   0.00000  Uiso   1.00
C185   C     0.84099   0.16576   0.47529   0.00000  Uiso   1.00
C186   C     0.82568   0.16764   0.02470   0.00000  Uiso   1.00
C187   C     0.75027   0.15974   0.10310   0.00000  Uiso   1.00
C188   C     0.91639   0.17365   0.39688   0.00000  Uiso   1.00
C189   C     0.81536   0.28801   0.33820   0.00000  Uiso   1.00
C190   C     0.85132   0.04532   0.16180   0.00000  Uiso   1.00
C191   C     0.97669   0.10257   0.19850   0.00000  Uiso   1.00
C192   C     0.68998   0.23077   0.30149   0.00000  Uiso   1.00
C193   C     0.89163   0.15713   0.44666   0.00000  Uiso   1.00
C194   C     0.74453   0.19421   0.03274   0.00000  Uiso   1.00
C195   C     0.92215   0.13920   0.46724   0.00000  Uiso   1.00
C196   C     0.82509   0.31132   0.29249   0.00000  Uiso   1.00
C197   C     0.84158   0.02202   0.20752   0.00000  Uiso   1.00
C198   C     0.82718   0.02138   0.29174   0.00000  Uiso   1.00
H199   H     0.82267   0.19553   0.10740   0.00000  Uiso   1.00
H200   H     0.74033   0.18582   0.12895   0.00000  Uiso   1.00
H201   H     0.71628   0.14358   0.10702   0.00000  Uiso   1.00
H202   H     0.92633   0.14758   0.37104   0.00000  Uiso   1.00
H203   H     0.89358   0.19774   0.38834   0.00000  Uiso   1.00
H204   H     0.95037   0.18983   0.39296   0.00000  Uiso   1.00
H205   H     0.81256   0.25377   0.33555   0.00000  Uiso   1.00
H206   H     0.84539   0.29346   0.35006   0.00000  Uiso   1.00
H207   H     0.78004   0.29925   0.36562   0.00000  Uiso   1.00
H208   H     0.85416   0.07956   0.16444   0.00000  Uiso   1.00
H209   H     0.88662   0.03406   0.13438   0.00000  Uiso   1.00
H210   H     0.84399   0.13782   0.39261   0.00000  Uiso   1.00
H211   H     0.82127   0.03990   0.14995   0.00000  Uiso   1.00
H212   H     0.67748   0.08685   0.17372   0.00000  Uiso   1.00
H213   H     0.95498   0.07830   0.22329   0.00000  Uiso   1.00
H214   H     0.95719   0.11523   0.17724   0.00000  Uiso   1.00
H215   H     0.98919   0.24649   0.32627   0.00000  Uiso   1.00
H216   H     0.70948   0.21811   0.32275   0.00000  Uiso   1.00
H217   H     0.71169   0.25503   0.27670   0.00000  Uiso   1.00
H218   H     0.95076   0.12819   0.10263   0.00000  Uiso   1.00
H219   H     0.71593   0.20519   0.39735   0.00000  Uiso   1.00
H220   H     0.69157   0.21774   0.48106   0.00000  Uiso   1.00
H221   H     0.97512   0.11567   0.01891   0.00000  Uiso   1.00
H222   H     0.72929   0.11365   0.20629   0.00000  Uiso   1.00
H223   H     0.93738   0.21969   0.29371   0.00000  Uiso   1.00
H224   H     0.77307   0.13565   0.11165   0.00000  Uiso   1.00
I225   I     0.67572   0.22275   0.07714   0.00000  Uiso   1.00
I226   I     0.99096   0.11067   0.42284   0.00000  Uiso   1.00
I227   I     0.81696   0.05484   0.35481   0.00000  Uiso   1.00
I228   I     0.84966   0.27850   0.14520   0.00000  Uiso   1.00
N229   N     0.71426   0.16668   0.25001   0.00000  Uiso   1.00
N230   N     0.95241   0.16666   0.24999   0.00000  Uiso   1.00
O231   O     0.79512   0.22775   0.25000   0.00000  Uiso   1.00
O232   O     0.87154   0.10558   0.24999   0.00000  Uiso   1.00
O233   O     0.87157   0.22774   0.25000   0.00000  Uiso   1.00
O234   O     0.79510   0.10559   0.25000   0.00000  Uiso   1.00
O235   O     0.77328   0.16667   0.31612   0.00000  Uiso   1.00
O236   O     0.89339   0.16666   0.18387   0.00000  Uiso   1.00
O237   O     0.84972   0.16666   0.31612   0.00000  Uiso   1.00
O238   O     0.81695   0.16667   0.18388   0.00000  Uiso   1.00
Zn239  Zn    0.78229   0.16667   0.25000   0.00000  Uiso   1.00
Zn240  Zn    0.88438   0.16666   0.25000   0.00000  Uiso   1.00
C241   C     0.16635   0.57982   0.24947   0.00000  Uiso   1.00
C242   C     0.17281   0.64528   0.20827   0.00000  Uiso   1.00
C243   C     0.16842   0.37601   0.24959   0.00000  Uiso   1.00
C244   C     0.16491   0.62399   0.25041   0.00000  Uiso   1.00
C245   C     0.32100   0.47020   0.22534   0.00000  Uiso   1.00
C246   C     0.01234   0.52980   0.27465   0.00000  Uiso   1.00
C247   C     0.03532   0.47052   0.22557   0.00000  Uiso   1.00
C248   C     0.29801   0.52948   0.27443   0.00000  Uiso   1.00
C249   C     0.13579   0.50058   0.33813   0.00000  Uiso   1.00
C250   C     0.19755   0.49943   0.16187   0.00000  Uiso   1.00
C251   C     0.11632   0.50503   0.38910   0.00000  Uiso   1.00
C252   C     0.16698   0.42018   0.25054   0.00000  Uiso   1.00
C253   C     0.21701   0.49500   0.11090   0.00000  Uiso   1.00
C254   C     0.05994   0.53570   0.46201   0.00000  Uiso   1.00
C255   C     0.27341   0.46436   0.03797   0.00000  Uiso   1.00
C256   C     0.07296   0.52750   0.41430   0.00000  Uiso   1.00
C257   C     0.26038   0.47254   0.08569   0.00000  Uiso   1.00
C258   C     0.14643   0.49170   0.41144   0.00000  Uiso   1.00
C259   C     0.18690   0.50833   0.08856   0.00000  Uiso   1.00
C260   C     0.13830   0.50550   0.45647   0.00000  Uiso   1.00
C261   C     0.19504   0.49455   0.04353   0.00000  Uiso   1.00
C262   C     0.09201   0.52409   0.48393   0.00000  Uiso   1.00
C263   C     0.10837   0.50961   0.05333   0.00000  Uiso   1.00
C264   C     0.24133   0.47598   0.01606   0.00000  Uiso   1.00
C265   C     0.17433   0.49909   0.47529   0.00000  Uiso   1.00
C266   C     0.15901   0.50097   0.02470   0.00000  Uiso   1.00
C267   C     0.08360   0.49308   0.10310   0.00000  Uiso   1.00
C268   C     0.24972   0.50699   0.39688   0.00000  Uiso   1.00
C269   C     0.14869   0.62134   0.33820   0.00000  Uiso   1.00
C270   C     0.18465   0.37866   0.16180   0.00000  Uiso   1.00
C271   C     0.31003   0.43591   0.19850   0.00000  Uiso   1.00
C272   C     0.02331   0.56410   0.30149   0.00000  Uiso   1.00
C273   C     0.22497   0.49046   0.44666   0.00000  Uiso   1.00
C274   C     0.07786   0.52755   0.03274   0.00000  Uiso   1.00
C275   C     0.25548   0.47253   0.46724   0.00000  Uiso   1.00
C276   C     0.15842   0.64465   0.29249   0.00000  Uiso   1.00
C277   C     0.17491   0.35535   0.20752   0.00000  Uiso   1.00
C278   C     0.16051   0.35472   0.29174   0.00000  Uiso   1.00
H279   H     0.15601   0.52887   0.10740   0.00000  Uiso   1.00
H280   H     0.07367   0.51915   0.12895   0.00000  Uiso   1.00
H281   H     0.04961   0.47691   0.10702   0.00000  Uiso   1.00
H282   H     0.25966   0.48091   0.37104   0.00000  Uiso   1.00
H283   H     0.22691   0.53108   0.38834   0.00000  Uiso   1.00
H284   H     0.28371   0.52317   0.39296   0.00000  Uiso   1.00
H285   H     0.14589   0.58710   0.33555   0.00000  Uiso   1.00
H286   H     0.17872   0.62679   0.35006   0.00000  Uiso   1.00
H287   H     0.11338   0.63259   0.36562   0.00000  Uiso   1.00
H288   H     0.18749   0.41289   0.16444   0.00000  Uiso   1.00
H289   H     0.21995   0.36739   0.13438   0.00000  Uiso   1.00
H290   H     0.17732   0.47116   0.39261   0.00000  Uiso   1.00
H291   H     0.15461   0.37324   0.14995   0.00000  Uiso   1.00
H292   H     0.01082   0.42018   0.17372   0.00000  Uiso   1.00
H293   H     0.28832   0.41164   0.22329   0.00000  Uiso   1.00
H294   H     0.29052   0.44857   0.17724   0.00000  Uiso   1.00
H295   H     0.32252   0.57983   0.32627   0.00000  Uiso   1.00
H296   H     0.04281   0.55144   0.32275   0.00000  Uiso   1.00
H297   H     0.04502   0.58836   0.27670   0.00000  Uiso   1.00
H298   H     0.28409   0.46152   0.10263   0.00000  Uiso   1.00
H299   H     0.04926   0.53852   0.39735   0.00000  Uiso   1.00
H300   H     0.02490   0.55108   0.48106   0.00000  Uiso   1.00
H301   H     0.30845   0.44900   0.01891   0.00000  Uiso   1.00
H302   H     0.06262   0.44698   0.20629   0.00000  Uiso   1.00
H303   H     0.27071   0.55302   0.29371   0.00000  Uiso   1.00
H304   H     0.10641   0.46898   0.11165   0.00000  Uiso   1.00
I305   I     0.00905   0.55608   0.07714   0.00000  Uiso   1.00
I306   I     0.32430   0.44401   0.42284   0.00000  Uiso   1.00
I307   I     0.15029   0.38817   0.35481   0.00000  Uiso   1.00
I308   I     0.18300   0.61184   0.14520   0.00000  Uiso   1.00
N309   N     0.04759   0.50001   0.25001   0.00000  Uiso   1.00
N310   N     0.28574   0.49999   0.24999   0.00000  Uiso   1.00
O311   O     0.12846   0.56108   0.25000   0.00000  Uiso   1.00
O312   O     0.20488   0.43892   0.24999   0.00000  Uiso   1.00
O313   O     0.20490   0.56107   0.25000   0.00000  Uiso   1.00
O314   O     0.12843   0.43893   0.25000   0.00000  Uiso   1.00
O315   O     0.10661   0.50001   0.31612   0.00000  Uiso   1.00
O316   O     0.22672   0.49999   0.18387   0.00000  Uiso   1.00
O317   O     0.18305   0.50000   0.31612   0.00000  Uiso   1.00
O318   O     0.15028   0.50000   0.18388   0.00000  Uiso   1.00
Zn319  Zn    0.11562   0.50001   0.25000   0.00000  Uiso   1.00
Zn320  Zn    0.21771   0.49999   0.25000   0.00000  Uiso   1.00
C321   C     0.49969   0.57982   0.24947   0.00000  Uiso   1.00
C322   C     0.50614   0.64528   0.20827   0.00000  Uiso   1.00
C323   C     0.50176   0.37601   0.24959   0.00000  Uiso   1.00
C324   C     0.49824   0.62399   0.25041   0.00000  Uiso   1.00
C325   C     0.65433   0.47020   0.22534   0.00000  Uiso   1.00
C326   C     0.34567   0.52980   0.27465   0.00000  Uiso   1.00
C327   C     0.36866   0.47052   0.22557   0.00000  Uiso   1.00
C328   C     0.63134   0.52948   0.27443   0.00000  Uiso   1.00
C329   C     0.46912   0.50058   0.33813   0.00000  Uiso   1.00
C330   C     0.53088   0.49943   0.16187   0.00000  Uiso   1.00
C331   C     0.44966   0.50503   0.38910   0.00000  Uiso   1.00
C332   C     0.50031   0.42018   0.25054   0.00000  Uiso   1.00
C333   C     0.55034   0.49500   0.11090   0.00000  Uiso   1.00
C334   C     0.39327   0.53570   0.46201   0.00000  Uiso   1.00
C335   C     0.60674   0.46436   0.03797   0.00000  Uiso   1.00
C336   C     0.40630   0.52750   0.41430   0.00000  Uiso   1.00
C337   C     0.59371   0.47254   0.08569   0.00000  Uiso   1.00
C338   C     0.47976   0.49170   0.41144   0.00000  Uiso   1.00
C339   C     0.52023   0.50833   0.08856   0.00000  Uiso   1.00
C340   C     0.47163   0.50550   0.45647   0.00000  Uiso   1.00
C341   C     0.52837   0.49455   0.04353   0.00000  Uiso   1.00
C342   C     0.42535   0.52409   0.48393   0.00000  Uiso   1.00
C343   C     0.44170   0.50961   0.05333   0.00000  Uiso   1.00
C344   C     0.57466   0.47598   0.01606   0.00000  Uiso   1.00
C345   C     0.50766   0.49909   0.47529   0.00000  Uiso   1.00
C346   C     0.49234   0.50097   0.02470   0.00000  Uiso   1.00
C347   C     0.41694   0.49308   0.10310   0.00000  Uiso   1.00
C348   C     0.58305   0.50699   0.39688   0.00000  Uiso   1.00
C349   C     0.48202   0.62134   0.33820   0.00000  Uiso   1.00
C350   C     0.51799   0.37866   0.16180   0.00000  Uiso   1.00
C351   C     0.64336   0.43591   0.19850   0.00000  Uiso   1.00
C352   C     0.35664   0.56410   0.30149   0.00000  Uiso   1.00
C353   C     0.55830   0.49046   0.44666   0.00000  Uiso   1.00
C354   C     0.41119   0.52755   0.03274   0.00000  Uiso   1.00
C355   C     0.58882   0.47253   0.46724   0.00000  Uiso   1.00
C356   C     0.49176   0.64465   0.29249   0.00000  Uiso   1.00
C357   C     0.50824   0.35535   0.20752   0.00000  Uiso   1.00
C358   C     0.49385   0.35472   0.29174   0.00000  Uiso   1.00
H359   H     0.48934   0.52887   0.10740   0.00000  Uiso   1.00
H360   H     0.40700   0.51915   0.12895   0.00000  Uiso   1.00
H361   H     0.38295   0.47691   0.10702   0.00000  Uiso   1.00
H362   H     0.59299   0.48091   0.37104   0.00000  Uiso   1.00
H363   H     0.56024   0.53108   0.38834   0.00000  Uiso   1.00
H364   H     0.61704   0.52317   0.39296   0.00000  Uiso   1.00
H365   H     0.47923   0.58710   0.33555   0.00000  Uiso   1.00
H366   H     0.51206   0.62679   0.35006   0.00000  Uiso   1.00
H367   H     0.44671   0.63259   0.36562   0.00000  Uiso   1.00
H368   H     0.52083   0.41289   0.16444   0.00000  Uiso   1.00
H369   H     0.55329   0.36739   0.13438   0.00000  Uiso   1.00
H370   H     0.51065   0.47116   0.39261   0.00000  Uiso   1.00
H371   H     0.48794   0.37324   0.14995   0.00000  Uiso   1.00
H372   H     0.34415   0.42018   0.17372   0.00000  Uiso   1.00
H373   H     0.62165   0.41164   0.22329   0.00000  Uiso   1.00
H374   H     0.62386   0.44857   0.17724   0.00000  Uiso   1.00
H375   H     0.65585   0.57983   0.32627   0.00000  Uiso   1.00
H376   H     0.37614   0.55144   0.32275   0.00000  Uiso   1.00
H377   H     0.37836   0.58836   0.27670   0.00000  Uiso   1.00
H378   H     0.61742   0.46152   0.10263   0.00000  Uiso   1.00
H379   H     0.38259   0.53852   0.39735   0.00000  Uiso   1.00
H380   H     0.35823   0.55108   0.48106   0.00000  Uiso   1.00
H381   H     0.64179   0.44900   0.01891   0.00000  Uiso   1.00
H382   H     0.39595   0.44698   0.20629   0.00000  Uiso   1.00
H383   H     0.60405   0.55302   0.29371   0.00000  Uiso   1.00
H384   H     0.43974   0.46898   0.11165   0.00000  Uiso   1.00
I385   I     0.34238   0.55608   0.07714   0.00000  Uiso   1.00
I386   I     0.65763   0.44401   0.42284   0.00000  Uiso   1.00
I387   I     0.48363   0.38817   0.35481   0.00000  Uiso   1.00
I388   I     0.51633   0.61184   0.14520   0.00000  Uiso   1.00
N389   N     0.38093   0.50001   0.25001   0.00000  Uiso   1.00
N390   N     0.61907   0.49999   0.24999   0.00000  Uiso   1.00
O391   O     0.46179   0.56108   0.25000   0.00000  Uiso   1.00
O392   O     0.53821   0.43892   0.24999   0.00000  Uiso   1.00
O393   O     0.53823   0.56107   0.25000   0.00000  Uiso   1.00
O394   O     0.46177   0.43893   0.25000   0.00000  Uiso   1.00
O395   O     0.43994   0.50001   0.31612   0.00000  Uiso   1.00
O396   O     0.56006   0.49999   0.18387   0.00000  Uiso   1.00
O397   O     0.51639   0.50000   0.31612   0.00000  Uiso   1.00
O398   O     0.48361   0.50000   0.18388   0.00000  Uiso   1.00
Zn399  Zn    0.44896   0.50001   0.25000   0.00000  Uiso   1.00
Zn400  Zn    0.55104   0.49999   0.25000   0.00000  Uiso   1.00
C401   C     0.83302   0.57982   0.24947   0.00000  Uiso   1.00
C402   C     0.83948   0.64528   0.20827   0.00000  Uiso   1.00
C403   C     0.83509   0.37601   0.24959   0.00000  Uiso   1.00
C404   C     0.83157   0.62399   0.25041   0.00000  Uiso   1.00
C405   C     0.98767   0.47020   0.22534   0.00000  Uiso   1.00
C406   C     0.67900   0.52980   0.27465   0.00000  Uiso   1.00
C407   C     0.70199   0.47052   0.22557   0.00000  Uiso   1.00
C408   C     0.96468   0.52948   0.27443   0.00000  Uiso   1.00
C409   C     0.80245   0.50058   0.33813   0.00000  Uiso   1.00
C410   C     0.86421   0.49943   0.16187   0.00000  Uiso   1.00
C411   C     0.78299   0.50503   0.38910   0.00000  Uiso   1.00
C412   C     0.83365   0.42018   0.25054   0.00000  Uiso   1.00
C413   C     0.88368   0.49500   0.11090   0.00000  Uiso   1.00
C414   C     0.72661   0.53570   0.46201   0.00000  Uiso   1.00
C415   C     0.94008   0.46436   0.03797   0.00000  Uiso   1.00
C416   C     0.73963   0.52750   0.41430   0.00000  Uiso   1.00
C417   C     0.92705   0.47254   0.08569   0.00000  Uiso   1.00
C418   C     0.81310   0.49170   0.41144   0.00000  Uiso   1.00
C419   C     0.85357   0.50833   0.08856   0.00000  Uiso   1.00
C420   C     0.80497   0.50550   0.45647   0.00000  Uiso   1.00
C421   C     0.86170   0.49455   0.04353   0.00000  Uiso   1.00
C422   C     0.75868   0.52409   0.48393   0.00000  Uiso   1.00
C423   C     0.77503   0.50961   0.05333   0.00000  Uiso   1.00
C424   C     0.90799   0.47598   0.01606   0.00000  Uiso   1.00
C425   C     0.84099   0.49909   0.47529   0.00000  Uiso   1.00
C426   C     0.82568   0.50097   0.02470   0.00000  Uiso   1.00
C427   C     0.75027   0.49308   0.10310   0.00000  Uiso   1.00
C428   C     0.91639   0.50699   0.39688   0.00000  Uiso   1.00
C429   C     0.81536   0.62134   0.33820   0.00000  Uiso   1.00
C430   C     0.85132   0.37866   0.16180   0.00000  Uiso   1.00
C431   C     0.97669   0.43591   0.19850   0.00000  Uiso   1.00
C432   C     0.68998   0.56410   0.30149   0.00000  Uiso   1.00
C433   C     0.89163   0.49046   0.44666   0.00000  Uiso   1.00
C434   C     0.74453   0.52755   0.03274   0.00000  Uiso   1.00
C435   C     0.92215   0.47253   0.46724   0.00000  Uiso   1.00
C436   C     0.82509   0.64465   0.29249   0.00000  Uiso   1.00
C437   C     0.84158   0.35535   0.20752   0.00000  Uiso   1.00
C438   C     0.82718   0.35472   0.29174   0.00000  Uiso   1.00
H439   H     0.82267   0.52887   0.10740   0.00000  Uiso   1.00
H440   H     0.74033   0.51915   0.12895   0.00000  Uiso   1.00
H441   H     0.71628   0.47691   0.10702   0.00000  Uiso   1.00
H442   H     0.92633   0.48091   0.37104   0.00000  Uiso   1.00
H443   H     0.89358   0.53108   0.38834   0.00000  Uiso   1.00
H444   H     0.95037   0.52317   0.39296   0.00000  Uiso   1.00
H445   H     0.81256   0.58710   0.33555   0.00000  Uiso   1.00
H446   H     0.84539   0.62679   0.35006   0.00000  Uiso   1.00
H447   H     0.78004   0.63259   0.36562   0.00000  Uiso   1.00
H448   H     0.85416   0.41289   0.16444   0.00000  Uiso   1.00
H449   H     0.88662   0.36739   0.13438   0.00000  Uiso   1.00
H450   H     0.84399   0.47116   0.39261   0.00000  Uiso   1.00
H451   H     0.82127   0.37324   0.14995   0.00000  Uiso   1.00
H452   H     0.67748   0.42018   0.17372   0.00000  Uiso   1.00
H453   H     0.95498   0.41164   0.22329   0.00000  Uiso   1.00
H454   H     0.95719   0.44857   0.17724   0.00000  Uiso   1.00
H455   H     0.98919   0.57983   0.32627   0.00000  Uiso   1.00
H456   H     0.70948   0.55144   0.32275   0.00000  Uiso   1.00
H457   H     0.71169   0.58836   0.27670   0.00000  Uiso   1.00
H458   H     0.95076   0.46152   0.10263   0.00000  Uiso   1.00
H459   H     0.71593   0.53852   0.39735   0.00000  Uiso   1.00
H460   H     0.69157   0.55108   0.48106   0.00000  Uiso   1.00
H461   H     0.97512   0.44900   0.01891   0.00000  Uiso   1.00
H462   H     0.72929   0.44698   0.20629   0.00000  Uiso   1.00
H463   H     0.93738   0.55302   0.29371   0.00000  Uiso   1.00
H464   H     0.77307   0.46898   0.11165   0.00000  Uiso   1.00
I465   I     0.67572   0.55608   0.07714   0.00000  Uiso   1.00
I466   I     0.99096   0.44401   0.42284   0.00000  Uiso   1.00
I467   I     0.81696   0.38817   0.35481   0.00000  Uiso   1.00
I468   I     0.84966   0.61184   0.14520   0.00000  Uiso   1.00
N469   N     0.71426   0.50001   0.25001   0.00000  Uiso   1.00
N470   N     0.95241   0.49999   0.24999   0.00000  Uiso   1.00
O471   O     0.79512   0.56108   0.25000   0.00000  Uiso   1.00
O472   O     0.87154   0.43892   0.24999   0.00000  Uiso   1.00
O473   O     0.87157   0.56107   0.25000   0.00000  Uiso   1.00
O474   O     0.79510   0.43893   0.25000   0.00000  Uiso   1.00
O475   O     0.77328   0.50001   0.31612   0.00000  Uiso   1.00
O476   O     0.89339   0.49999   0.18387   0.00000  Uiso   1.00
O477   O     0.84972   0.50000   0.31612   0.00000  Uiso   1.00
O478   O     0.81695   0.50000   0.18388   0.00000  Uiso   1.00
Zn479  Zn    0.78229   0.50001   0.25000   0.00000  Uiso   1.00
Zn480  Zn    0.88438   0.49999   0.25000   0.00000  Uiso   1.00
C481   C     0.16635   0.91315   0.24947   0.00000  Uiso   1.00
C482   C     0.17281   0.97862   0.20827   0.00000  Uiso   1.00
C483   C     0.16842   0.70934   0.24959   0.00000  Uiso   1.00
C484   C     0.16491   0.95733   0.25041   0.00000  Uiso   1.00
C485   C     0.32100   0.80354   0.22534   0.00000  Uiso   1.00
C486   C     0.01234   0.86313   0.27465   0.00000  Uiso   1.00
C487   C     0.03532   0.80385   0.22557   0.00000  Uiso   1.00
C488   C     0.29801   0.86281   0.27443   0.00000  Uiso   1.00
C489   C     0.13579   0.83391   0.33813   0.00000  Uiso   1.00
C490   C     0.19755   0.83276   0.16187   0.00000  Uiso   1.00
C491   C     0.11632   0.83836   0.38910   0.00000  Uiso   1.00
C492   C     0.16698   0.75351   0.25054   0.00000  Uiso   1.00
C493   C     0.21701   0.82833   0.11090   0.00000  Uiso   1.00
C494   C     0.05994   0.86904   0.46201   0.00000  Uiso   1.00
C495   C     0.27341   0.79769   0.03797   0.00000  Uiso   1.00
C496   C     0.07296   0.86084   0.41430   0.00000  Uiso   1.00
C497   C     0.26038   0.80588   0.08569   0.00000  Uiso   1.00
C498   C     0.14643   0.82503   0.41144   0.00000  Uiso   1.00
C499   C     0.18690   0.84166   0.08856   0.00000  Uiso   1.00
C500   C     0.13830   0.83883   0.45647   0.00000  Uiso   1.00
C501   C     0.19504   0.82789   0.04353   0.00000  Uiso   1.00
C502   C     0.09201   0.85742   0.48393   0.00000  Uiso   1.00
C503   C     0.10837   0.84294   0.05333   0.00000  Uiso   1.00
C504   C     0.24133   0.80931   0.01606   0.00000  Uiso   1.00
C505   C     0.17433   0.83243   0.47529   0.00000  Uiso   1.00
C506   C     0.15901   0.83430   0.02470   0.00000  Uiso   1.00
C507   C     0.08360   0.82641   0.10310   0.00000  Uiso   1.00
C508   C     0.24972   0.84032   0.39688   0.00000  Uiso   1.00
C509   C     0.14869   0.95468   0.33820   0.00000  Uiso   1.00
C510   C     0.18465   0.71199   0.16180   0.00000  Uiso   1.00
C511   C     0.31003   0.76924   0.19850   0.00000  Uiso   1.00
C512   C     0.02331   0.89743   0.30149   0.00000  Uiso   1.00
C513   C     0.22497   0.82379   0.44666   0.00000  Uiso   1.00
C514   C     0.07786   0.86088   0.03274   0.00000  Uiso   1.00
C515   C     0.25548   0.80586   0.46724   0.00000  Uiso   1.00
C516   C     0.15842   0.97798   0.29249   0.00000  Uiso   1.00
C517   C     0.17491   0.68868   0.20752   0.00000  Uiso   1.00
C518   C     0.16051   0.68805   0.29174   0.00000  Uiso   1.00
H519   H     0.15601   0.86220   0.10740   0.00000  Uiso   1.00
H520   H     0.07367   0.85248   0.12895   0.00000  Uiso   1.00
H521   H     0.04961   0.81024   0.10702   0.00000  Uiso   1.00
H522   H     0.25966   0.81425   0.37104   0.00000  Uiso   1.00
H523   H     0.22691   0.86441   0.38834   0.00000  Uiso   1.00
H524   H     0.28371   0.85650   0.39296   0.00000  Uiso   1.00
H525   H     0.14589   0.92044   0.33555   0.00000  Uiso   1.00
H526   H     0.17872   0.96013   0.35006   0.00000  Uiso   1.00
H527   H     0.11338   0.96592   0.36562   0.00000  Uiso   1.00
H528   H     0.18749   0.74623   0.16444   0.00000  Uiso   1.00
H529   H     0.21995   0.70072   0.13438   0.00000  Uiso   1.00
H530   H     0.17732   0.80449   0.39261   0.00000  Uiso   1.00
H531   H     0.15461   0.70657   0.14995   0.00000  Uiso   1.00
H532   H     0.01082   0.75352   0.17372   0.00000  Uiso   1.00
H533   H     0.28832   0.74497   0.22329   0.00000  Uiso   1.00
H534   H     0.29052   0.78190   0.17724   0.00000  Uiso   1.00
H535   H     0.32252   0.91316   0.32627   0.00000  Uiso   1.00
H536   H     0.04281   0.88477   0.32275   0.00000  Uiso   1.00
H537   H     0.04502   0.92170   0.27670   0.00000  Uiso   1.00
H538   H     0.28409   0.79486   0.10263   0.00000  Uiso   1.00
H539   H     0.04926   0.87185   0.39735   0.00000  Uiso   1.00
H540   H     0.02490   0.88441   0.48106   0.00000  Uiso   1.00
H541   H     0.30845   0.78233   0.01891   0.00000  Uiso   1.00
H542   H     0.06262   0.78031   0.20629   0.00000  Uiso   1.00
H543   H     0.27071   0.88636   0.29371   0.00000  Uiso   1.00
H544   H     0.10641   0.80231   0.11165   0.00000  Uiso   1.00
I545   I     0.00905   0.88942   0.07714   0.00000  Uiso   1.00
I546   I     0.32430   0.77734   0.42284   0.00000  Uiso   1.00
I547   I     0.15029   0.72150   0.35481   0.00000  Uiso   1.00
I548   I     0.18300   0.94517   0.14520   0.00000  Uiso   1.00
N549   N     0.04759   0.83334   0.25001   0.00000  Uiso   1.00
N550   N     0.28574   0.83332   0.24999   0.00000  Uiso   1.00
O551   O     0.12846   0.89442   0.25000   0.00000  Uiso   1.00
O552   O     0.20488   0.77225   0.24999   0.00000  Uiso   1.00
O553   O     0.20490   0.89441   0.25000   0.00000  Uiso   1.00
O554   O     0.12843   0.77226   0.25000   0.00000  Uiso   1.00
O555   O     0.10661   0.83334   0.31612   0.00000  Uiso   1.00
O556   O     0.22672   0.83333   0.18387   0.00000  Uiso   1.00
O557   O     0.18305   0.83333   0.31612   0.00000  Uiso   1.00
O558   O     0.15028   0.83334   0.18388   0.00000  Uiso   1.00
Zn559  Zn    0.11562   0.83334   0.25000   0.00000  Uiso   1.00
Zn560  Zn    0.21771   0.83333   0.25000   0.00000  Uiso   1.00
C561   C     0.49969   0.91315   0.24947   0.00000  Uiso   1.00
C562   C     0.50614   0.97862   0.20827   0.00000  Uiso   1.00
C563   C     0.50176   0.70934   0.24959   0.00000  Uiso   1.00
C564   C     0.49824   0.95733   0.25041   0.00000  Uiso   1.00
C565   C     0.65433   0.80354   0.22534   0.00000  Uiso   1.00
C566   C     0.34567   0.86313   0.27465   0.00000  Uiso   1.00
C567   C     0.36866   0.80385   0.22557   0.00000  Uiso   1.00
C568   C     0.63134   0.86281   0.27443   0.00000  Uiso   1.00
C569   C     0.46912   0.83391   0.33813   0.00000  Uiso   1.00
C570   C     0.53088   0.83276   0.16187   0.00000  Uiso   1.00
C571   C     0.44966   0.83836   0.38910   0.00000  Uiso   1.00
C572   C     0.50031   0.75351   0.25054   0.00000  Uiso   1.00
C573   C     0.55034   0.82833   0.11090   0.00000  Uiso   1.00
C574   C     0.39327   0.86904   0.46201   0.00000  Uiso   1.00
C575   C     0.60674   0.79769   0.03797   0.00000  Uiso   1.00
C576   C     0.40630   0.86084   0.41430   0.00000  Uiso   1.00
C577   C     0.59371   0.80588   0.08569   0.00000  Uiso   1.00
C578   C     0.47976   0.82503   0.41144   0.00000  Uiso   1.00
C579   C     0.52023   0.84166   0.08856   0.00000  Uiso   1.00
C580   C     0.47163   0.83883   0.45647   0.00000  Uiso   1.00
C581   C     0.52837   0.82789   0.04353   0.00000  Uiso   1.00
C582   C     0.42535   0.85742   0.48393   0.00000  Uiso   1.00
C583   C     0.44170   0.84294   0.05333   0.00000  Uiso   1.00
C584   C     0.57466   0.80931   0.01606   0.00000  Uiso   1.00
C585   C     0.50766   0.83243   0.47529   0.00000  Uiso   1.00
C586   C     0.49234   0.83430   0.02470   0.00000  Uiso   1.00
C587   C     0.41694   0.82641   0.10310   0.00000  Uiso   1.00
C588   C     0.58305   0.84032   0.39688   0.00000  Uiso   1.00
C589   C     0.48202   0.95468   0.33820   0.00000  Uiso   1.00
C590   C     0.51799   0.71199   0.16180   0.00000  Uiso   1.00
C591   C     0.64336   0.76924   0.19850   0.00000  Uiso   1.00
C592   C     0.35664   0.89743   0.30149   0.00000  Uiso   1.00
C593   C     0.55830   0.82379   0.44666   0.00000  Uiso   1.00
C594   C     0.41119   0.86088   0.03274   0.00000  Uiso   1.00
C595   C     0.58882   0.80586   0.46724   0.00000  Uiso   1.00
C596   C     0.49176   0.97798   0.29249   0.00000  Uiso   1.00
C597   C     0.50824   0.68868   0.20752   0.00000  Uiso   1.00
C598   C     0.49385   0.68805   0.29174   0.00000  Uiso   1.00
H599   H     0.48934   0.86220   0.10740   0.00000  Uiso   1.00
H600   H     0.40700   0.85248   0.12895   0.00000  Uiso   1.00
H601   H     0.38295   0.81024   0.10702   0.00000  Uiso   1.00
H602   H     0.59299   0.81425   0.37104   0.00000  Uiso   1.00
H603   H     0.56024   0.86441   0.38834   0.00000  Uiso   1.00
H604   H     0.61704   0.85650   0.39296   0.00000  Uiso   1.00
H605   H     0.47923   0.92044   0.33555   0.00000  Uiso   1.00
H606   H     0.51206   0.96013   0.35006   0.00000  Uiso   1.00
H607   H     0.44671   0.96592   0.36562   0.00000  Uiso   1.00
H608   H     0.52083   0.74623   0.16444   0.00000  Uiso   1.00
H609   H     0.55329   0.70072   0.13438   0.00000  Uiso   1.00
H610   H     0.51065   0.80449   0.39261   0.00000  Uiso   1.00
H611   H     0.48794   0.70657   0.14995   0.00000  Uiso   1.00
H612   H     0.34415   0.75352   0.17372   0.00000  Uiso   1.00
H613   H     0.62165   0.74497   0.22329   0.00000  Uiso   1.00
H614   H     0.62386   0.78190   0.17724   0.00000  Uiso   1.00
H615   H     0.65585   0.91316   0.32627   0.00000  Uiso   1.00
H616   H     0.37614   0.88477   0.32275   0.00000  Uiso   1.00
H617   H     0.37836   0.92170   0.27670   0.00000  Uiso   1.00
H618   H     0.61742   0.79486   0.10263   0.00000  Uiso   1.00
H619   H     0.38259   0.87185   0.39735   0.00000  Uiso   1.00
H620   H     0.35823   0.88441   0.48106   0.00000  Uiso   1.00
H621   H     0.64179   0.78233   0.01891   0.00000  Uiso   1.00
H622   H     0.39595   0.78031   0.20629   0.00000  Uiso   1.00
H623   H     0.60405   0.88636   0.29371   0.00000  Uiso   1.00
H624   H     0.43974   0.80231   0.11165   0.00000  Uiso   1.00
I625   I     0.34238   0.88942   0.07714   0.00000  Uiso   1.00
I626   I     0.65763   0.77734   0.42284   0.00000  Uiso   1.00
I627   I     0.48363   0.72150   0.35481   0.00000  Uiso   1.00
I628   I     0.51633   0.94517   0.14520   0.00000  Uiso   1.00
N629   N     0.38093   0.83334   0.25001   0.00000  Uiso   1.00
N630   N     0.61907   0.83332   0.24999   0.00000  Uiso   1.00
O631   O     0.46179   0.89442   0.25000   0.00000  Uiso   1.00
O632   O     0.53821   0.77225   0.24999   0.00000  Uiso   1.00
O633   O     0.53823   0.89441   0.25000   0.00000  Uiso   1.00
O634   O     0.46177   0.77226   0.25000   0.00000  Uiso   1.00
O635   O     0.43994   0.83334   0.31612   0.00000  Uiso   1.00
O636   O     0.56006   0.83333   0.18387   0.00000  Uiso   1.00
O637   O     0.51639   0.83333   0.31612   0.00000  Uiso   1.00
O638   O     0.48361   0.83334   0.18388   0.00000  Uiso   1.00
Zn639  Zn    0.44896   0.83334   0.25000   0.00000  Uiso   1.00
Zn640  Zn    0.55104   0.83333   0.25000   0.00000  Uiso   1.00
C641   C     0.83302   0.91315   0.24947   0.00000  Uiso   1.00
C642   C     0.83948   0.97862   0.20827   0.00000  Uiso   1.00
C643   C     0.83509   0.70934   0.24959   0.00000  Uiso   1.00
C644   C     0.83157   0.95733   0.25041   0.00000  Uiso   1.00
C645   C     0.98767   0.80354   0.22534   0.00000  Uiso   1.00
C646   C     0.67900   0.86313   0.27465   0.00000  Uiso   1.00
C647   C     0.70199   0.80385   0.22557   0.00000  Uiso   1.00
C648   C     0.96468   0.86281   0.27443   0.00000  Uiso   1.00
C649   C     0.80245   0.83391   0.33813   0.00000  Uiso   1.00
C650   C     0.86421   0.83276   0.16187   0.00000  Uiso   1.00
C651   C     0.78299   0.83836   0.38910   0.00000  Uiso   1.00
C652   C     0.83365   0.75351   0.25054   0.00000  Uiso   1.00
C653   C     0.88368   0.82833   0.11090   0.00000  Uiso   1.00
C654   C     0.72661   0.86904   0.46201   0.00000  Uiso   1.00
C655   C     0.94008   0.79769   0.03797   0.00000  Uiso   1.00
C656   C     0.73963   0.86084   0.41430   0.00000  Uiso   1.00
C657   C     0.92705   0.80588   0.08569   0.00000  Uiso   1.00
C658   C     0.81310   0.82503   0.41144   0.00000  Uiso   1.00
C659   C     0.85357   0.84166   0.08856   0.00000  Uiso   1.00
C660   C     0.80497   0.83883   0.45647   0.00000  Uiso   1.00
C661   C     0.86170   0.82789   0.04353   0.00000  Uiso   1.00
C662   C     0.75868   0.85742   0.48393   0.00000  Uiso   1.00
C663   C     0.77503   0.84294   0.05333   0.00000  Uiso   1.00
C664   C     0.90799   0.80931   0.01606   0.00000  Uiso   1.00
C665   C     0.84099   0.83243   0.47529   0.00000  Uiso   1.00
C666   C     0.82568   0.83430   0.02470   0.00000  Uiso   1.00
C667   C     0.75027   0.82641   0.10310   0.00000  Uiso   1.00
C668   C     0.91639   0.84032   0.39688   0.00000  Uiso   1.00
C669   C     0.81536   0.95468   0.33820   0.00000  Uiso   1.00
C670   C     0.85132   0.71199   0.16180   0.00000  Uiso   1.00
C671   C     0.97669   0.76924   0.19850   0.00000  Uiso   1.00
C672   C     0.68998   0.89743   0.30149   0.00000  Uiso   1.00
C673   C     0.89163   0.82379   0.44666   0.00000  Uiso   1.00
C674   C     0.74453   0.86088   0.03274   0.00000  Uiso   1.00
C675   C     0.92215   0.80586   0.46724   0.00000  Uiso   1.00
C676   C     0.82509   0.97798   0.29249   0.00000  Uiso   1.00
C677   C     0.84158   0.68868   0.20752   0.00000  Uiso   1.00
C678   C     0.82718   0.68805   0.29174   0.00000  Uiso   1.00
H679   H     0.82267   0.86220   0.10740   0.00000  Uiso   1.00
H680   H     0.74033   0.85248   0.12895   0.00000  Uiso   1.00
H681   H     0.71628   0.81024   0.10702   0.00000  Uiso   1.00
H682   H     0.92633   0.81425   0.37104   0.00000  Uiso   1.00
H683   H     0.89358   0.86441   0.38834   0.00000  Uiso   1.00
H684   H     0.95037   0.85650   0.39296   0.00000  Uiso   1.00
H685   H     0.81256   0.92044   0.33555   0.00000  Uiso   1.00
H686   H     0.84539   0.96013   0.35006   0.00000  Uiso   1.00
H687   H     0.78004   0.96592   0.36562   0.00000  Uiso   1.00
H688   H     0.85416   0.74623   0.16444   0.00000  Uiso   1.00
H689   H     0.88662   0.70072   0.13438   0.00000  Uiso   1.00
H690   H     0.84399   0.80449   0.39261   0.00000  Uiso   1.00
H691   H     0.82127   0.70657   0.14995   0.00000  Uiso   1.00
H692   H     0.67748   0.75352   0.17372   0.00000  Uiso   1.00
H693   H     0.95498   0.74497   0.22329   0.00000  Uiso   1.00
H694   H     0.95719   0.78190   0.17724   0.00000  Uiso   1.00
H695   H     0.98919   0.91316   0.32627   0.00000  Uiso   1.00
H696   H     0.70948   0.88477   0.32275   0.00000  Uiso   1.00
H697   H     0.71169   0.92170   0.27670   0.00000  Uiso   1.00
H698   H     0.95076   0.79486   0.10263   0.00000  Uiso   1.00
H699   H     0.71593   0.87185   0.39735   0.00000  Uiso   1.00
H700   H     0.69157   0.88441   0.48106   0.00000  Uiso   1.00
H701   H     0.97512   0.78233   0.01891   0.00000  Uiso   1.00
H702   H     0.72929   0.78031   0.20629   0.00000  Uiso   1.00
H703   H     0.93738   0.88636   0.29371   0.00000  Uiso   1.00
H704   H     0.77307   0.80231   0.11165   0.00000  Uiso   1.00
I705   I     0.67572   0.88942   0.07714   0.00000  Uiso   1.00
I706   I     0.99096   0.77734   0.42284   0.00000  Uiso   1.00
I707   I     0.81696   0.72150   0.35481   0.00000  Uiso   1.00
I708   I     0.84966   0.94517   0.14520   0.00000  Uiso   1.00
N709   N     0.71426   0.83334   0.25001   0.00000  Uiso   1.00
N710   N     0.95241   0.83332   0.24999   0.00000  Uiso   1.00
O711   O     0.79512   0.89442   0.25000   0.00000  Uiso   1.00
O712   O     0.87154   0.77225   0.24999   0.00000  Uiso   1.00
O713   O     0.87157   0.89441   0.25000   0.00000  Uiso   1.00
O714   O     0.79510   0.77226   0.25000   0.00000  Uiso   1.00
O715   O     0.77328   0.83334   0.31612   0.00000  Uiso   1.00
O716   O     0.89339   0.83333   0.18387   0.00000  Uiso   1.00
O717   O     0.84972   0.83333   0.31612   0.00000  Uiso   1.00
O718   O     0.81695   0.83334   0.18388   0.00000  Uiso   1.00
Zn719  Zn    0.78229   0.83334   0.25000   0.00000  Uiso   1.00
Zn720  Zn    0.88438   0.83333   0.25000   0.00000  Uiso   1.00
C721   C     0.16635   0.24649   0.74947   0.00000  Uiso   1.00
C722   C     0.17281   0.31195   0.70827   0.00000  Uiso   1.00
C723   C     0.16842   0.04267   0.74959   0.00000  Uiso   1.00
C724   C     0.16491   0.29066   0.75041   0.00000  Uiso   1.00
C725   C     0.32100   0.13687   0.72534   0.00000  Uiso   1.00
C726   C     0.01234   0.19646   0.77465   0.00000  Uiso   1.00
C727   C     0.03532   0.13719   0.72557   0.00000  Uiso   1.00
C728   C     0.29801   0.19615   0.77443   0.00000  Uiso   1.00
C729   C     0.13579   0.16724   0.83813   0.00000  Uiso   1.00
C730   C     0.19755   0.16610   0.66187   0.00000  Uiso   1.00
C731   C     0.11632   0.17169   0.88910   0.00000  Uiso   1.00
C732   C     0.16698   0.08685   0.75054   0.00000  Uiso   1.00
C733   C     0.21701   0.16167   0.61090   0.00000  Uiso   1.00
C734   C     0.05994   0.20237   0.96201   0.00000  Uiso   1.00
C735   C     0.27341   0.13103   0.53797   0.00000  Uiso   1.00
C736   C     0.07296   0.19417   0.91430   0.00000  Uiso   1.00
C737   C     0.26038   0.13921   0.58569   0.00000  Uiso   1.00
C738   C     0.14643   0.15837   0.91144   0.00000  Uiso   1.00
C739   C     0.18690   0.17500   0.58856   0.00000  Uiso   1.00
C740   C     0.13830   0.17217   0.95647   0.00000  Uiso   1.00
C741   C     0.19504   0.16122   0.54353   0.00000  Uiso   1.00
C742   C     0.09201   0.19075   0.98393   0.00000  Uiso   1.00
C743   C     0.10837   0.17627   0.55333   0.00000  Uiso   1.00
C744   C     0.24133   0.14265   0.51606   0.00000  Uiso   1.00
C745   C     0.17433   0.16576   0.97529   0.00000  Uiso   1.00
C746   C     0.15901   0.16764   0.52470   0.00000  Uiso   1.00
C747   C     0.08360   0.15974   0.60310   0.00000  Uiso   1.00
C748   C     0.24972   0.17365   0.89688   0.00000  Uiso   1.00
C749   C     0.14869   0.28801   0.83820   0.00000  Uiso   1.00
C750   C     0.18465   0.04532   0.66180   0.00000  Uiso   1.00
C751   C     0.31003   0.10257   0.69850   0.00000  Uiso   1.00
C752   C     0.02331   0.23077   0.80149   0.00000  Uiso   1.00
C753   C     0.22497   0.15713   0.94666   0.00000  Uiso   1.00
C754   C     0.07786   0.19421   0.53274   0.00000  Uiso   1.00
C755   C     0.25548   0.13920   0.96724   0.00000  Uiso   1.00
C756   C     0.15842   0.31132   0.79249   0.00000  Uiso   1.00
C757   C     0.17491   0.02202   0.70752   0.00000  Uiso   1.00
C758   C     0.16051   0.02138   0.79174   0.00000  Uiso   1.00
H759   H     0.15601   0.19553   0.60740   0.00000  Uiso   1.00
H760   H     0.07367   0.18582   0.62895   0.00000  Uiso   1.00
H761   H     0.04961   0.14358   0.60702   0.00000  Uiso   1.00
H762   H     0.25966   0.14758   0.87104   0.00000  Uiso   1.00
H763   H     0.22691   0.19774   0.88834   0.00000  Uiso   1.00
H764   H     0.28371   0.18983   0.89296   0.00000  Uiso   1.00
H765   H     0.14589   0.25377   0.83555   0.00000  Uiso   1.00
H766   H     0.17872   0.29346   0.85006   0.00000  Uiso   1.00
H767   H     0.11338   0.29925   0.86562   0.00000  Uiso   1.00
H768   H     0.18749   0.07956   0.66444   0.00000  Uiso   1.00
H769   H     0.21995   0.03406   0.63438   0.00000  Uiso   1.00
H770   H     0.17732   0.13782   0.89261   0.00000  Uiso   1.00
H771   H     0.15461   0.03990   0.64995   0.00000  Uiso   1.00
H772   H     0.01082   0.08685   0.67372   0.00000  Uiso   1.00
H773   H     0.28832   0.07830   0.72329   0.00000  Uiso   1.00
H774   H     0.29052   0.11523   0.67724   0.00000  Uiso   1.00
H775   H     0.32252   0.24649   0.82627   0.00000  Uiso   1.00
H776   H     0.04281   0.21811   0.82275   0.00000  Uiso   1.00
H777   H     0.04502   0.25503   0.77670   0.00000  Uiso   1.00
H778   H     0.28409   0.12819   0.60263   0.00000  Uiso   1.00
H779   H     0.04926   0.20519   0.89735   0.00000  Uiso   1.00
H780   H     0.02490   0.21774   0.98106   0.00000  Uiso   1.00
H781   H     0.30845   0.11567   0.51891   0.00000  Uiso   1.00
H782   H     0.06262   0.11365   0.70629   0.00000  Uiso   1.00
H783   H     0.27071   0.21969   0.79371   0.00000  Uiso   1.00
H784   H     0.10641   0.13565   0.61165   0.00000  Uiso   1.00
I785   I     0.00905   0.22275   0.57714   0.00000  Uiso   1.00
I786   I     0.32430   0.11067   0.92284   0.00000  Uiso   1.00
I787   I     0.15029   0.05484   0.85481   0.00000  Uiso   1.00
I788   I     0.18300   0.27850   0.64520   0.00000  Uiso   1.00
N789   N     0.04759   0.16668   0.75001   0.00000  Uiso   1.00
N790   N     0.28574   0.16666   0.74999   0.00000  Uiso   1.00
O791   O     0.12846   0.22775   0.75000   0.00000  Uiso   1.00
O792   O     0.20488   0.10558   0.74999   0.00000  Uiso   1.00
O793   O     0.20490   0.22774   0.75000   0.00000  Uiso   1.00
O794   O     0.12843   0.10559   0.75000   0.00000  Uiso   1.00
O795   O     0.10661   0.16667   0.81612   0.00000  Uiso   1.00
O796   O     0.22672   0.16666   0.68387   0.00000  Uiso   1.00
O797   O     0.18305   0.16666   0.81612   0.00000  Uiso   1.00
O798   O     0.15028   0.16667   0.68388   0.00000  Uiso   1.00
Zn799  Zn    0.11562   0.16667   0.75000   0.00000  Uiso   1.00
Zn800  Zn    0.21771   0.16666   0.75000   0.00000  Uiso   1.00
C801   C     0.49969   0.24649   0.74947   0.00000  Uiso   1.00
C802   C     0.50614   0.31195   0.70827   0.00000  Uiso   1.00
C803   C     0.50176   0.04267   0.74959   0.00000  Uiso   1.00
C804   C     0.49824   0.29066   0.75041   0.00000  Uiso   1.00
C805   C     0.65433   0.13687   0.72534   0.00000  Uiso   1.00
C806   C     0.34567   0.19646   0.77465   0.00000  Uiso   1.00
C807   C     0.36866   0.13719   0.72557   0.00000  Uiso   1.00
C808   C     0.63134   0.19615   0.77443   0.00000  Uiso   1.00
C809   C     0.46912   0.16724   0.83813   0.00000  Uiso   1.00
C810   C     0.53088   0.16610   0.66187   0.00000  Uiso   1.00
C811   C     0.44966   0.17169   0.88910   0.00000  Uiso   1.00
C812   C     0.50031   0.08685   0.75054   0.00000  Uiso   1.00
C813   C     0.55034   0.16167   0.61090   0.00000  Uiso   1.00
C814   C     0.39327   0.20237   0.96201   0.00000  Uiso   1.00
C815   C     0.60674   0.13103   0.53797   0.00000  Uiso   1.00
C816   C     0.40630   0.19417   0.91430   0.00000  Uiso   1.00
C817   C     0.59371   0.13921   0.58569   0.00000  Uiso   1.00
C818   C     0.47976   0.15837   0.91144   0.00000  Uiso   1.00
C819   C     0.52023   0.17500   0.58856   0.00000  Uiso   1.00
C820   C     0.47163   0.17217   0.95647   0.00000  Uiso   1.00
C821   C     0.52837   0.16122   0.54353   0.00000  Uiso   1.00
C822   C     0.42535   0.19075   0.98393   0.00000  Uiso   1.00
C823   C     0.44170   0.17627   0.55333   0.00000  Uiso   1.00
C824   C     0.57466   0.14265   0.51606   0.00000  Uiso   1.00
C825   C     0.50766   0.16576   0.97529   0.00000  Uiso   1.00
C826   C     0.49234   0.16764   0.52470   0.00000  Uiso   1.00
C827   C     0.41694   0.15974   0.60310   0.00000  Uiso   1.00
C828   C     0.58305   0.17365   0.89688   0.00000  Uiso   1.00
C829   C     0.48202   0.28801   0.83820   0.00000  Uiso   1.00
C830   C     0.51799   0.04532   0.66180   0.00000  Uiso   1.00
C831   C     0.64336   0.10257   0.69850   0.00000  Uiso   1.00
C832   C     0.35664   0.23077   0.80149   0.00000  Uiso   1.00
C833   C     0.55830   0.15713   0.94666   0.00000  Uiso   1.00
C834   C     0.41119   0.19421   0.53274   0.00000  Uiso   1.00
C835   C     0.58882   0.13920   0.96724   0.00000  Uiso   1.00
C836   C     0.49176   0.31132   0.79249   0.00000  Uiso   1.00
C837   C     0.50824   0.02202   0.70752   0.00000  Uiso   1.00
C838   C     0.49385   0.02138   0.79174   0.00000  Uiso   1.00
H839   H     0.48934   0.19553   0.60740   0.00000  Uiso   1.00
H840   H     0.40700   0.18582   0.62895   0.00000  Uiso   1.00
H841   H     0.38295   0.14358   0.60702   0.00000  Uiso   1.00
H842   H     0.59299   0.14758   0.87104   0.00000  Uiso   1.00
H843   H     0.56024   0.19774   0.88834   0.00000  Uiso   1.00
H844   H     0.61704   0.18983   0.89296   0.00000  Uiso   1.00
H845   H     0.47923   0.25377   0.83555   0.00000  Uiso   1.00
H846   H     0.51206   0.29346   0.85006   0.00000  Uiso   1.00
H847   H     0.44671   0.29925   0.86562   0.00000  Uiso   1.00
H848   H     0.52083   0.07956   0.66444   0.00000  Uiso   1.00
H849   H     0.55329   0.03406   0.63438   0.00000  Uiso   1.00
H850   H     0.51065   0.13782   0.89261   0.00000  Uiso   1.00
H851   H     0.48794   0.03990   0.64995   0.00000  Uiso   1.00
H852   H     0.34415   0.08685   0.67372   0.00000  Uiso   1.00
H853   H     0.62165   0.07830   0.72329   0.00000  Uiso   1.00
H854   H     0.62386   0.11523   0.67724   0.00000  Uiso   1.00
H855   H     0.65585   0.24649   0.82627   0.00000  Uiso   1.00
H856   H     0.37614   0.21811   0.82275   0.00000  Uiso   1.00
H857   H     0.37836   0.25503   0.77670   0.00000  Uiso   1.00
H858   H     0.61742   0.12819   0.60263   0.00000  Uiso   1.00
H859   H     0.38259   0.20519   0.89735   0.00000  Uiso   1.00
H860   H     0.35823   0.21774   0.98106   0.00000  Uiso   1.00
H861   H     0.64179   0.11567   0.51891   0.00000  Uiso   1.00
H862   H     0.39595   0.11365   0.70629   0.00000  Uiso   1.00
H863   H     0.60405   0.21969   0.79371   0.00000  Uiso   1.00
H864   H     0.43974   0.13565   0.61165   0.00000  Uiso   1.00
I865   I     0.34238   0.22275   0.57714   0.00000  Uiso   1.00
I866   I     0.65763   0.11067   0.92284   0.00000  Uiso   1.00
I867   I     0.48363   0.05484   0.85481   0.00000  Uiso   1.00
I868   I     0.51633   0.27850   0.64520   0.00000  Uiso   1.00
N869   N     0.38093   0.16668   0.75001   0.00000  Uiso   1.00
N870   N     0.61907   0.16666   0.74999   0.00000  Uiso   1.00
O871   O     0.46179   0.22775   0.75000   0.00000  Uiso   1.00
O872   O     0.53821   0.10558   0.74999   0.00000  Uiso   1.00
O873   O     0.53823   0.22774   0.75000   0.00000  Uiso   1.00
O874   O     0.46177   0.10559   0.75000   0.00000  Uiso   1.00
O875   O     0.43994   0.16667   0.81612   0.00000  Uiso   1.00
O876   O     0.56006   0.16666   0.68387   0.00000  Uiso   1.00
O877   O     0.51639   0.16666   0.81612   0.00000  Uiso   1.00
O878   O     0.48361   0.16667   0.68388   0.00000  Uiso   1.00
Zn879  Zn    0.44896   0.16667   0.75000   0.00000  Uiso   1.00
Zn880  Zn    0.55104   0.16666   0.75000   0.00000  Uiso   1.00
C881   C     0.83302   0.24649   0.74947   0.00000  Uiso   1.00
C882   C     0.83948   0.31195   0.70827   0.00000  Uiso   1.00
C883   C     0.83509   0.04267   0.74959   0.00000  Uiso   1.00
C884   C     0.83157   0.29066   0.75041   0.00000  Uiso   1.00
C885   C     0.98767   0.13687   0.72534   0.00000  Uiso   1.00
C886   C     0.67900   0.19646   0.77465   0.00000  Uiso   1.00
C887   C     0.70199   0.13719   0.72557   0.00000  Uiso   1.00
C888   C     0.96468   0.19615   0.77443   0.00000  Uiso   1.00
C889   C     0.80245   0.16724   0.83813   0.00000  Uiso   1.00
C890   C     0.86421   0.16610   0.66187   0.00000  Uiso   1.00
C891   C     0.78299   0.17169   0.88910   0.00000  Uiso   1.00
C892   C     0.83365   0.08685   0.75054   0.00000  Uiso   1.00
C893   C     0.88368   0.16167   0.61090   0.00000  Uiso   1.00
C894   C     0.72661   0.20237   0.96201   0.00000  Uiso   1.00
C895   C     0.94008   0.13103   0.53797   0.00000  Uiso   1.00
C896   C     0.73963   0.19417   0.91430   0.00000  Uiso   1.00
C897   C     0.92705   0.13921   0.58569   0.00000  Uiso   1.00
C898   C     0.81310   0.15837   0.91144   0.00000  Uiso   1.00
C899   C     0.85357   0.17500   0.58856   0.00000  Uiso   1.00
C900   C     0.80497   0.17217   0.95647   0.00000  Uiso   1.00
C901   C     0.86170   0.16122   0.54353   0.00000  Uiso   1.00
C902   C     0.75868   0.19075   0.98393   0.00000  Uiso   1.00
C903   C     0.77503   0.17627   0.55333   0.00000  Uiso   1.00
C904   C     0.90799   0.14265   0.51606   0.00000  Uiso   1.00
C905   C     0.84099   0.16576   0.97529   0.00000  Uiso   1.00
C906   C     0.82568   0.16764   0.52470   0.00000  Uiso   1.00
C907   C     0.75027   0.15974   0.60310   0.00000  Uiso   1.00
C908   C     0.91639   0.17365   0.89688   0.00000  Uiso   1.00
C909   C     0.81536   0.28801   0.83820   0.00000  Uiso   1.00
C910   C     0.85132   0.04532   0.66180   0.00000  Uiso   1.00
C911   C     0.97669   0.10257   0.69850   0.00000  Uiso   1.00
C912   C     0.68998   0.23077   0.80149   0.00000  Uiso   1.00
C913   C     0.89163   0.15713   0.94666   0.00000  Uiso   1.00
C914   C     0.74453   0.19421   0.53274   0.00000  Uiso   1.00
C915   C     0.92215   0.13920   0.96724   0.00000  Uiso   1.00
C916   C     0.82509   0.31132   0.79249   0.00000  Uiso   1.00
C917   C     0.84158   0.02202   0.70752   0.00000  Uiso   1.00
C918   C     0.82718   0.02138   0.79174   0.00000  Uiso   1.00
H919   H     0.82267   0.19553   0.60740   0.00000  Uiso   1.00
H920   H     0.74033   0.18582   0.62895   0.00000  Uiso   1.00
H921   H     0.71628   0.14358   0.60702   0.00000  Uiso   1.00
H922   H     0.92633   0.14758   0.87104   0.00000  Uiso   1.00
H923   H     0.89358   0.19774   0.88834   0.00000  Uiso   1.00
H924   H     0.95037   0.18983   0.89296   0.00000  Uiso   1.00
H925   H     0.81256   0.25377   0.83555   0.00000  Uiso   1.00
H926   H     0.84539   0.29346   0.85006   0.00000  Uiso   1.00
H927   H     0.78004   0.29925   0.86562   0.00000  Uiso   1.00
H928   H     0.85416   0.07956   0.66444   0.00000  Uiso   1.00
H929   H     0.88662   0.03406   0.63438   0.00000  Uiso   1.00
H930   H     0.84399   0.13782   0.89261   0.00000  Uiso   1.00
H931   H     0.82127   0.03990   0.64995   0.00000  Uiso   1.00
H932   H     0.67748   0.08685   0.67372   0.00000  Uiso   1.00
H933   H     0.95498   0.07830   0.72329   0.00000  Uiso   1.00
H934   H     0.95719   0.11523   0.67724   0.00000  Uiso   1.00
H935   H     0.98919   0.24649   0.82627   0.00000  Uiso   1.00
H936   H     0.70948   0.21811   0.82275   0.00000  Uiso   1.00
H937   H     0.71169   0.25503   0.77670   0.00000  Uiso   1.00
H938   H     0.95076   0.12819   0.60263   0.00000  Uiso   1.00
H939   H     0.71593   0.20519   0.89735   0.00000  Uiso   1.00
H940   H     0.69157   0.21774   0.98106   0.00000  Uiso   1.00
H941   H     0.97512   0.11567   0.51891   0.00000  Uiso   1.00
H942   H     0.72929   0.11365   0.70629   0.00000  Uiso   1.00
H943   H     0.93738   0.21969   0.79371   0.00000  Uiso   1.00
H944   H     0.77307   0.13565   0.61165   0.00000  Uiso   1.00
I945   I     0.67572   0.22275   0.57714   0.00000  Uiso   1.00
I946   I     0.99096   0.11067   0.92284   0.00000  Uiso   1.00
I947   I     0.81696   0.05484   0.85481   0.00000  Uiso   1.00
I948   I     0.84966   0.27850   0.64520   0.00000  Uiso   1.00
N949   N     0.71426   0.16668   0.75001   0.00000  Uiso   1.00
N950   N     0.95241   0.16666   0.74999   0.00000  Uiso   1.00
O951   O     0.79512   0.22775   0.75000   0.00000  Uiso   1.00
O952   O     0.87154   0.10558   0.74999   0.00000  Uiso   1.00
O953   O     0.87157   0.22774   0.75000   0.00000  Uiso   1.00
O954   O     0.79510   0.10559   0.75000   0.00000  Uiso   1.00
O955   O     0.77328   0.16667   0.81612   0.00000  Uiso   1.00
O956   O     0.89339   0.16666   0.68387   0.00000  Uiso   1.00
O957   O     0.84972   0.16666   0.81612   0.00000  Uiso   1.00
O958   O     0.81695   0.16667   0.68388   0.00000  Uiso   1.00
Zn959  Zn    0.78229   0.16667   0.75000   0.00000  Uiso   1.00
Zn960  Zn    0.88438   0.16666   0.75000   0.00000  Uiso   1.00
C961   C     0.16635   0.57982   0.74947   0.00000  Uiso   1.00
C962   C     0.17281   0.64528   0.70827   0.00000  Uiso   1.00
C963   C     0.16842   0.37601   0.74959   0.00000  Uiso   1.00
C964   C     0.16491   0.62399   0.75041   0.00000  Uiso   1.00
C965   C     0.32100   0.47020   0.72534   0.00000  Uiso   1.00
C966   C     0.01234   0.52980   0.77465   0.00000  Uiso   1.00
C967   C     0.03532   0.47052   0.72557   0.00000  Uiso   1.00
C968   C     0.29801   0.52948   0.77443   0.00000  Uiso   1.00
C969   C     0.13579   0.50058   0.83813   0.00000  Uiso   1.00
C970   C     0.19755   0.49943   0.66187   0.00000  Uiso   1.00
C971   C     0.11632   0.50503   0.88910   0.00000  Uiso   1.00
C972   C     0.16698   0.42018   0.75054   0.00000  Uiso   1.00
C973   C     0.21701   0.49500   0.61090   0.00000  Uiso   1.00
C974   C     0.05994   0.53570   0.96201   0.00000  Uiso   1.00
C975   C     0.27341   0.46436   0.53797   0.00000  Uiso   1.00
C976   C     0.07296   0.52750   0.91430   0.00000  Uiso   1.00
C977   C     0.26038   0.47254   0.58569   0.00000  Uiso   1.00
C978   C     0.14643   0.49170   0.91144   0.00000  Uiso   1.00
C979   C     0.18690   0.50833   0.58856   0.00000  Uiso   1.00
C980   C     0.13830   0.50550   0.95647   0.00000  Uiso   1.00
C981   C     0.19504   0.49455   0.54353   0.00000  Uiso   1.00
C982   C     0.09201   0.52409   0.98393   0.00000  Uiso   1.00
C983   C     0.10837   0.50961   0.55333   0.00000  Uiso   1.00
C984   C     0.24133   0.47598   0.51606   0.00000  Uiso   1.00
C985   C     0.17433   0.49909   0.97529   0.00000  Uiso   1.00
C986   C     0.15901   0.50097   0.52470   0.00000  Uiso   1.00
C987   C     0.08360   0.49308   0.60310   0.00000  Uiso   1.00
C988   C     0.24972   0.50699   0.89688   0.00000  Uiso   1.00
C989   C     0.14869   0.62134   0.83820   0.00000  Uiso   1.00
C990   C     0.18465   0.37866   0.66180   0.00000  Uiso   1.00
C991   C     0.31003   0.43591   0.69850   0.00000  Uiso   1.00
C992   C     0.02331   0.56410   0.80149   0.00000  Uiso   1.00
C993   C     0.22497   0.49046   0.94666   0.00000  Uiso   1.00
C994   C     0.07786   0.52755   0.53274   0.00000  Uiso   1.00
C995   C     0.25548   0.47253   0.96724   0.00000  Uiso   1.00
C996   C     0.15842   0.64465   0.79249   0.00000  Uiso   1.00
C997   C     0.17491   0.35535   0.70752   0.00000  Uiso   1.00
C998   C     0.16051   0.35472   0.79174   0.00000  Uiso   1.00
H999   H     0.15601   0.52887   0.60740   0.00000  Uiso   1.00
H1000  H     0.07367   0.51915   0.62895   0.00000  Uiso   1.00
H1001  H     0.04961   0.47691   0.60702   0.00000  Uiso   1.00
H1002  H     0.25966   0.48091   0.87104   0.00000  Uiso   1.00
H1003  H     0.22691   0.53108   0.88834   0.00000  Uiso   1.00
H1004  H     0.28371   0.52317   0.89296   0.00000  Uiso   1.00
H1005  H     0.14589   0.58710   0.83555   0.00000  Uiso   1.00
H1006  H     0.17872   0.62679   0.85006   0.00000  Uiso   1.00
H1007  H     0.11338   0.63259   0.86562   0.00000  Uiso   1.00
H1008  H     0.18749   0.41289   0.66444   0.00000  Uiso   1.00
H1009  H     0.21995   0.36739   0.63438   0.00000  Uiso   1.00
H1010  H     0.17732   0.47116   0.89261   0.00000  Uiso   1.00
H1011  H     0.15461   0.37324   0.64995   0.00000  Uiso   1.00
H1012  H     0.01082   0.42018   0.67372   0.00000  Uiso   1.00
H1013  H     0.28832   0.41164   0.72329   0.00000  Uiso   1.00
H1014  H     0.29052   0.44857   0.67724   0.00000  Uiso   1.00
H1015  H     0.32252   0.57983   0.82627   0.00000  Uiso   1.00
H1016  H     0.04281   0.55144   0.82275   0.00000  Uiso   1.00
H1017  H     0.04502   0.58836   0.77670   0.00000  Uiso   1.00
H1018  H     0.28409   0.46152   0.60263   0.00000  Uiso   1.00
H1019  H     0.04926   0.53852   0.89735   0.00000  Uiso   1.00
H1020  H     0.02490   0.55108   0.98106   0.00000  Uiso   1.00
H1021  H     0.30845   0.44900   0.51891   0.00000  Uiso   1.00
H1022  H     0.06262   0.44698   0.70629   0.00000  Uiso   1.00
H1023  H     0.27071   0.55302   0.79371   0.00000  Uiso   1.00
H1024  H     0.10641   0.46898   0.61165   0.00000  Uiso   1.00
I1025  I     0.00905   0.55608   0.57714   0.00000  Uiso   1.00
I1026  I     0.32430   0.44401   0.92284   0.00000  Uiso   1.00
I1027  I     0.15029   0.38817   0.85481   0.00000  Uiso   1.00
I1028  I     0.18300   0.61184   0.64520   0.00000  Uiso   1.00
N1029  N     0.04759   0.50001   0.75001   0.00000  Uiso   1.00
N1030  N     0.28574   0.49999   0.74999   0.00000  Uiso   1.00
O1031  O     0.12846   0.56108   0.75000   0.00000  Uiso   1.00
O1032  O     0.20488   0.43892   0.74999   0.00000  Uiso   1.00
O1033  O     0.20490   0.56107   0.75000   0.00000  Uiso   1.00
O1034  O     0.12843   0.43893   0.75000   0.00000  Uiso   1.00
O1035  O     0.10661   0.50001   0.81612   0.00000  Uiso   1.00
O1036  O     0.22672   0.49999   0.68387   0.00000  Uiso   1.00
O1037  O     0.18305   0.50000   0.81612   0.00000  Uiso   1.00
O1038  O     0.15028   0.50000   0.68388   0.00000  Uiso   1.00
Zn1039 Zn    0.11562   0.50001   0.75000   0.00000  Uiso   1.00
Zn1040 Zn    0.21771   0.49999   0.75000   0.00000  Uiso   1.00
C1041  C     0.49969   0.57982   0.74947   0.00000  Uiso   1.00
C1042  C     0.50614   0.64528   0.70827   0.00000  Uiso   1.00
C1043  C     0.50176   0.37601   0.74959   0.00000  Uiso   1.00
C1044  C     0.49824   0.62399   0.75041   0.00000  Uiso   1.00
C1045  C     0.65433   0.47020   0.72534   0.00000  Uiso   1.00
C1046  C     0.34567   0.52980   0.77465   0.00000  Uiso   1.00
C1047  C     0.36866   0.47052   0.72557   0.00000  Uiso   1.00
C1048  C     0.63134   0.52948   0.77443   0.00000  Uiso   1.00
C1049  C     0.46912   0.50058   0.83813   0.00000  Uiso   1.00
C1050  C     0.53088   0.49943   0.66187   0.00000  Uiso   1.00
C1051  C     0.44966   0.50503   0.88910   0.00000  Uiso   1.00
C1052  C     0.50031   0.42018   0.75054   0.00000  Uiso   1.00
C1053  C     0.55034   0.49500   0.61090   0.00000  Uiso   1.00
C1054  C     0.39327   0.53570   0.96201   0.00000  Uiso   1.00
C1055  C     0.60674   0.46436   0.53797   0.00000  Uiso   1.00
C1056  C     0.40630   0.52750   0.91430   0.00000  Uiso   1.00
C1057  C     0.59371   0.47254   0.58569   0.00000  Uiso   1.00
C1058  C     0.47976   0.49170   0.91144   0.00000  Uiso   1.00
C1059  C     0.52023   0.50833   0.58856   0.00000  Uiso   1.00
C1060  C     0.47163   0.50550   0.95647   0.00000  Uiso   1.00
C1061  C     0.52837   0.49455   0.54353   0.00000  Uiso   1.00
C1062  C     0.42535   0.52409   0.98393   0.00000  Uiso   1.00
C1063  C     0.44170   0.50961   0.55333   0.00000  Uiso   1.00
C1064  C     0.57466   0.47598   0.51606   0.00000  Uiso   1.00
C1065  C     0.50766   0.49909   0.97529   0.00000  Uiso   1.00
C1066  C     0.49234   0.50097   0.52470   0.00000  Uiso   1.00
C1067  C     0.41694   0.49308   0.60310   0.00000  Uiso   1.00
C1068  C     0.58305   0.50699   0.89688   0.00000  Uiso   1.00
C1069  C     0.48202   0.62134   0.83820   0.00000  Uiso   1.00
C1070  C     0.51799   0.37866   0.66180   0.00000  Uiso   1.00
C1071  C     0.64336   0.43591   0.69850   0.00000  Uiso   1.00
C1072  C     0.35664   0.56410   0.80149   0.00000  Uiso   1.00
C1073  C     0.55830   0.49046   0.94666   0.00000  Uiso   1.00
C1074  C     0.41119   0.52755   0.53274   0.00000  Uiso   1.00
C1075  C     0.58882   0.47253   0.96724   0.00000  Uiso   1.00
C1076  C     0.49176   0.64465   0.79249   0.00000  Uiso   1.00
C1077  C     0.50824   0.35535   0.70752   0.00000  Uiso   1.00
C1078  C     0.49385   0.35472   0.79174   0.00000  Uiso   1.00
H1079  H     0.48934   0.52887   0.60740   0.00000  Uiso   1.00
H1080  H     0.40700   0.51915   0.62895   0.00000  Uiso   1.00
H1081  H     0.38295   0.47691   0.60702   0.00000  Uiso   1.00
H1082  H     0.59299   0.48091   0.87104   0.00000  Uiso   1.00
H1083  H     0.56024   0.53108   0.88834   0.00000  Uiso   1.00
H1084  H     0.61704   0.52317   0.89296   0.00000  Uiso   1.00
H1085  H     0.47923   0.58710   0.83555   0.00000  Uiso   1.00
H1086  H     0.51206   0.62679   0.85006   0.00000  Uiso   1.00
H1087  H     0.44671   0.63259   0.86562   0.00000  Uiso   1.00
H1088  H     0.52083   0.41289   0.66444   0.00000  Uiso   1.00
H1089  H     0.55329   0.36739   0.63438   0.00000  Uiso   1.00
H1090  H     0.51065   0.47116   0.89261   0.00000  Uiso   1.00
H1091  H     0.48794   0.37324   0.64995   0.00000  Uiso   1.00
H1092  H     0.34415   0.42018   0.67372   0.00000  Uiso   1.00
H1093  H     0.62165   0.41164   0.72329   0.00000  Uiso   1.00
H1094  H     0.62386   0.44857   0.67724   0.00000  Uiso   1.00
H1095  H     0.65585   0.57983   0.82627   0.00000  Uiso   1.00
H1096  H     0.37614   0.55144   0.82275   0.00000  Uiso   1.00
H1097  H     0.37836   0.58836   0.77670   0.00000  Uiso   1.00
H1098  H     0.61742   0.46152   0.60263   0.00000  Uiso   1.00
H1099  H     0.38259   0.53852   0.89735   0.00000  Uiso   1.00
H1100  H     0.35823   0.55108   0.98106   0.00000  Uiso   1.00
H1101  H     0.64179   0.44900   0.51891   0.00000  Uiso   1.00
H1102  H     0.39595   0.44698   0.70629   0.00000  Uiso   1.00
H1103  H     0.60405   0.55302   0.79371   0.00000  Uiso   1.00
H1104  H     0.43974   0.46898   0.61165   0.00000  Uiso   1.00
I1105  I     0.34238   0.55608   0.57714   0.00000  Uiso   1.00
I1106  I     0.65763   0.44401   0.92284   0.00000  Uiso   1.00
I1107  I     0.48363   0.38817   0.85481   0.00000  Uiso   1.00
I1108  I     0.51633   0.61184   0.64520   0.00000  Uiso   1.00
N1109  N     0.38093   0.50001   0.75001   0.00000  Uiso   1.00
N1110  N     0.61907   0.49999   0.74999   0.00000  Uiso   1.00
O1111  O     0.46179   0.56108   0.75000   0.00000  Uiso   1.00
O1112  O     0.53821   0.43892   0.74999   0.00000  Uiso   1.00
O1113  O     0.53823   0.56107   0.75000   0.00000  Uiso   1.00
O1114  O     0.46177   0.43893   0.75000   0.00000  Uiso   1.00
O1115  O     0.43994   0.50001   0.81612   0.00000  Uiso   1.00
O1116  O     0.56006   0.49999   0.68387   0.00000  Uiso   1.00
O1117  O     0.51639   0.50000   0.81612   0.00000  Uiso   1.00
O1118  O     0.48361   0.50000   0.68388   0.00000  Uiso   1.00
Zn1119 Zn    0.44896   0.50001   0.75000   0.00000  Uiso   1.00
Zn1120 Zn    0.55104   0.49999   0.75000   0.00000  Uiso   1.00
C1121  C     0.83302   0.57982   0.74947   0.00000  Uiso   1.00
C1122  C     0.83948   0.64528   0.70827   0.00000  Uiso   1.00
C1123  C     0.83509   0.37601   0.74959   0.00000  Uiso   1.00
C1124  C     0.83157   0.62399   0.75041   0.00000  Uiso   1.00
C1125  C     0.98767   0.47020   0.72534   0.00000  Uiso   1.00
C1126  C     0.67900   0.52980   0.77465   0.00000  Uiso   1.00
C1127  C     0.70199   0.47052   0.72557   0.00000  Uiso   1.00
C1128  C     0.96468   0.52948   0.77443   0.00000  Uiso   1.00
C1129  C     0.80245   0.50058   0.83813   0.00000  Uiso   1.00
C1130  C     0.86421   0.49943   0.66187   0.00000  Uiso   1.00
C1131  C     0.78299   0.50503   0.88910   0.00000  Uiso   1.00
C1132  C     0.83365   0.42018   0.75054   0.00000  Uiso   1.00
C1133  C     0.88368   0.49500   0.61090   0.00000  Uiso   1.00
C1134  C     0.72661   0.53570   0.96201   0.00000  Uiso   1.00
C1135  C     0.94008   0.46436   0.53797   0.00000  Uiso   1.00
C1136  C     0.73963   0.52750   0.91430   0.00000  Uiso   1.00
C1137  C     0.92705   0.47254   0.58569   0.00000  Uiso   1.00
C1138  C     0.81310   0.49170   0.91144   0.00000  Uiso   1.00
C1139  C     0.85357   0.50833   0.58856   0.00000  Uiso   1.00
C1140  C     0.80497   0.50550   0.95647   0.00000  Uiso   1.00
C1141  C     0.86170   0.49455   0.54353   0.00000  Uiso   1.00
C1142  C     0.75868   0.52409   0.98393   0.00000  Uiso   1.00
C1143  C     0.77503   0.50961   0.55333   0.00000  Uiso   1.00
C1144  C     0.90799   0.47598   0.51606   0.00000  Uiso   1.00
C1145  C     0.84099   0.49909   0.97529   0.00000  Uiso   1.00
C1146  C     0.82568   0.50097   0.52470   0.00000  Uiso   1.00
C1147  C     0.75027   0.49308   0.60310   0.00000  Uiso   1.00
C1148  C     0.91639   0.50699   0.89688   0.00000  Uiso   1.00
C1149  C     0.81536   0.62134   0.83820   0.00000  Uiso   1.00
C1150  C     0.85132   0.37866   0.66180   0.00000  Uiso   1.00
C1151  C     0.97669   0.43591   0.69850   0.00000  Uiso   1.00
C1152  C     0.68998   0.56410   0.80149   0.00000  Uiso   1.00
C1153  C     0.89163   0.49046   0.94666   0.00000  Uiso   1.00
C1154  C     0.74453   0.52755   0.53274   0.00000  Uiso   1.00
C1155  C     0.92215   0.47253   0.96724   0.00000  Uiso   1.00
C1156  C     0.82509   0.64465   0.79249   0.00000  Uiso   1.00
C1157  C     0.84158   0.35535   0.70752   0.00000  Uiso   1.00
C1158  C     0.82718   0.35472   0.79174   0.00000  Uiso   1.00
H1159  H     0.82267   0.52887   0.60740   0.00000  Uiso   1.00
H1160  H     0.74033   0.51915   0.62895   0.00000  Uiso   1.00
H1161  H     0.71628   0.47691   0.60702   0.00000  Uiso   1.00
H1162  H     0.92633   0.48091   0.87104   0.00000  Uiso   1.00
H1163  H     0.89358   0.53108   0.88834   0.00000  Uiso   1.00
H1164  H     0.95037   0.52317   0.89296   0.00000  Uiso   1.00
H1165  H     0.81256   0.58710   0.83555   0.00000  Uiso   1.00
H1166  H     0.84539   0.62679   0.85006   0.00000  Uiso   1.00
H1167  H     0.78004   0.63259   0.86562   0.00000  Uiso   1.00
H1168  H     0.85416   0.41289   0.66444   0.00000  Uiso   1.00
H1169  H     0.88662   0.36739   0.63438   0.00000  Uiso   1.00
H1170  H     0.84399   0.47116   0.89261   0.00000  Uiso   1.00
H1171  H     0.82127   0.37324   0.64995   0.00000  Uiso   1.00
H1172  H     0.67748   0.42018   0.67372   0.00000  Uiso   1.00
H1173  H     0.95498   0.41164   0.72329   0.00000  Uiso   1.00
H1174  H     0.95719   0.44857   0.67724   0.00000  Uiso   1.00
H1175  H     0.98919   0.57983   0.82627   0.00000  Uiso   1.00
H1176  H     0.70948   0.55144   0.82275   0.00000  Uiso   1.00
H1177  H     0.71169   0.58836   0.77670   0.00000  Uiso   1.00
H1178  H     0.95076   0.46152   0.60263   0.00000  Uiso   1.00
H1179  H     0.71593   0.53852   0.89735   0.00000  Uiso   1.00
H1180  H     0.69157   0.55108   0.98106   0.00000  Uiso   1.00
H1181  H     0.97512   0.44900   0.51891   0.00000  Uiso   1.00
H1182  H     0.72929   0.44698   0.70629   0.00000  Uiso   1.00
H1183  H     0.93738   0.55302   0.79371   0.00000  Uiso   1.00
H1184  H     0.77307   0.46898   0.61165   0.00000  Uiso   1.00
I1185  I     0.67572   0.55608   0.57714   0.00000  Uiso   1.00
I1186  I     0.99096   0.44401   0.92284   0.00000  Uiso   1.00
I1187  I     0.81696   0.38817   0.85481   0.00000  Uiso   1.00
I1188  I     0.84966   0.61184   0.64520   0.00000  Uiso   1.00
N1189  N     0.71426   0.50001   0.75001   0.00000  Uiso   1.00
N1190  N     0.95241   0.49999   0.74999   0.00000  Uiso   1.00
O1191  O     0.79512   0.56108   0.75000   0.00000  Uiso   1.00
O1192  O     0.87154   0.43892   0.74999   0.00000  Uiso   1.00
O1193  O     0.87157   0.56107   0.75000   0.00000  Uiso   1.00
O1194  O     0.79510   0.43893   0.75000   0.00000  Uiso   1.00
O1195  O     0.77328   0.50001   0.81612   0.00000  Uiso   1.00
O1196  O     0.89339   0.49999   0.68387   0.00000  Uiso   1.00
O1197  O     0.84972   0.50000   0.81612   0.00000  Uiso   1.00
O1198  O     0.81695   0.50000   0.68388   0.00000  Uiso   1.00
Zn1199 Zn    0.78229   0.50001   0.75000   0.00000  Uiso   1.00
Zn1200 Zn    0.88438   0.49999   0.75000   0.00000  Uiso   1.00
C1201  C     0.16635   0.91315   0.74947   0.00000  Uiso   1.00
C1202  C     0.17281   0.97862   0.70827   0.00000  Uiso   1.00
C1203  C     0.16842   0.70934   0.74959   0.00000  Uiso   1.00
C1204  C     0.16491   0.95733   0.75041   0.00000  Uiso   1.00
C1205  C     0.32100   0.80354   0.72534   0.00000  Uiso   1.00
C1206  C     0.01234   0.86313   0.77465   0.00000  Uiso   1.00
C1207  C     0.03532   0.80385   0.72557   0.00000  Uiso   1.00
C1208  C     0.29801   0.86281   0.77443   0.00000  Uiso   1.00
C1209  C     0.13579   0.83391   0.83813   0.00000  Uiso   1.00
C1210  C     0.19755   0.83276   0.66187   0.00000  Uiso   1.00
C1211  C     0.11632   0.83836   0.88910   0.00000  Uiso   1.00
C1212  C     0.16698   0.75351   0.75054   0.00000  Uiso   1.00
C1213  C     0.21701   0.82833   0.61090   0.00000  Uiso   1.00
C1214  C     0.05994   0.86904   0.96201   0.00000  Uiso   1.00
C1215  C     0.27341   0.79769   0.53797   0.00000  Uiso   1.00
C1216  C     0.07296   0.86084   0.91430   0.00000  Uiso   1.00
C1217  C     0.26038   0.80588   0.58569   0.00000  Uiso   1.00
C1218  C     0.14643   0.82503   0.91144   0.00000  Uiso   1.00
C1219  C     0.18690   0.84166   0.58856   0.00000  Uiso   1.00
C1220  C     0.13830   0.83883   0.95647   0.00000  Uiso   1.00
C1221  C     0.19504   0.82789   0.54353   0.00000  Uiso   1.00
C1222  C     0.09201   0.85742   0.98393   0.00000  Uiso   1.00
C1223  C     0.10837   0.84294   0.55333   0.00000  Uiso   1.00
C1224  C     0.24133   0.80931   0.51606   0.00000  Uiso   1.00
C1225  C     0.17433   0.83243   0.97529   0.00000  Uiso   1.00
C1226  C     0.15901   0.83430   0.52470   0.00000  Uiso   1.00
C1227  C     0.08360   0.82641   0.60310   0.00000  Uiso   1.00
C1228  C     0.24972   0.84032   0.89688   0.00000  Uiso   1.00
C1229  C     0.14869   0.95468   0.83820   0.00000  Uiso   1.00
C1230  C     0.18465   0.71199   0.66180   0.00000  Uiso   1.00
C1231  C     0.31003   0.76924   0.69850   0.00000  Uiso   1.00
C1232  C     0.02331   0.89743   0.80149   0.00000  Uiso   1.00
C1233  C     0.22497   0.82379   0.94666   0.00000  Uiso   1.00
C1234  C     0.07786   0.86088   0.53274   0.00000  Uiso   1.00
C1235  C     0.25548   0.80586   0.96724   0.00000  Uiso   1.00
C1236  C     0.15842   0.97798   0.79249   0.00000  Uiso   1.00
C1237  C     0.17491   0.68868   0.70752   0.00000  Uiso   1.00
C1238  C     0.16051   0.68805   0.79174   0.00000  Uiso   1.00
H1239  H     0.15601   0.86220   0.60740   0.00000  Uiso   1.00
H1240  H     0.07367   0.85248   0.62895   0.00000  Uiso   1.00
H1241  H     0.04961   0.81024   0.60702   0.00000  Uiso   1.00
H1242  H     0.25966   0.81425   0.87104   0.00000  Uiso   1.00
H1243  H     0.22691   0.86441   0.88834   0.00000  Uiso   1.00
H1244  H     0.28371   0.85650   0.89296   0.00000  Uiso   1.00
H1245  H     0.14589   0.92044   0.83555   0.00000  Uiso   1.00
H1246  H     0.17872   0.96013   0.85006   0.00000  Uiso   1.00
H1247  H     0.11338   0.96592   0.86562   0.00000  Uiso   1.00
H1248  H     0.18749   0.74623   0.66444   0.00000  Uiso   1.00
H1249  H     0.21995   0.70072   0.63438   0.00000  Uiso   1.00
H1250  H     0.17732   0.80449   0.89261   0.00000  Uiso   1.00
H1251  H     0.15461   0.70657   0.64995   0.00000  Uiso   1.00
H1252  H     0.01082   0.75352   0.67372   0.00000  Uiso   1.00
H1253  H     0.28832   0.74497   0.72329   0.00000  Uiso   1.00
H1254  H     0.29052   0.78190   0.67724   0.00000  Uiso   1.00
H1255  H     0.32252   0.91316   0.82627   0.00000  Uiso   1.00
H1256  H     0.04281   0.88477   0.82275   0.00000  Uiso   1.00
H1257  H     0.04502   0.92170   0.77670   0.00000  Uiso   1.00
H1258  H     0.28409   0.79486   0.60263   0.00000  Uiso   1.00
H1259  H     0.04926   0.87185   0.89735   0.00000  Uiso   1.00
H1260  H     0.02490   0.88441   0.98106   0.00000  Uiso   1.00
H1261  H     0.30845   0.78233   0.51891   0.00000  Uiso   1.00
H1262  H     0.06262   0.78031   0.70629   0.00000  Uiso   1.00
H1263  H     0.27071   0.88636   0.79371   0.00000  Uiso   1.00
H1264  H     0.10641   0.80231   0.61165   0.00000  Uiso   1.00
I1265  I     0.00905   0.88942   0.57714   0.00000  Uiso   1.00
I1266  I     0.32430   0.77734   0.92284   0.00000  Uiso   1.00
I1267  I     0.15029   0.72150   0.85481   0.00000  Uiso   1.00
I1268  I     0.18300   0.94517   0.64520   0.00000  Uiso   1.00
N1269  N     0.04759   0.83334   0.75001   0.00000  Uiso   1.00
N1270  N     0.28574   0.83332   0.74999   0.00000  Uiso   1.00
O1271  O     0.12846   0.89442   0.75000   0.00000  Uiso   1.00
O1272  O     0.20488   0.77225   0.74999   0.00000  Uiso   1.00
O1273  O     0.20490   0.89441   0.75000   0.00000  Uiso   1.00
O1274  O     0.12843   0.77226   0.75000   0.00000  Uiso   1.00
O1275  O     0.10661   0.83334   0.81612   0.00000  Uiso   1.00
O1276  O     0.22672   0.83333   0.68387   0.00000  Uiso   1.00
O1277  O     0.18305   0.83333   0.81612   0.00000  Uiso   1.00
O1278  O     0.15028   0.83334   0.68388   0.00000  Uiso   1.00
Zn1279 Zn    0.11562   0.83334   0.75000   0.00000  Uiso   1.00
Zn1280 Zn    0.21771   0.83333   0.75000   0.00000  Uiso   1.00
C1281  C     0.49969   0.91315   0.74947   0.00000  Uiso   1.00
C1282  C     0.50614   0.97862   0.70827   0.00000  Uiso   1.00
C1283  C     0.50176   0.70934   0.74959   0.00000  Uiso   1.00
C1284  C     0.49824   0.95733   0.75041   0.00000  Uiso   1.00
C1285  C     0.65433   0.80354   0.72534   0.00000  Uiso   1.00
C1286  C     0.34567   0.86313   0.77465   0.00000  Uiso   1.00
C1287  C     0.36866   0.80385   0.72557   0.00000  Uiso   1.00
C1288  C     0.63134   0.86281   0.77443   0.00000  Uiso   1.00
C1289  C     0.46912   0.83391   0.83813   0.00000  Uiso   1.00
C1290  C     0.53088   0.83276   0.66187   0.00000  Uiso   1.00
C1291  C     0.44966   0.83836   0.88910   0.00000  Uiso   1.00
C1292  C     0.50031   0.75351   0.75054   0.00000  Uiso   1.00
C1293  C     0.55034   0.82833   0.61090   0.00000  Uiso   1.00
C1294  C     0.39327   0.86904   0.96201   0.00000  Uiso   1.00
C1295  C     0.60674   0.79769   0.53797   0.00000  Uiso   1.00
C1296  C     0.40630   0.86084   0.91430   0.00000  Uiso   1.00
C1297  C     0.59371   0.80588   0.58569   0.00000  Uiso   1.00
C1298  C     0.47976   0.82503   0.91144   0.00000  Uiso   1.00
C1299  C     0.52023   0.84166   0.58856   0.00000  Uiso   1.00
C1300  C     0.47163   0.83883   0.95647   0.00000  Uiso   1.00
C1301  C     0.52837   0.82789   0.54353   0.00000  Uiso   1.00
C1302  C     0.42535   0.85742   0.98393   0.00000  Uiso   1.00
C1303  C     0.44170   0.84294   0.55333   0.00000  Uiso   1.00
C1304  C     0.57466   0.80931   0.51606   0.00000  Uiso   1.00
C1305  C     0.50766   0.83243   0.97529   0.00000  Uiso   1.00
C1306  C     0.49234   0.83430   0.52470   0.00000  Uiso   1.00
C1307  C     0.41694   0.82641   0.60310   0.00000  Uiso   1.00
C1308  C     0.58305   0.84032   0.89688   0.00000  Uiso   1.00
C1309  C     0.48202   0.95468   0.83820   0.00000  Uiso   1.00
C1310  C     0.51799   0.71199   0.66180   0.00000  Uiso   1.00
C1311  C     0.64336   0.76924   0.69850   0.00000  Uiso   1.00
C1312  C     0.35664   0.89743   0.80149   0.00000  Uiso   1.00
C1313  C     0.55830   0.82379   0.94666   0.00000  Uiso   1.00
C1314  C     0.41119   0.86088   0.53274   0.00000  Uiso   1.00
C1315  C     0.58882   0.80586   0.96724   0.00000  Uiso   1.00
C1316  C     0.49176   0.97798   0.79249   0.00000  Uiso   1.00
C1317  C     0.50824   0.68868   0.70752   0.00000  Uiso   1.00
C1318  C     0.49385   0.68805   0.79174   0.00000  Uiso   1.00
H1319  H     0.48934   0.86220   0.60740   0.00000  Uiso   1.00
H1320  H     0.40700   0.85248   0.62895   0.00000  Uiso   1.00
H1321  H     0.38295   0.81024   0.60702   0.00000  Uiso   1.00
H1322  H     0.59299   0.81425   0.87104   0.00000  Uiso   1.00
H1323  H     0.56024   0.86441   0.88834   0.00000  Uiso   1.00
H1324  H     0.61704   0.85650   0.89296   0.00000  Uiso   1.00
H1325  H     0.47923   0.92044   0.83555   0.00000  Uiso   1.00
H1326  H     0.51206   0.96013   0.85006   0.00000  Uiso   1.00
H1327  H     0.44671   0.96592   0.86562   0.00000  Uiso   1.00
H1328  H     0.52083   0.74623   0.66444   0.00000  Uiso   1.00
H1329  H     0.55329   0.70072   0.63438   0.00000  Uiso   1.00
H1330  H     0.51065   0.80449   0.89261   0.00000  Uiso   1.00
H1331  H     0.48794   0.70657   0.64995   0.00000  Uiso   1.00
H1332  H     0.34415   0.75352   0.67372   0.00000  Uiso   1.00
H1333  H     0.62165   0.74497   0.72329   0.00000  Uiso   1.00
H1334  H     0.62386   0.78190   0.67724   0.00000  Uiso   1.00
H1335  H     0.65585   0.91316   0.82627   0.00000  Uiso   1.00
H1336  H     0.37614   0.88477   0.82275   0.00000  Uiso   1.00
H1337  H     0.37836   0.92170   0.77670   0.00000  Uiso   1.00
H1338  H     0.61742   0.79486   0.60263   0.00000  Uiso   1.00
H1339  H     0.38259   0.87185   0.89735   0.00000  Uiso   1.00
H1340  H     0.35823   0.88441   0.98106   0.00000  Uiso   1.00
H1341  H     0.64179   0.78233   0.51891   0.00000  Uiso   1.00
H1342  H     0.39595   0.78031   0.70629   0.00000  Uiso   1.00
H1343  H     0.60405   0.88636   0.79371   0.00000  Uiso   1.00
H1344  H     0.43974   0.80231   0.61165   0.00000  Uiso   1.00
I1345  I     0.34238   0.88942   0.57714   0.00000  Uiso   1.00
I1346  I     0.65763   0.77734   0.92284   0.00000  Uiso   1.00
I1347  I     0.48363   0.72150   0.85481   0.00000  Uiso   1.00
I1348  I     0.51633   0.94517   0.64520   0.00000  Uiso   1.00
N1349  N     0.38093   0.83334   0.75001   0.00000  Uiso   1.00
N1350  N     0.61907   0.83332   0.74999   0.00000  Uiso   1.00
O1351  O     0.46179   0.89442   0.75000   0.00000  Uiso   1.00
O1352  O     0.53821   0.77225   0.74999   0.00000  Uiso   1.00
O1353  O     0.53823   0.89441   0.75000   0.00000  Uiso   1.00
O1354  O     0.46177   0.77226   0.75000   0.00000  Uiso   1.00
O1355  O     0.43994   0.83334   0.81612   0.00000  Uiso   1.00
O1356  O     0.56006   0.83333   0.68387   0.00000  Uiso   1.00
O1357  O     0.51639   0.83333   0.81612   0.00000  Uiso   1.00
O1358  O     0.48361   0.83334   0.68388   0.00000  Uiso   1.00
Zn1359 Zn    0.44896   0.83334   0.75000   0.00000  Uiso   1.00
Zn1360 Zn    0.55104   0.83333   0.75000   0.00000  Uiso   1.00
C1361  C     0.83302   0.91315   0.74947   0.00000  Uiso   1.00
C1362  C     0.83948   0.97862   0.70827   0.00000  Uiso   1.00
C1363  C     0.83509   0.70934   0.74959   0.00000  Uiso   1.00
C1364  C     0.83157   0.95733   0.75041   0.00000  Uiso   1.00
C1365  C     0.98767   0.80354   0.72534   0.00000  Uiso   1.00
C1366  C     0.67900   0.86313   0.77465   0.00000  Uiso   1.00
C1367  C     0.70199   0.80385   0.72557   0.00000  Uiso   1.00
C1368  C     0.96468   0.86281   0.77443   0.00000  Uiso   1.00
C1369  C     0.80245   0.83391   0.83813   0.00000  Uiso   1.00
C1370  C     0.86421   0.83276   0.66187   0.00000  Uiso   1.00
C1371  C     0.78299   0.83836   0.88910   0.00000  Uiso   1.00
C1372  C     0.83365   0.75351   0.75054   0.00000  Uiso   1.00
C1373  C     0.88368   0.82833   0.61090   0.00000  Uiso   1.00
C1374  C     0.72661   0.86904   0.96201   0.00000  Uiso   1.00
C1375  C     0.94008   0.79769   0.53797   0.00000  Uiso   1.00
C1376  C     0.73963   0.86084   0.91430   0.00000  Uiso   1.00
C1377  C     0.92705   0.80588   0.58569   0.00000  Uiso   1.00
C1378  C     0.81310   0.82503   0.91144   0.00000  Uiso   1.00
C1379  C     0.85357   0.84166   0.58856   0.00000  Uiso   1.00
C1380  C     0.80497   0.83883   0.95647   0.00000  Uiso   1.00
C1381  C     0.86170   0.82789   0.54353   0.00000  Uiso   1.00
C1382  C     0.75868   0.85742   0.98393   0.00000  Uiso   1.00
C1383  C     0.77503   0.84294   0.55333   0.00000  Uiso   1.00
C1384  C     0.90799   0.80931   0.51606   0.00000  Uiso   1.00
C1385  C     0.84099   0.83243   0.97529   0.00000  Uiso   1.00
C1386  C     0.82568   0.83430   0.52470   0.00000  Uiso   1.00
C1387  C     0.75027   0.82641   0.60310   0.00000  Uiso   1.00
C1388  C     0.91639   0.84032   0.89688   0.00000  Uiso   1.00
C1389  C     0.81536   0.95468   0.83820   0.00000  Uiso   1.00
C1390  C     0.85132   0.71199   0.66180   0.00000  Uiso   1.00
C1391  C     0.97669   0.76924   0.69850   0.00000  Uiso   1.00
C1392  C     0.68998   0.89743   0.80149   0.00000  Uiso   1.00
C1393  C     0.89163   0.82379   0.94666   0.00000  Uiso   1.00
C1394  C     0.74453   0.86088   0.53274   0.00000  Uiso   1.00
C1395  C     0.92215   0.80586   0.96724   0.00000  Uiso   1.00
C1396  C     0.82509   0.97798   0.79249   0.00000  Uiso   1.00
C1397  C     0.84158   0.68868   0.70752   0.00000  Uiso   1.00
C1398  C     0.82718   0.68805   0.79174   0.00000  Uiso   1.00
H1399  H     0.82267   0.86220   0.60740   0.00000  Uiso   1.00
H1400  H     0.74033   0.85248   0.62895   0.00000  Uiso   1.00
H1401  H     0.71628   0.81024   0.60702   0.00000  Uiso   1.00
H1402  H     0.92633   0.81425   0.87104   0.00000  Uiso   1.00
H1403  H     0.89358   0.86441   0.88834   0.00000  Uiso   1.00
H1404  H     0.95037   0.85650   0.89296   0.00000  Uiso   1.00
H1405  H     0.81256   0.92044   0.83555   0.00000  Uiso   1.00
H1406  H     0.84539   0.96013   0.85006   0.00000  Uiso   1.00
H1407  H     0.78004   0.96592   0.86562   0.00000  Uiso   1.00
H1408  H     0.85416   0.74623   0.66444   0.00000  Uiso   1.00
H1409  H     0.88662   0.70072   0.63438   0.00000  Uiso   1.00
H1410  H     0.84399   0.80449   0.89261   0.00000  Uiso   1.00
H1411  H     0.82127   0.70657   0.64995   0.00000  Uiso   1.00
H1412  H     0.67748   0.75352   0.67372   0.00000  Uiso   1.00
H1413  H     0.95498   0.74497   0.72329   0.00000  Uiso   1.00
H1414  H     0.95719   0.78190   0.67724   0.00000  Uiso   1.00
H1415  H     0.98919   0.91316   0.82627   0.00000  Uiso   1.00
H1416  H     0.70948   0.88477   0.82275   0.00000  Uiso   1.00
H1417  H     0.71169   0.92170   0.77670   0.00000  Uiso   1.00
H1418  H     0.95076   0.79486   0.60263   0.00000  Uiso   1.00
H1419  H     0.71593   0.87185   0.89735   0.00000  Uiso   1.00
H1420  H     0.69157   0.88441   0.98106   0.00000  Uiso   1.00
H1421  H     0.97512   0.78233   0.51891   0.00000  Uiso   1.00
H1422  H     0.72929   0.78031   0.70629   0.00000  Uiso   1.00
H1423  H     0.93738   0.88636   0.79371   0.00000  Uiso   1.00
H1424  H     0.77307   0.80231   0.61165   0.00000  Uiso   1.00
I1425  I     0.67572   0.88942   0.57714   0.00000  Uiso   1.00
I1426  I     0.99096   0.77734   0.92284   0.00000  Uiso   1.00
I1427  I     0.81696   0.72150   0.85481   0.00000  Uiso   1.00
I1428  I     0.84966   0.94517   0.64520   0.00000  Uiso   1.00
N1429  N     0.71426   0.83334   0.75001   0.00000  Uiso   1.00
N1430  N     0.95241   0.83332   0.74999   0.00000  Uiso   1.00
O1431  O     0.79512   0.89442   0.75000   0.00000  Uiso   1.00
O1432  O     0.87154   0.77225   0.74999   0.00000  Uiso   1.00
O1433  O     0.87157   0.89441   0.75000   0.00000  Uiso   1.00
O1434  O     0.79510   0.77226   0.75000   0.00000  Uiso   1.00
O1435  O     0.77328   0.83334   0.81612   0.00000  Uiso   1.00
O1436  O     0.89339   0.83333   0.68387   0.00000  Uiso   1.00
O1437  O     0.84972   0.83333   0.81612   0.00000  Uiso   1.00
O1438  O     0.81695   0.83334   0.68388   0.00000  Uiso   1.00
Zn1439 Zn    0.78229   0.83334   0.75000   0.00000  Uiso   1.00
Zn1440 Zn    0.88438   0.83333   0.75000   0.00000  Uiso   1.00
loop_
_geom_bond_atom_site_label_1
_geom_bond_atom_site_label_2
_geom_bond_distance
_geom_bond_site_symmetry_2
_ccdc_geom_bond_type
C1     O71     1.285   .     A
C1     C4      1.409   .     S
C1     O73     1.284   .     A
C2     I68     2.144   .     S
C2     C4      1.402   .     A
C2     C277    1.387   .     S
C3     C12     1.409   .     S
C3     C38     1.402   .     A
C3     C37     1.407   .     A
C4     C36     1.407   .     A
C5     N70     1.383   .     A
C5     C31     1.499   .     S
C5     C87     1.421   .     S
C6     N69     1.383   .     A
C6     C32     1.499   .     S
C6     C168    1.421   1_455 S
C7     H62     1.083   .     S
C7     N69     1.358   .     A
C7     C165    1.421   1_455 S
C8     N70     1.358   .     A
C8     H63     1.083   .     S
C8     C86     1.421   .     S
C9     O77     1.297   .     A
C9     C11     1.456   .     S
C9     O75     1.299   .     A
C10    O78     1.297   .     A
C10    O76     1.299   .     A
C10    C13     1.456   .     S
C11    C18     1.387   .     A
C11    C16     1.397   .     A
C12    O74     1.284   .     A
C12    O72     1.285   .     A
C13    C19     1.387   .     A
C13    C17     1.397   .     A
C14    C16     1.396   .     A
C14    H60     1.080   .     S
C14    C22     1.412   .     A
C15    H61     1.080   .     S
C15    C24     1.413   .     A
C15    C17     1.396   .     A
C16    H59     1.082   .     S
C17    H58     1.082   .     S
C18    H50     1.079   .     S
C18    C20     1.391   .     A
C19    C21     1.391   .     A
C19    H39     1.079   .     S
C20    C25     1.417   .     A
C20    C22     1.418   .     A
C21    C26     1.417   .     A
C21    C24     1.418   .     A
C22    C754    1.403   .     S
C23    C26     1.434   .     A
C23    C27     1.516   .     S
C23    C34     1.406   .     A
C24    C755    1.403   1_554 S
C25    C33     1.434   .     A
C25    C746    1.413   .     S
C26    C745    1.413   1_554 S
C27    H41     1.111   .     S
C27    H40     1.110   .     S
C27    H64     1.109   .     S
C28    H44     1.111   .     S
C28    C33     1.516   .     S
C28    H43     1.109   .     S
C28    H42     1.110   .     S
C29    C36     1.518   .     S
C29    H47     1.110   .     S
C29    H45     1.104   .     S
C29    H46     1.110   .     S
C30    H51     1.110   .     S
C30    H48     1.104   .     S
C30    C37     1.518   .     S
C30    H49     1.110   .     S
C31    H53     1.108   .     S
C31    H54     1.103   .     S
C31    H132    1.111   .     S
C32    H57     1.108   .     S
C32    H56     1.103   .     S
C32    H215    1.111   1_455 S
C33    C35     1.406   .     A
C34    I65     2.146   .     S
C34    C742    1.403   1_554 S
C35    I66     2.146   .     S
C35    C744    1.403   .     S
C36    C278    1.387   .     S
C37    C482    1.387   1_545 S
C38    I67     2.145   .     S
C38    C516    1.387   1_545 S
H52    C191    1.111   1_455 S
H55    C112    1.111   .     S
N69    Zn79    2.024   .     S
N70    Zn80    2.024   .     S
O71    Zn79    1.996   .     S
O72    Zn80    1.996   .     S
O73    Zn80    1.975   .     S
O74    Zn79    1.975   .     S
O75    Zn79    1.956   .     S
O76    Zn80    1.956   .     S
O77    Zn80    1.892   .     S
O78    Zn79    1.892   .     S
C81    O151    1.285   .     A
C81    C84     1.409   .     S
C81    O153    1.284   .     A
C82    I148    2.144   .     S
C82    C84     1.402   .     A
C82    C357    1.387   .     S
C83    C92     1.409   .     S
C83    C118    1.402   .     A
C83    C117    1.407   .     A
C84    C116    1.407   .     A
C85    N150    1.383   .     A
C85    C111    1.499   .     S
C85    C167    1.421   .     S
C86    N149    1.383   .     A
C86    C112    1.499   .     S
C87    H142    1.083   .     S
C87    N149    1.358   .     A
C88    N150    1.358   .     A
C88    H143    1.083   .     S
C88    C166    1.421   .     S
C89    O157    1.297   .     A
C89    C91     1.456   .     S
C89    O155    1.299   .     A
C90    O158    1.297   .     A
C90    O156    1.299   .     A
C90    C93     1.456   .     S
C91    C98     1.387   .     A
C91    C96     1.397   .     A
C92    O154    1.284   .     A
C92    O152    1.285   .     A
C93    C99     1.387   .     A
C93    C97     1.397   .     A
C94    C96     1.396   .     A
C94    H140    1.080   .     S
C94    C102    1.412   .     A
C95    H141    1.080   .     S
C95    C104    1.413   .     A
C95    C97     1.396   .     A
C96    H139    1.082   .     S
C97    H138    1.082   .     S
C98    H130    1.079   .     S
C98    C100    1.391   .     A
C99    C101    1.391   .     A
C99    H119    1.079   .     S
C100   C105    1.417   .     A
C100   C102    1.418   .     A
C101   C106    1.417   .     A
C101   C104    1.418   .     A
C102   C834    1.403   .     S
C103   C106    1.434   .     A
C103   C107    1.516   .     S
C103   C114    1.406   .     A
C104   C835    1.403   1_554 S
C105   C113    1.434   .     A
C105   C826    1.413   .     S
C106   C825    1.413   1_554 S
C107   H121    1.111   .     S
C107   H120    1.110   .     S
C107   H144    1.109   .     S
C108   H124    1.111   .     S
C108   C113    1.516   .     S
C108   H123    1.109   .     S
C108   H122    1.110   .     S
C109   C116    1.518   .     S
C109   H127    1.110   .     S
C109   H125    1.104   .     S
C109   H126    1.110   .     S
C110   H131    1.110   .     S
C110   H128    1.104   .     S
C110   C117    1.518   .     S
C110   H129    1.110   .     S
C111   H133    1.108   .     S
C111   H134    1.103   .     S
C111   H212    1.111   .     S
C112   H137    1.108   .     S
C112   H136    1.103   .     S
C113   C115    1.406   .     A
C114   I145    2.146   .     S
C114   C822    1.403   1_554 S
C115   I146    2.146   .     S
C115   C824    1.403   .     S
C116   C358    1.387   .     S
C117   C562    1.387   1_545 S
C118   I147    2.145   .     S
C118   C596    1.387   1_545 S
H135   C192    1.111   .     S
N149   Zn159   2.024   .     S
N150   Zn160   2.024   .     S
O151   Zn159   1.996   .     S
O152   Zn160   1.996   .     S
O153   Zn160   1.975   .     S
O154   Zn159   1.975   .     S
O155   Zn159   1.956   .     S
O156   Zn160   1.956   .     S
O157   Zn160   1.892   .     S
O158   Zn159   1.892   .     S
C161   O231    1.285   .     A
C161   C164    1.409   .     S
C161   O233    1.284   .     A
C162   I228    2.144   .     S
C162   C164    1.402   .     A
C162   C437    1.387   .     S
C163   C172    1.409   .     S
C163   C198    1.402   .     A
C163   C197    1.407   .     A
C164   C196    1.407   .     A
C165   N230    1.383   .     A
C165   C191    1.499   .     S
C165   C7      1.421   1_655 S
C166   N229    1.383   .     A
C166   C192    1.499   .     S
C167   H222    1.083   .     S
C167   N229    1.358   .     A
C168   N230    1.358   .     A
C168   H223    1.083   .     S
C168   C6      1.421   1_655 S
C169   O237    1.297   .     A
C169   C171    1.456   .     S
C169   O235    1.299   .     A
C170   O238    1.297   .     A
C170   O236    1.299   .     A
C170   C173    1.456   .     S
C171   C178    1.387   .     A
C171   C176    1.397   .     A
C172   O234    1.284   .     A
C172   O232    1.285   .     A
C173   C179    1.387   .     A
C173   C177    1.397   .     A
C174   C176    1.396   .     A
C174   H220    1.080   .     S
C174   C182    1.412   .     A
C175   H221    1.080   .     S
C175   C184    1.413   .     A
C175   C177    1.396   .     A
C176   H219    1.082   .     S
C177   H218    1.082   .     S
C178   H210    1.079   .     S
C178   C180    1.391   .     A
C179   C181    1.391   .     A
C179   H199    1.079   .     S
C180   C185    1.417   .     A
C180   C182    1.418   .     A
C181   C186    1.417   .     A
C181   C184    1.418   .     A
C182   C914    1.403   .     S
C183   C186    1.434   .     A
C183   C187    1.516   .     S
C183   C194    1.406   .     A
C184   C915    1.403   1_554 S
C185   C193    1.434   .     A
C185   C906    1.413   .     S
C186   C905    1.413   1_554 S
C187   H201    1.111   .     S
C187   H200    1.110   .     S
C187   H224    1.109   .     S
C188   H204    1.111   .     S
C188   C193    1.516   .     S
C188   H203    1.109   .     S
C188   H202    1.110   .     S
C189   C196    1.518   .     S
C189   H207    1.110   .     S
C189   H205    1.104   .     S
C189   H206    1.110   .     S
C190   H211    1.110   .     S
C190   H208    1.104   .     S
C190   C197    1.518   .     S
C190   H209    1.110   .     S
C191   H213    1.108   .     S
C191   H214    1.103   .     S
C191   H52     1.111   1_655 S
C192   H217    1.108   .     S
C192   H216    1.103   .     S
C193   C195    1.406   .     A
C194   I225    2.146   .     S
C194   C902    1.403   1_554 S
C195   I226    2.146   .     S
C195   C904    1.403   .     S
C196   C438    1.387   .     S
C197   C642    1.387   1_545 S
C198   I227    2.145   .     S
C198   C676    1.387   1_545 S
H215   C32     1.111   1_655 S
N229   Zn239   2.024   .     S
N230   Zn240   2.024   .     S
O231   Zn239   1.996   .     S
O232   Zn240   1.996   .     S
O233   Zn240   1.975   .     S
O234   Zn239   1.975   .     S
O235   Zn239   1.956   .     S
O236   Zn240   1.956   .     S
O237   Zn240   1.892   .     S
O238   Zn239   1.892   .     S
C241   O311    1.285   .     A
C241   C244    1.409   .     S
C241   O313    1.284   .     A
C242   I308    2.144   .     S
C242   C244    1.402   .     A
C242   C517    1.387   .     S
C243   C252    1.409   .     S
C243   C278    1.402   .     A
C243   C277    1.407   .     A
C244   C276    1.407   .     A
C245   N310    1.383   .     A
C245   C271    1.499   .     S
C245   C327    1.421   .     S
C246   N309    1.383   .     A
C246   C272    1.499   .     S
C246   C408    1.421   1_455 S
C247   H302    1.083   .     S
C247   N309    1.358   .     A
C247   C405    1.421   1_455 S
C248   N310    1.358   .     A
C248   H303    1.083   .     S
C248   C326    1.421   .     S
C249   O317    1.297   .     A
C249   C251    1.456   .     S
C249   O315    1.299   .     A
C250   O318    1.297   .     A
C250   O316    1.299   .     A
C250   C253    1.456   .     S
C251   C258    1.387   .     A
C251   C256    1.397   .     A
C252   O314    1.284   .     A
C252   O312    1.285   .     A
C253   C259    1.387   .     A
C253   C257    1.397   .     A
C254   C256    1.396   .     A
C254   H300    1.080   .     S
C254   C262    1.412   .     A
C255   H301    1.080   .     S
C255   C264    1.413   .     A
C255   C257    1.396   .     A
C256   H299    1.082   .     S
C257   H298    1.082   .     S
C258   H290    1.079   .     S
C258   C260    1.391   .     A
C259   C261    1.391   .     A
C259   H279    1.079   .     S
C260   C265    1.417   .     A
C260   C262    1.418   .     A
C261   C266    1.417   .     A
C261   C264    1.418   .     A
C262   C994    1.403   .     S
C263   C266    1.434   .     A
C263   C267    1.516   .     S
C263   C274    1.406   .     A
C264   C995    1.403   1_554 S
C265   C273    1.434   .     A
C265   C986    1.413   .     S
C266   C985    1.413   1_554 S
C267   H281    1.111   .     S
C267   H280    1.110   .     S
C267   H304    1.109   .     S
C268   H284    1.111   .     S
C268   C273    1.516   .     S
C268   H283    1.109   .     S
C268   H282    1.110   .     S
C269   C276    1.518   .     S
C269   H287    1.110   .     S
C269   H285    1.104   .     S
C269   H286    1.110   .     S
C270   H291    1.110   .     S
C270   H288    1.104   .     S
C270   C277    1.518   .     S
C270   H289    1.110   .     S
C271   H293    1.108   .     S
C271   H294    1.103   .     S
C271   H372    1.111   .     S
C272   H297    1.108   .     S
C272   H296    1.103   .     S
C272   H455    1.111   1_455 S
C273   C275    1.406   .     A
C274   I305    2.146   .     S
C274   C982    1.403   1_554 S
C275   I306    2.146   .     S
C275   C984    1.403   .     S
C276   C518    1.387   .     S
C278   I307    2.145   .     S
H292   C431    1.111   1_455 S
H295   C352    1.111   .     S
N309   Zn319   2.024   .     S
N310   Zn320   2.024   .     S
O311   Zn319   1.996   .     S
O312   Zn320   1.996   .     S
O313   Zn320   1.975   .     S
O314   Zn319   1.975   .     S
O315   Zn319   1.956   .     S
O316   Zn320   1.956   .     S
O317   Zn320   1.892   .     S
O318   Zn319   1.892   .     S
C321   O391    1.285   .     A
C321   C324    1.409   .     S
C321   O393    1.284   .     A
C322   I388    2.144   .     S
C322   C324    1.402   .     A
C322   C597    1.387   .     S
C323   C332    1.409   .     S
C323   C358    1.402   .     A
C323   C357    1.407   .     A
C324   C356    1.407   .     A
C325   N390    1.383   .     A
C325   C351    1.499   .     S
C325   C407    1.421   .     S
C326   N389    1.383   .     A
C326   C352    1.499   .     S
C327   H382    1.083   .     S
C327   N389    1.358   .     A
C328   N390    1.358   .     A
C328   H383    1.083   .     S
C328   C406    1.421   .     S
C329   O397    1.297   .     A
C329   C331    1.456   .     S
C329   O395    1.299   .     A
C330   O398    1.297   .     A
C330   O396    1.299   .     A
C330   C333    1.456   .     S
C331   C338    1.387   .     A
C331   C336    1.397   .     A
C332   O394    1.284   .     A
C332   O392    1.285   .     A
C333   C339    1.387   .     A
C333   C337    1.397   .     A
C334   C336    1.396   .     A
C334   H380    1.080   .     S
C334   C342    1.412   .     A
C335   H381    1.080   .     S
C335   C344    1.413   .     A
C335   C337    1.396   .     A
C336   H379    1.082   .     S
C337   H378    1.082   .     S
C338   H370    1.079   .     S
C338   C340    1.391   .     A
C339   C341    1.391   .     A
C339   H359    1.079   .     S
C340   C345    1.417   .     A
C340   C342    1.418   .     A
C341   C346    1.417   .     A
C341   C344    1.418   .     A
C342   C1074   1.403   .     S
C343   C346    1.434   .     A
C343   C347    1.516   .     S
C343   C354    1.406   .     A
C344   C1075   1.403   1_554 S
C345   C353    1.434   .     A
C345   C1066   1.413   .     S
C346   C1065   1.413   1_554 S
C347   H361    1.111   .     S
C347   H360    1.110   .     S
C347   H384    1.109   .     S
C348   H364    1.111   .     S
C348   C353    1.516   .     S
C348   H363    1.109   .     S
C348   H362    1.110   .     S
C349   C356    1.518   .     S
C349   H367    1.110   .     S
C349   H365    1.104   .     S
C349   H366    1.110   .     S
C350   H371    1.110   .     S
C350   H368    1.104   .     S
C350   C357    1.518   .     S
C350   H369    1.110   .     S
C351   H373    1.108   .     S
C351   H374    1.103   .     S
C351   H452    1.111   .     S
C352   H377    1.108   .     S
C352   H376    1.103   .     S
C353   C355    1.406   .     A
C354   I385    2.146   .     S
C354   C1062   1.403   1_554 S
C355   I386    2.146   .     S
C355   C1064   1.403   .     S
C356   C598    1.387   .     S
C358   I387    2.145   .     S
H375   C432    1.111   .     S
N389   Zn399   2.024   .     S
N390   Zn400   2.024   .     S
O391   Zn399   1.996   .     S
O392   Zn400   1.996   .     S
O393   Zn400   1.975   .     S
O394   Zn399   1.975   .     S
O395   Zn399   1.956   .     S
O396   Zn400   1.956   .     S
O397   Zn400   1.892   .     S
O398   Zn399   1.892   .     S
C401   O471    1.285   .     A
C401   C404    1.409   .     S
C401   O473    1.284   .     A
C402   I468    2.144   .     S
C402   C404    1.402   .     A
C402   C677    1.387   .     S
C403   C412    1.409   .     S
C403   C438    1.402   .     A
C403   C437    1.407   .     A
C404   C436    1.407   .     A
C405   N470    1.383   .     A
C405   C431    1.499   .     S
C405   C247    1.421   1_655 S
C406   N469    1.383   .     A
C406   C432    1.499   .     S
C407   H462    1.083   .     S
C407   N469    1.358   .     A
C408   N470    1.358   .     A
C408   H463    1.083   .     S
C408   C246    1.421   1_655 S
C409   O477    1.297   .     A
C409   C411    1.456   .     S
C409   O475    1.299   .     A
C410   O478    1.297   .     A
C410   O476    1.299   .     A
C410   C413    1.456   .     S
C411   C418    1.387   .     A
C411   C416    1.397   .     A
C412   O474    1.284   .     A
C412   O472    1.285   .     A
C413   C419    1.387   .     A
C413   C417    1.397   .     A
C414   C416    1.396   .     A
C414   H460    1.080   .     S
C414   C422    1.412   .     A
C415   H461    1.080   .     S
C415   C424    1.413   .     A
C415   C417    1.396   .     A
C416   H459    1.082   .     S
C417   H458    1.082   .     S
C418   H450    1.079   .     S
C418   C420    1.391   .     A
C419   C421    1.391   .     A
C419   H439    1.079   .     S
C420   C425    1.417   .     A
C420   C422    1.418   .     A
C421   C426    1.417   .     A
C421   C424    1.418   .     A
C422   C1154   1.403   .     S
C423   C426    1.434   .     A
C423   C427    1.516   .     S
C423   C434    1.406   .     A
C424   C1155   1.403   1_554 S
C425   C433    1.434   .     A
C425   C1146   1.413   .     S
C426   C1145   1.413   1_554 S
C427   H441    1.111   .     S
C427   H440    1.110   .     S
C427   H464    1.109   .     S
C428   H444    1.111   .     S
C428   C433    1.516   .     S
C428   H443    1.109   .     S
C428   H442    1.110   .     S
C429   C436    1.518   .     S
C429   H447    1.110   .     S
C429   H445    1.104   .     S
C429   H446    1.110   .     S
C430   H451    1.110   .     S
C430   H448    1.104   .     S
C430   C437    1.518   .     S
C430   H449    1.110   .     S
C431   H453    1.108   .     S
C431   H454    1.103   .     S
C431   H292    1.111   1_655 S
C432   H457    1.108   .     S
C432   H456    1.103   .     S
C433   C435    1.406   .     A
C434   I465    2.146   .     S
C434   C1142   1.403   1_554 S
C435   I466    2.146   .     S
C435   C1144   1.403   .     S
C436   C678    1.387   .     S
C438   I467    2.145   .     S
H455   C272    1.111   1_655 S
N469   Zn479   2.024   .     S
N470   Zn480   2.024   .     S
O471   Zn479   1.996   .     S
O472   Zn480   1.996   .     S
O473   Zn480   1.975   .     S
O474   Zn479   1.975   .     S
O475   Zn479   1.956   .     S
O476   Zn480   1.956   .     S
O477   Zn480   1.892   .     S
O478   Zn479   1.892   .     S
C481   O551    1.285   .     A
C481   C484    1.409   .     S
C481   O553    1.284   .     A
C482   I548    2.144   .     S
C482   C484    1.402   .     A
C482   C37     1.387   1_565 S
C483   C492    1.409   .     S
C483   C518    1.402   .     A
C483   C517    1.407   .     A
C484   C516    1.407   .     A
C485   N550    1.383   .     A
C485   C511    1.499   .     S
C485   C567    1.421   .     S
C486   N549    1.383   .     A
C486   C512    1.499   .     S
C486   C648    1.421   1_455 S
C487   H542    1.083   .     S
C487   N549    1.358   .     A
C487   C645    1.421   1_455 S
C488   N550    1.358   .     A
C488   H543    1.083   .     S
C488   C566    1.421   .     S
C489   O557    1.297   .     A
C489   C491    1.456   .     S
C489   O555    1.299   .     A
C490   O558    1.297   .     A
C490   O556    1.299   .     A
C490   C493    1.456   .     S
C491   C498    1.387   .     A
C491   C496    1.397   .     A
C492   O554    1.284   .     A
C492   O552    1.285   .     A
C493   C499    1.387   .     A
C493   C497    1.397   .     A
C494   C496    1.396   .     A
C494   H540    1.080   .     S
C494   C502    1.412   .     A
C495   H541    1.080   .     S
C495   C504    1.413   .     A
C495   C497    1.396   .     A
C496   H539    1.082   .     S
C497   H538    1.082   .     S
C498   H530    1.079   .     S
C498   C500    1.391   .     A
C499   C501    1.391   .     A
C499   H519    1.079   .     S
C500   C505    1.417   .     A
C500   C502    1.418   .     A
C501   C506    1.417   .     A
C501   C504    1.418   .     A
C502   C1234   1.403   .     S
C503   C506    1.434   .     A
C503   C507    1.516   .     S
C503   C514    1.406   .     A
C504   C1235   1.403   1_554 S
C505   C513    1.434   .     A
C505   C1226   1.413   .     S
C506   C1225   1.413   1_554 S
C507   H521    1.111   .     S
C507   H520    1.110   .     S
C507   H544    1.109   .     S
C508   H524    1.111   .     S
C508   C513    1.516   .     S
C508   H523    1.109   .     S
C508   H522    1.110   .     S
C509   C516    1.518   .     S
C509   H527    1.110   .     S
C509   H525    1.104   .     S
C509   H526    1.110   .     S
C510   H531    1.110   .     S
C510   H528    1.104   .     S
C510   C517    1.518   .     S
C510   H529    1.110   .     S
C511   H533    1.108   .     S
C511   H534    1.103   .     S
C511   H612    1.111   .     S
C512   H537    1.108   .     S
C512   H536    1.103   .     S
C512   H695    1.111   1_455 S
C513   C515    1.406   .     A
C514   I545    2.146   .     S
C514   C1222   1.403   1_554 S
C515   I546    2.146   .     S
C515   C1224   1.403   .     S
C516   C38     1.387   1_565 S
C518   I547    2.145   .     S
H532   C671    1.111   1_455 S
H535   C592    1.111   .     S
N549   Zn559   2.024   .     S
N550   Zn560   2.024   .     S
O551   Zn559   1.996   .     S
O552   Zn560   1.996   .     S
O553   Zn560   1.975   .     S
O554   Zn559   1.975   .     S
O555   Zn559   1.956   .     S
O556   Zn560   1.956   .     S
O557   Zn560   1.892   .     S
O558   Zn559   1.892   .     S
C561   O631    1.285   .     A
C561   C564    1.409   .     S
C561   O633    1.284   .     A
C562   I628    2.144   .     S
C562   C564    1.402   .     A
C562   C117    1.387   1_565 S
C563   C572    1.409   .     S
C563   C598    1.402   .     A
C563   C597    1.407   .     A
C564   C596    1.407   .     A
C565   N630    1.383   .     A
C565   C591    1.499   .     S
C565   C647    1.421   .     S
C566   N629    1.383   .     A
C566   C592    1.499   .     S
C567   H622    1.083   .     S
C567   N629    1.358   .     A
C568   N630    1.358   .     A
C568   H623    1.083   .     S
C568   C646    1.421   .     S
C569   O637    1.297   .     A
C569   C571    1.456   .     S
C569   O635    1.299   .     A
C570   O638    1.297   .     A
C570   O636    1.299   .     A
C570   C573    1.456   .     S
C571   C578    1.387   .     A
C571   C576    1.397   .     A
C572   O634    1.284   .     A
C572   O632    1.285   .     A
C573   C579    1.387   .     A
C573   C577    1.397   .     A
C574   C576    1.396   .     A
C574   H620    1.080   .     S
C574   C582    1.412   .     A
C575   H621    1.080   .     S
C575   C584    1.413   .     A
C575   C577    1.396   .     A
C576   H619    1.082   .     S
C577   H618    1.082   .     S
C578   H610    1.079   .     S
C578   C580    1.391   .     A
C579   C581    1.391   .     A
C579   H599    1.079   .     S
C580   C585    1.417   .     A
C580   C582    1.418   .     A
C581   C586    1.417   .     A
C581   C584    1.418   .     A
C582   C1314   1.403   .     S
C583   C586    1.434   .     A
C583   C587    1.516   .     S
C583   C594    1.406   .     A
C584   C1315   1.403   1_554 S
C585   C593    1.434   .     A
C585   C1306   1.413   .     S
C586   C1305   1.413   1_554 S
C587   H601    1.111   .     S
C587   H600    1.110   .     S
C587   H624    1.109   .     S
C588   H604    1.111   .     S
C588   C593    1.516   .     S
C588   H603    1.109   .     S
C588   H602    1.110   .     S
C589   C596    1.518   .     S
C589   H607    1.110   .     S
C589   H605    1.104   .     S
C589   H606    1.110   .     S
C590   H611    1.110   .     S
C590   H608    1.104   .     S
C590   C597    1.518   .     S
C590   H609    1.110   .     S
C591   H613    1.108   .     S
C591   H614    1.103   .     S
C591   H692    1.111   .     S
C592   H617    1.108   .     S
C592   H616    1.103   .     S
C593   C595    1.406   .     A
C594   I625    2.146   .     S
C594   C1302   1.403   1_554 S
C595   I626    2.146   .     S
C595   C1304   1.403   .     S
C596   C118    1.387   1_565 S
C598   I627    2.145   .     S
H615   C672    1.111   .     S
N629   Zn639   2.024   .     S
N630   Zn640   2.024   .     S
O631   Zn639   1.996   .     S
O632   Zn640   1.996   .     S
O633   Zn640   1.975   .     S
O634   Zn639   1.975   .     S
O635   Zn639   1.956   .     S
O636   Zn640   1.956   .     S
O637   Zn640   1.892   .     S
O638   Zn639   1.892   .     S
C641   O711    1.285   .     A
C641   C644    1.409   .     S
C641   O713    1.284   .     A
C642   I708    2.144   .     S
C642   C644    1.402   .     A
C642   C197    1.387   1_565 S
C643   C652    1.409   .     S
C643   C678    1.402   .     A
C643   C677    1.407   .     A
C644   C676    1.407   .     A
C645   N710    1.383   .     A
C645   C671    1.499   .     S
C645   C487    1.421   1_655 S
C646   N709    1.383   .     A
C646   C672    1.499   .     S
C647   H702    1.083   .     S
C647   N709    1.358   .     A
C648   N710    1.358   .     A
C648   H703    1.083   .     S
C648   C486    1.421   1_655 S
C649   O717    1.297   .     A
C649   C651    1.456   .     S
C649   O715    1.299   .     A
C650   O718    1.297   .     A
C650   O716    1.299   .     A
C650   C653    1.456   .     S
C651   C658    1.387   .     A
C651   C656    1.397   .     A
C652   O714    1.284   .     A
C652   O712    1.285   .     A
C653   C659    1.387   .     A
C653   C657    1.397   .     A
C654   C656    1.396   .     A
C654   H700    1.080   .     S
C654   C662    1.412   .     A
C655   H701    1.080   .     S
C655   C664    1.413   .     A
C655   C657    1.396   .     A
C656   H699    1.082   .     S
C657   H698    1.082   .     S
C658   H690    1.079   .     S
C658   C660    1.391   .     A
C659   C661    1.391   .     A
C659   H679    1.079   .     S
C660   C665    1.417   .     A
C660   C662    1.418   .     A
C661   C666    1.417   .     A
C661   C664    1.418   .     A
C662   C1394   1.403   .     S
C663   C666    1.434   .     A
C663   C667    1.516   .     S
C663   C674    1.406   .     A
C664   C1395   1.403   1_554 S
C665   C673    1.434   .     A
C665   C1386   1.413   .     S
C666   C1385   1.413   1_554 S
C667   H681    1.111   .     S
C667   H680    1.110   .     S
C667   H704    1.109   .     S
C668   H684    1.111   .     S
C668   C673    1.516   .     S
C668   H683    1.109   .     S
C668   H682    1.110   .     S
C669   C676    1.518   .     S
C669   H687    1.110   .     S
C669   H685    1.104   .     S
C669   H686    1.110   .     S
C670   H691    1.110   .     S
C670   H688    1.104   .     S
C670   C677    1.518   .     S
C670   H689    1.110   .     S
C671   H693    1.108   .     S
C671   H694    1.103   .     S
C671   H532    1.111   1_655 S
C672   H697    1.108   .     S
C672   H696    1.103   .     S
C673   C675    1.406   .     A
C674   I705    2.146   .     S
C674   C1382   1.403   1_554 S
C675   I706    2.146   .     S
C675   C1384   1.403   .     S
C676   C198    1.387   1_565 S
C678   I707    2.145   .     S
H695   C512    1.111   1_655 S
N709   Zn719   2.024   .     S
N710   Zn720   2.024   .     S
O711   Zn719   1.996   .     S
O712   Zn720   1.996   .     S
O713   Zn720   1.975   .     S
O714   Zn719   1.975   .     S
O715   Zn719   1.956   .     S
O716   Zn720   1.956   .     S
O717   Zn720   1.892   .     S
O718   Zn719   1.892   .     S
C721   O791    1.285   .     A
C721   C724    1.409   .     S
C721   O793    1.284   .     A
C722   I788    2.144   .     S
C722   C724    1.402   .     A
C722   C997    1.387   .     S
C723   C732    1.409   .     S
C723   C758    1.402   .     A
C723   C757    1.407   .     A
C724   C756    1.407   .     A
C725   N790    1.383   .     A
C725   C751    1.499   .     S
C725   C807    1.421   .     S
C726   N789    1.383   .     A
C726   C752    1.499   .     S
C726   C888    1.421   1_455 S
C727   H782    1.083   .     S
C727   N789    1.358   .     A
C727   C885    1.421   1_455 S
C728   N790    1.358   .     A
C728   H783    1.083   .     S
C728   C806    1.421   .     S
C729   O797    1.297   .     A
C729   C731    1.456   .     S
C729   O795    1.299   .     A
C730   O798    1.297   .     A
C730   O796    1.299   .     A
C730   C733    1.456   .     S
C731   C738    1.387   .     A
C731   C736    1.397   .     A
C732   O794    1.284   .     A
C732   O792    1.285   .     A
C733   C739    1.387   .     A
C733   C737    1.397   .     A
C734   C736    1.396   .     A
C734   H780    1.080   .     S
C734   C742    1.412   .     A
C735   H781    1.080   .     S
C735   C744    1.413   .     A
C735   C737    1.396   .     A
C736   H779    1.082   .     S
C737   H778    1.082   .     S
C738   H770    1.079   .     S
C738   C740    1.391   .     A
C739   C741    1.391   .     A
C739   H759    1.079   .     S
C740   C745    1.417   .     A
C740   C742    1.418   .     A
C741   C746    1.417   .     A
C741   C744    1.418   .     A
C742   C34     1.403   1_556 S
C743   C746    1.434   .     A
C743   C747    1.516   .     S
C743   C754    1.406   .     A
C745   C753    1.434   .     A
C745   C26     1.413   1_556 S
C747   H761    1.111   .     S
C747   H760    1.110   .     S
C747   H784    1.109   .     S
C748   H764    1.111   .     S
C748   C753    1.516   .     S
C748   H763    1.109   .     S
C748   H762    1.110   .     S
C749   C756    1.518   .     S
C749   H767    1.110   .     S
C749   H765    1.104   .     S
C749   H766    1.110   .     S
C750   H771    1.110   .     S
C750   H768    1.104   .     S
C750   C757    1.518   .     S
C750   H769    1.110   .     S
C751   H773    1.108   .     S
C751   H774    1.103   .     S
C751   H852    1.111   .     S
C752   H777    1.108   .     S
C752   H776    1.103   .     S
C752   H935    1.111   1_455 S
C753   C755    1.406   .     A
C754   I785    2.146   .     S
C755   I786    2.146   .     S
C755   C24     1.403   1_556 S
C756   C998    1.387   .     S
C757   C1202   1.387   1_545 S
C758   I787    2.145   .     S
C758   C1236   1.387   1_545 S
H772   C911    1.111   1_455 S
H775   C832    1.111   .     S
N789   Zn799   2.024   .     S
N790   Zn800   2.024   .     S
O791   Zn799   1.996   .     S
O792   Zn800   1.996   .     S
O793   Zn800   1.975   .     S
O794   Zn799   1.975   .     S
O795   Zn799   1.956   .     S
O796   Zn800   1.956   .     S
O797   Zn800   1.892   .     S
O798   Zn799   1.892   .     S
C801   O871    1.285   .     A
C801   C804    1.409   .     S
C801   O873    1.284   .     A
C802   I868    2.144   .     S
C802   C804    1.402   .     A
C802   C1077   1.387   .     S
C803   C812    1.409   .     S
C803   C838    1.402   .     A
C803   C837    1.407   .     A
C804   C836    1.407   .     A
C805   N870    1.383   .     A
C805   C831    1.499   .     S
C805   C887    1.421   .     S
C806   N869    1.383   .     A
C806   C832    1.499   .     S
C807   H862    1.083   .     S
C807   N869    1.358   .     A
C808   N870    1.358   .     A
C808   H863    1.083   .     S
C808   C886    1.421   .     S
C809   O877    1.297   .     A
C809   C811    1.456   .     S
C809   O875    1.299   .     A
C810   O878    1.297   .     A
C810   O876    1.299   .     A
C810   C813    1.456   .     S
C811   C818    1.387   .     A
C811   C816    1.397   .     A
C812   O874    1.284   .     A
C812   O872    1.285   .     A
C813   C819    1.387   .     A
C813   C817    1.397   .     A
C814   C816    1.396   .     A
C814   H860    1.080   .     S
C814   C822    1.412   .     A
C815   H861    1.080   .     S
C815   C824    1.413   .     A
C815   C817    1.396   .     A
C816   H859    1.082   .     S
C817   H858    1.082   .     S
C818   H850    1.079   .     S
C818   C820    1.391   .     A
C819   C821    1.391   .     A
C819   H839    1.079   .     S
C820   C825    1.417   .     A
C820   C822    1.418   .     A
C821   C826    1.417   .     A
C821   C824    1.418   .     A
C822   C114    1.403   1_556 S
C823   C826    1.434   .     A
C823   C827    1.516   .     S
C823   C834    1.406   .     A
C825   C833    1.434   .     A
C825   C106    1.413   1_556 S
C827   H841    1.111   .     S
C827   H840    1.110   .     S
C827   H864    1.109   .     S
C828   H844    1.111   .     S
C828   C833    1.516   .     S
C828   H843    1.109   .     S
C828   H842    1.110   .     S
C829   C836    1.518   .     S
C829   H847    1.110   .     S
C829   H845    1.104   .     S
C829   H846    1.110   .     S
C830   H851    1.110   .     S
C830   H848    1.104   .     S
C830   C837    1.518   .     S
C830   H849    1.110   .     S
C831   H853    1.108   .     S
C831   H854    1.103   .     S
C831   H932    1.111   .     S
C832   H857    1.108   .     S
C832   H856    1.103   .     S
C833   C835    1.406   .     A
C834   I865    2.146   .     S
C835   I866    2.146   .     S
C835   C104    1.403   1_556 S
C836   C1078   1.387   .     S
C837   C1282   1.387   1_545 S
C838   I867    2.145   .     S
C838   C1316   1.387   1_545 S
H855   C912    1.111   .     S
N869   Zn879   2.024   .     S
N870   Zn880   2.024   .     S
O871   Zn879   1.996   .     S
O872   Zn880   1.996   .     S
O873   Zn880   1.975   .     S
O874   Zn879   1.975   .     S
O875   Zn879   1.956   .     S
O876   Zn880   1.956   .     S
O877   Zn880   1.892   .     S
O878   Zn879   1.892   .     S
C881   O951    1.285   .     A
C881   C884    1.409   .     S
C881   O953    1.284   .     A
C882   I948    2.144   .     S
C882   C884    1.402   .     A
C882   C1157   1.387   .     S
C883   C892    1.409   .     S
C883   C918    1.402   .     A
C883   C917    1.407   .     A
C884   C916    1.407   .     A
C885   N950    1.383   .     A
C885   C911    1.499   .     S
C885   C727    1.421   1_655 S
C886   N949    1.383   .     A
C886   C912    1.499   .     S
C887   H942    1.083   .     S
C887   N949    1.358   .     A
C888   N950    1.358   .     A
C888   H943    1.083   .     S
C888   C726    1.421   1_655 S
C889   O957    1.297   .     A
C889   C891    1.456   .     S
C889   O955    1.299   .     A
C890   O958    1.297   .     A
C890   O956    1.299   .     A
C890   C893    1.456   .     S
C891   C898    1.387   .     A
C891   C896    1.397   .     A
C892   O954    1.284   .     A
C892   O952    1.285   .     A
C893   C899    1.387   .     A
C893   C897    1.397   .     A
C894   C896    1.396   .     A
C894   H940    1.080   .     S
C894   C902    1.412   .     A
C895   H941    1.080   .     S
C895   C904    1.413   .     A
C895   C897    1.396   .     A
C896   H939    1.082   .     S
C897   H938    1.082   .     S
C898   H930    1.079   .     S
C898   C900    1.391   .     A
C899   C901    1.391   .     A
C899   H919    1.079   .     S
C900   C905    1.417   .     A
C900   C902    1.418   .     A
C901   C906    1.417   .     A
C901   C904    1.418   .     A
C902   C194    1.403   1_556 S
C903   C906    1.434   .     A
C903   C907    1.516   .     S
C903   C914    1.406   .     A
C905   C913    1.434   .     A
C905   C186    1.413   1_556 S
C907   H921    1.111   .     S
C907   H920    1.110   .     S
C907   H944    1.109   .     S
C908   H924    1.111   .     S
C908   C913    1.516   .     S
C908   H923    1.109   .     S
C908   H922    1.110   .     S
C909   C916    1.518   .     S
C909   H927    1.110   .     S
C909   H925    1.104   .     S
C909   H926    1.110   .     S
C910   H931    1.110   .     S
C910   H928    1.104   .     S
C910   C917    1.518   .     S
C910   H929    1.110   .     S
C911   H933    1.108   .     S
C911   H934    1.103   .     S
C911   H772    1.111   1_655 S
C912   H937    1.108   .     S
C912   H936    1.103   .     S
C913   C915    1.406   .     A
C914   I945    2.146   .     S
C915   I946    2.146   .     S
C915   C184    1.403   1_556 S
C916   C1158   1.387   .     S
C917   C1362   1.387   1_545 S
C918   I947    2.145   .     S
C918   C1396   1.387   1_545 S
H935   C752    1.111   1_655 S
N949   Zn959   2.024   .     S
N950   Zn960   2.024   .     S
O951   Zn959   1.996   .     S
O952   Zn960   1.996   .     S
O953   Zn960   1.975   .     S
O954   Zn959   1.975   .     S
O955   Zn959   1.956   .     S
O956   Zn960   1.956   .     S
O957   Zn960   1.892   .     S
O958   Zn959   1.892   .     S
C961   O1031   1.285   .     A
C961   C964    1.409   .     S
C961   O1033   1.284   .     A
C962   I1028   2.144   .     S
C962   C964    1.402   .     A
C962   C1237   1.387   .     S
C963   C972    1.409   .     S
C963   C998    1.402   .     A
C963   C997    1.407   .     A
C964   C996    1.407   .     A
C965   N1030   1.383   .     A
C965   C991    1.499   .     S
C965   C1047   1.421   .     S
C966   N1029   1.383   .     A
C966   C992    1.499   .     S
C966   C1128   1.421   1_455 S
C967   H1022   1.083   .     S
C967   N1029   1.358   .     A
C967   C1125   1.421   1_455 S
C968   N1030   1.358   .     A
C968   H1023   1.083   .     S
C968   C1046   1.421   .     S
C969   O1037   1.297   .     A
C969   C971    1.456   .     S
C969   O1035   1.299   .     A
C970   O1038   1.297   .     A
C970   O1036   1.299   .     A
C970   C973    1.456   .     S
C971   C978    1.387   .     A
C971   C976    1.397   .     A
C972   O1034   1.284   .     A
C972   O1032   1.285   .     A
C973   C979    1.387   .     A
C973   C977    1.397   .     A
C974   C976    1.396   .     A
C974   H1020   1.080   .     S
C974   C982    1.412   .     A
C975   H1021   1.080   .     S
C975   C984    1.413   .     A
C975   C977    1.396   .     A
C976   H1019   1.082   .     S
C977   H1018   1.082   .     S
C978   H1010   1.079   .     S
C978   C980    1.391   .     A
C979   C981    1.391   .     A
C979   H999    1.079   .     S
C980   C985    1.417   .     A
C980   C982    1.418   .     A
C981   C986    1.417   .     A
C981   C984    1.418   .     A
C982   C274    1.403   1_556 S
C983   C986    1.434   .     A
C983   C987    1.516   .     S
C983   C994    1.406   .     A
C985   C993    1.434   .     A
C985   C266    1.413   1_556 S
C987   H1001   1.111   .     S
C987   H1000   1.110   .     S
C987   H1024   1.109   .     S
C988   H1004   1.111   .     S
C988   C993    1.516   .     S
C988   H1003   1.109   .     S
C988   H1002   1.110   .     S
C989   C996    1.518   .     S
C989   H1007   1.110   .     S
C989   H1005   1.104   .     S
C989   H1006   1.110   .     S
C990   H1011   1.110   .     S
C990   H1008   1.104   .     S
C990   C997    1.518   .     S
C990   H1009   1.110   .     S
C991   H1013   1.108   .     S
C991   H1014   1.103   .     S
C991   H1092   1.111   .     S
C992   H1017   1.108   .     S
C992   H1016   1.103   .     S
C992   H1175   1.111   1_455 S
C993   C995    1.406   .     A
C994   I1025   2.146   .     S
C995   I1026   2.146   .     S
C995   C264    1.403   1_556 S
C996   C1238   1.387   .     S
C998   I1027   2.145   .     S
H1012  C1151   1.111   1_455 S
H1015  C1072   1.111   .     S
N1029  Zn1039  2.024   .     S
N1030  Zn1040  2.024   .     S
O1031  Zn1039  1.996   .     S
O1032  Zn1040  1.996   .     S
O1033  Zn1040  1.975   .     S
O1034  Zn1039  1.975   .     S
O1035  Zn1039  1.956   .     S
O1036  Zn1040  1.956   .     S
O1037  Zn1040  1.892   .     S
O1038  Zn1039  1.892   .     S
C1041  O1111   1.285   .     A
C1041  C1044   1.409   .     S
C1041  O1113   1.284   .     A
C1042  I1108   2.144   .     S
C1042  C1044   1.402   .     A
C1042  C1317   1.387   .     S
C1043  C1052   1.409   .     S
C1043  C1078   1.402   .     A
C1043  C1077   1.407   .     A
C1044  C1076   1.407   .     A
C1045  N1110   1.383   .     A
C1045  C1071   1.499   .     S
C1045  C1127   1.421   .     S
C1046  N1109   1.383   .     A
C1046  C1072   1.499   .     S
C1047  H1102   1.083   .     S
C1047  N1109   1.358   .     A
C1048  N1110   1.358   .     A
C1048  H1103   1.083   .     S
C1048  C1126   1.421   .     S
C1049  O1117   1.297   .     A
C1049  C1051   1.456   .     S
C1049  O1115   1.299   .     A
C1050  O1118   1.297   .     A
C1050  O1116   1.299   .     A
C1050  C1053   1.456   .     S
C1051  C1058   1.387   .     A
C1051  C1056   1.397   .     A
C1052  O1114   1.284   .     A
C1052  O1112   1.285   .     A
C1053  C1059   1.387   .     A
C1053  C1057   1.397   .     A
C1054  C1056   1.396   .     A
C1054  H1100   1.080   .     S
C1054  C1062   1.412   .     A
C1055  H1101   1.080   .     S
C1055  C1064   1.413   .     A
C1055  C1057   1.396   .     A
C1056  H1099   1.082   .     S
C1057  H1098   1.082   .     S
C1058  H1090   1.079   .     S
C1058  C1060   1.391   .     A
C1059  C1061   1.391   .     A
C1059  H1079   1.079   .     S
C1060  C1065   1.417   .     A
C1060  C1062   1.418   .     A
C1061  C1066   1.417   .     A
C1061  C1064   1.418   .     A
C1062  C354    1.403   1_556 S
C1063  C1066   1.434   .     A
C1063  C1067   1.516   .     S
C1063  C1074   1.406   .     A
C1065  C1073   1.434   .     A
C1065  C346    1.413   1_556 S
C1067  H1081   1.111   .     S
C1067  H1080   1.110   .     S
C1067  H1104   1.109   .     S
C1068  H1084   1.111   .     S
C1068  C1073   1.516   .     S
C1068  H1083   1.109   .     S
C1068  H1082   1.110   .     S
C1069  C1076   1.518   .     S
C1069  H1087   1.110   .     S
C1069  H1085   1.104   .     S
C1069  H1086   1.110   .     S
C1070  H1091   1.110   .     S
C1070  H1088   1.104   .     S
C1070  C1077   1.518   .     S
C1070  H1089   1.110   .     S
C1071  H1093   1.108   .     S
C1071  H1094   1.103   .     S
C1071  H1172   1.111   .     S
C1072  H1097   1.108   .     S
C1072  H1096   1.103   .     S
C1073  C1075   1.406   .     A
C1074  I1105   2.146   .     S
C1075  I1106   2.146   .     S
C1075  C344    1.403   1_556 S
C1076  C1318   1.387   .     S
C1078  I1107   2.145   .     S
H1095  C1152   1.111   .     S
N1109  Zn1119  2.024   .     S
N1110  Zn1120  2.024   .     S
O1111  Zn1119  1.996   .     S
O1112  Zn1120  1.996   .     S
O1113  Zn1120  1.975   .     S
O1114  Zn1119  1.975   .     S
O1115  Zn1119  1.956   .     S
O1116  Zn1120  1.956   .     S
O1117  Zn1120  1.892   .     S
O1118  Zn1119  1.892   .     S
C1121  O1191   1.285   .     A
C1121  C1124   1.409   .     S
C1121  O1193   1.284   .     A
C1122  I1188   2.144   .     S
C1122  C1124   1.402   .     A
C1122  C1397   1.387   .     S
C1123  C1132   1.409   .     S
C1123  C1158   1.402   .     A
C1123  C1157   1.407   .     A
C1124  C1156   1.407   .     A
C1125  N1190   1.383   .     A
C1125  C1151   1.499   .     S
C1125  C967    1.421   1_655 S
C1126  N1189   1.383   .     A
C1126  C1152   1.499   .     S
C1127  H1182   1.083   .     S
C1127  N1189   1.358   .     A
C1128  N1190   1.358   .     A
C1128  H1183   1.083   .     S
C1128  C966    1.421   1_655 S
C1129  O1197   1.297   .     A
C1129  C1131   1.456   .     S
C1129  O1195   1.299   .     A
C1130  O1198   1.297   .     A
C1130  O1196   1.299   .     A
C1130  C1133   1.456   .     S
C1131  C1138   1.387   .     A
C1131  C1136   1.397   .     A
C1132  O1194   1.284   .     A
C1132  O1192   1.285   .     A
C1133  C1139   1.387   .     A
C1133  C1137   1.397   .     A
C1134  C1136   1.396   .     A
C1134  H1180   1.080   .     S
C1134  C1142   1.412   .     A
C1135  H1181   1.080   .     S
C1135  C1144   1.413   .     A
C1135  C1137   1.396   .     A
C1136  H1179   1.082   .     S
C1137  H1178   1.082   .     S
C1138  H1170   1.079   .     S
C1138  C1140   1.391   .     A
C1139  C1141   1.391   .     A
C1139  H1159   1.079   .     S
C1140  C1145   1.417   .     A
C1140  C1142   1.418   .     A
C1141  C1146   1.417   .     A
C1141  C1144   1.418   .     A
C1142  C434    1.403   1_556 S
C1143  C1146   1.434   .     A
C1143  C1147   1.516   .     S
C1143  C1154   1.406   .     A
C1145  C1153   1.434   .     A
C1145  C426    1.413   1_556 S
C1147  H1161   1.111   .     S
C1147  H1160   1.110   .     S
C1147  H1184   1.109   .     S
C1148  H1164   1.111   .     S
C1148  C1153   1.516   .     S
C1148  H1163   1.109   .     S
C1148  H1162   1.110   .     S
C1149  C1156   1.518   .     S
C1149  H1167   1.110   .     S
C1149  H1165   1.104   .     S
C1149  H1166   1.110   .     S
C1150  H1171   1.110   .     S
C1150  H1168   1.104   .     S
C1150  C1157   1.518   .     S
C1150  H1169   1.110   .     S
C1151  H1173   1.108   .     S
C1151  H1174   1.103   .     S
C1151  H1012   1.111   1_655 S
C1152  H1177   1.108   .     S
C1152  H1176   1.103   .     S
C1153  C1155   1.406   .     A
C1154  I1185   2.146   .     S
C1155  I1186   2.146   .     S
C1155  C424    1.403   1_556 S
C1156  C1398   1.387   .     S
C1158  I1187   2.145   .     S
H1175  C992    1.111   1_655 S
N1189  Zn1199  2.024   .     S
N1190  Zn1200  2.024   .     S
O1191  Zn1199  1.996   .     S
O1192  Zn1200  1.996   .     S
O1193  Zn1200  1.975   .     S
O1194  Zn1199  1.975   .     S
O1195  Zn1199  1.956   .     S
O1196  Zn1200  1.956   .     S
O1197  Zn1200  1.892   .     S
O1198  Zn1199  1.892   .     S
C1201  O1271   1.285   .     A
C1201  C1204   1.409   .     S
C1201  O1273   1.284   .     A
C1202  I1268   2.144   .     S
C1202  C1204   1.402   .     A
C1202  C757    1.387   1_565 S
C1203  C1212   1.409   .     S
C1203  C1238   1.402   .     A
C1203  C1237   1.407   .     A
C1204  C1236   1.407   .     A
C1205  N1270   1.383   .     A
C1205  C1231   1.499   .     S
C1205  C1287   1.421   .     S
C1206  N1269   1.383   .     A
C1206  C1232   1.499   .     S
C1206  C1368   1.421   1_455 S
C1207  H1262   1.083   .     S
C1207  N1269   1.358   .     A
C1207  C1365   1.421   1_455 S
C1208  N1270   1.358   .     A
C1208  H1263   1.083   .     S
C1208  C1286   1.421   .     S
C1209  O1277   1.297   .     A
C1209  C1211   1.456   .     S
C1209  O1275   1.299   .     A
C1210  O1278   1.297   .     A
C1210  O1276   1.299   .     A
C1210  C1213   1.456   .     S
C1211  C1218   1.387   .     A
C1211  C1216   1.397   .     A
C1212  O1274   1.284   .     A
C1212  O1272   1.285   .     A
C1213  C1219   1.387   .     A
C1213  C1217   1.397   .     A
C1214  C1216   1.396   .     A
C1214  H1260   1.080   .     S
C1214  C1222   1.412   .     A
C1215  H1261   1.080   .     S
C1215  C1224   1.413   .     A
C1215  C1217   1.396   .     A
C1216  H1259   1.082   .     S
C1217  H1258   1.082   .     S
C1218  H1250   1.079   .     S
C1218  C1220   1.391   .     A
C1219  C1221   1.391   .     A
C1219  H1239   1.079   .     S
C1220  C1225   1.417   .     A
C1220  C1222   1.418   .     A
C1221  C1226   1.417   .     A
C1221  C1224   1.418   .     A
C1222  C514    1.403   1_556 S
C1223  C1226   1.434   .     A
C1223  C1227   1.516   .     S
C1223  C1234   1.406   .     A
C1225  C1233   1.434   .     A
C1225  C506    1.413   1_556 S
C1227  H1241   1.111   .     S
C1227  H1240   1.110   .     S
C1227  H1264   1.109   .     S
C1228  H1244   1.111   .     S
C1228  C1233   1.516   .     S
C1228  H1243   1.109   .     S
C1228  H1242   1.110   .     S
C1229  C1236   1.518   .     S
C1229  H1247   1.110   .     S
C1229  H1245   1.104   .     S
C1229  H1246   1.110   .     S
C1230  H1251   1.110   .     S
C1230  H1248   1.104   .     S
C1230  C1237   1.518   .     S
C1230  H1249   1.110   .     S
C1231  H1253   1.108   .     S
C1231  H1254   1.103   .     S
C1231  H1332   1.111   .     S
C1232  H1257   1.108   .     S
C1232  H1256   1.103   .     S
C1232  H1415   1.111   1_455 S
C1233  C1235   1.406   .     A
C1234  I1265   2.146   .     S
C1235  I1266   2.146   .     S
C1235  C504    1.403   1_556 S
C1236  C758    1.387   1_565 S
C1238  I1267   2.145   .     S
H1252  C1391   1.111   1_455 S
H1255  C1312   1.111   .     S
N1269  Zn1279  2.024   .     S
N1270  Zn1280  2.024   .     S
O1271  Zn1279  1.996   .     S
O1272  Zn1280  1.996   .     S
O1273  Zn1280  1.975   .     S
O1274  Zn1279  1.975   .     S
O1275  Zn1279  1.956   .     S
O1276  Zn1280  1.956   .     S
O1277  Zn1280  1.892   .     S
O1278  Zn1279  1.892   .     S
C1281  O1351   1.285   .     A
C1281  C1284   1.409   .     S
C1281  O1353   1.284   .     A
C1282  I1348   2.144   .     S
C1282  C1284   1.402   .     A
C1282  C837    1.387   1_565 S
C1283  C1292   1.409   .     S
C1283  C1318   1.402   .     A
C1283  C1317   1.407   .     A
C1284  C1316   1.407   .     A
C1285  N1350   1.383   .     A
C1285  C1311   1.499   .     S
C1285  C1367   1.421   .     S
C1286  N1349   1.383   .     A
C1286  C1312   1.499   .     S
C1287  H1342   1.083   .     S
C1287  N1349   1.358   .     A
C1288  N1350   1.358   .     A
C1288  H1343   1.083   .     S
C1288  C1366   1.421   .     S
C1289  O1357   1.297   .     A
C1289  C1291   1.456   .     S
C1289  O1355   1.299   .     A
C1290  O1358   1.297   .     A
C1290  O1356   1.299   .     A
C1290  C1293   1.456   .     S
C1291  C1298   1.387   .     A
C1291  C1296   1.397   .     A
C1292  O1354   1.284   .     A
C1292  O1352   1.285   .     A
C1293  C1299   1.387   .     A
C1293  C1297   1.397   .     A
C1294  C1296   1.396   .     A
C1294  H1340   1.080   .     S
C1294  C1302   1.412   .     A
C1295  H1341   1.080   .     S
C1295  C1304   1.413   .     A
C1295  C1297   1.396   .     A
C1296  H1339   1.082   .     S
C1297  H1338   1.082   .     S
C1298  H1330   1.079   .     S
C1298  C1300   1.391   .     A
C1299  C1301   1.391   .     A
C1299  H1319   1.079   .     S
C1300  C1305   1.417   .     A
C1300  C1302   1.418   .     A
C1301  C1306   1.417   .     A
C1301  C1304   1.418   .     A
C1302  C594    1.403   1_556 S
C1303  C1306   1.434   .     A
C1303  C1307   1.516   .     S
C1303  C1314   1.406   .     A
C1305  C1313   1.434   .     A
C1305  C586    1.413   1_556 S
C1307  H1321   1.111   .     S
C1307  H1320   1.110   .     S
C1307  H1344   1.109   .     S
C1308  H1324   1.111   .     S
C1308  C1313   1.516   .     S
C1308  H1323   1.109   .     S
C1308  H1322   1.110   .     S
C1309  C1316   1.518   .     S
C1309  H1327   1.110   .     S
C1309  H1325   1.104   .     S
C1309  H1326   1.110   .     S
C1310  H1331   1.110   .     S
C1310  H1328   1.104   .     S
C1310  C1317   1.518   .     S
C1310  H1329   1.110   .     S
C1311  H1333   1.108   .     S
C1311  H1334   1.103   .     S
C1311  H1412   1.111   .     S
C1312  H1337   1.108   .     S
C1312  H1336   1.103   .     S
C1313  C1315   1.406   .     A
C1314  I1345   2.146   .     S
C1315  I1346   2.146   .     S
C1315  C584    1.403   1_556 S
C1316  C838    1.387   1_565 S
C1318  I1347   2.145   .     S
H1335  C1392   1.111   .     S
N1349  Zn1359  2.024   .     S
N1350  Zn1360  2.024   .     S
O1351  Zn1359  1.996   .     S
O1352  Zn1360  1.996   .     S
O1353  Zn1360  1.975   .     S
O1354  Zn1359  1.975   .     S
O1355  Zn1359  1.956   .     S
O1356  Zn1360  1.956   .     S
O1357  Zn1360  1.892   .     S
O1358  Zn1359  1.892   .     S
C1361  O1431   1.285   .     A
C1361  C1364   1.409   .     S
C1361  O1433   1.284   .     A
C1362  I1428   2.144   .     S
C1362  C1364   1.402   .     A
C1362  C917    1.387   1_565 S
C1363  C1372   1.409   .     S
C1363  C1398   1.402   .     A
C1363  C1397   1.407   .     A
C1364  C1396   1.407   .     A
C1365  N1430   1.383   .     A
C1365  C1391   1.499   .     S
C1365  C1207   1.421   1_655 S
C1366  N1429   1.383   .     A
C1366  C1392   1.499   .     S
C1367  H1422   1.083   .     S
C1367  N1429   1.358   .     A
C1368  N1430   1.358   .     A
C1368  H1423   1.083   .     S
C1368  C1206   1.421   1_655 S
C1369  O1437   1.297   .     A
C1369  C1371   1.456   .     S
C1369  O1435   1.299   .     A
C1370  O1438   1.297   .     A
C1370  O1436   1.299   .     A
C1370  C1373   1.456   .     S
C1371  C1378   1.387   .     A
C1371  C1376   1.397   .     A
C1372  O1434   1.284   .     A
C1372  O1432   1.285   .     A
C1373  C1379   1.387   .     A
C1373  C1377   1.397   .     A
C1374  C1376   1.396   .     A
C1374  H1420   1.080   .     S
C1374  C1382   1.412   .     A
C1375  H1421   1.080   .     S
C1375  C1384   1.413   .     A
C1375  C1377   1.396   .     A
C1376  H1419   1.082   .     S
C1377  H1418   1.082   .     S
C1378  H1410   1.079   .     S
C1378  C1380   1.391   .     A
C1379  C1381   1.391   .     A
C1379  H1399   1.079   .     S
C1380  C1385   1.417   .     A
C1380  C1382   1.418   .     A
C1381  C1386   1.417   .     A
C1381  C1384   1.418   .     A
C1382  C674    1.403   1_556 S
C1383  C1386   1.434   .     A
C1383  C1387   1.516   .     S
C1383  C1394   1.406   .     A
C1385  C1393   1.434   .     A
C1385  C666    1.413   1_556 S
C1387  H1401   1.111   .     S
C1387  H1400   1.110   .     S
C1387  H1424   1.109   .     S
C1388  H1404   1.111   .     S
C1388  C1393   1.516   .     S
C1388  H1403   1.109   .     S
C1388  H1402   1.110   .     S
C1389  C1396   1.518   .     S
C1389  H1407   1.110   .     S
C1389  H1405   1.104   .     S
C1389  H1406   1.110   .     S
C1390  H1411   1.110   .     S
C1390  H1408   1.104   .     S
C1390  C1397   1.518   .     S
C1390  H1409   1.110   .     S
C1391  H1413   1.108   .     S
C1391  H1414   1.103   .     S
C1391  H1252   1.111   1_655 S
C1392  H1417   1.108   .     S
C1392  H1416   1.103   .     S
C1393  C1395   1.406   .     A
C1394  I1425   2.146   .     S
C1395  I1426   2.146   .     S
C1395  C664    1.403   1_556 S
C1396  C918    1.387   1_565 S
C1398  I1427   2.145   .     S
H1415  C1232   1.111   1_655 S
N1429  Zn1439  2.024   .     S
N1430  Zn1440  2.024   .     S
O1431  Zn1439  1.996   .     S
O1432  Zn1440  1.996   .     S
O1433  Zn1440  1.975   .     S
O1434  Zn1439  1.975   .     S
O1435  Zn1439  1.956   .     S
O1436  Zn1440  1.956   .     S
O1437  Zn1440  1.892   .     S
O1438  Zn1439  1.892   .     S
