data_str_m3_o2_o5_pcu_sym.130
_audit_creation_date              2020-01-03
_audit_creation_method            'Materials Studio'
_symmetry_space_group_name_H-M    'P1'
_symmetry_Int_Tables_number       1
_symmetry_cell_setting            triclinic
loop_
_symmetry_equiv_pos_as_xyz
  x,y,z
_cell_length_a                    29.3194
_cell_length_b                    28.4883
_cell_length_c                    26.6958
_cell_angle_alpha                 89.7582
_cell_angle_beta                  91.1577
_cell_angle_gamma                 90.2384
loop_
_atom_site_label
_atom_site_type_symbol
_atom_site_fract_x
_atom_site_fract_y
_atom_site_fract_z
_atom_site_U_iso_or_equiv
_atom_site_adp_type
_atom_site_occupancy
C1     C     0.16398   0.24991   0.17350   0.00000  Uiso   1.00
C2     C     0.33603   0.25009   0.15985   0.00000  Uiso   1.00
C3     C     0.21853   0.10229   0.13802   0.00000  Uiso   1.00
C4     C     0.28147   0.39771   0.19532   0.00000  Uiso   1.00
C5     C     0.27550   0.10225   0.20172   0.00000  Uiso   1.00
C6     C     0.22449   0.39775   0.13162   0.00000  Uiso   1.00
C7     C     0.21391   0.05308   0.14242   0.00000  Uiso   1.00
C8     C     0.28609   0.44692   0.19091   0.00000  Uiso   1.00
C9     C     0.27128   0.05307   0.20678   0.00000  Uiso   1.00
C10    C     0.22872   0.44693   0.12656   0.00000  Uiso   1.00
C11    C     0.24985   0.25006   0.07290   0.00000  Uiso   1.00
C12    C     0.25015   0.24994   0.26043   0.00000  Uiso   1.00
C13    C     0.24719   0.02679   0.16967   0.00000  Uiso   1.00
C14    C     0.25280   0.47321   0.16367   0.00000  Uiso   1.00
C15    C     0.24995   0.25009   0.02180   0.00000  Uiso   1.00
C16    C     0.25005   0.24991   0.31153   0.00000  Uiso   1.00
C17    C     0.04461   0.29164   0.19506   0.00000  Uiso   1.00
C18    C     0.45540   0.20837   0.13832   0.00000  Uiso   1.00
C19    C     0.45579   0.29196   0.13830   0.00000  Uiso   1.00
C20    C     0.04422   0.20804   0.19509   0.00000  Uiso   1.00
C21    C     0.09237   0.29250   0.19686   0.00000  Uiso   1.00
C22    C     0.40764   0.20750   0.13652   0.00000  Uiso   1.00
C23    C     0.40802   0.29294   0.13648   0.00000  Uiso   1.00
C24    C     0.09200   0.20707   0.19691   0.00000  Uiso   1.00
C25    C     0.11589   0.24979   0.18864   0.00000  Uiso   1.00
C26    C     0.38412   0.25021   0.14472   0.00000  Uiso   1.00
C27    C     0.02253   0.24992   0.18021   0.00000  Uiso   1.00
C28    C     0.47749   0.25008   0.15317   0.00000  Uiso   1.00
N29    N     0.25000   0.12624   0.16667   0.00000  Uiso   1.00
N30    N     0.25000   0.37377   0.16667   0.00000  Uiso   1.00
O31    O     0.18453   0.28974   0.16667   0.00000  Uiso   1.00
O32    O     0.31547   0.21026   0.16666   0.00000  Uiso   1.00
O33    O     0.31547   0.28974   0.16666   0.00000  Uiso   1.00
O34    O     0.18453   0.21026   0.16667   0.00000  Uiso   1.00
O35    O     0.25000   0.28973   0.09511   0.00000  Uiso   1.00
O36    O     0.25000   0.21027   0.23822   0.00000  Uiso   1.00
O37    O     0.25000   0.28973   0.23822   0.00000  Uiso   1.00
O38    O     0.25000   0.21027   0.09511   0.00000  Uiso   1.00
Zn39   Zn    0.25000   0.30307   0.16667   0.00000  Uiso   1.00
Zn40   Zn    0.25000   0.19693   0.16667   0.00000  Uiso   1.00
Cl41   Cl    0.18167   0.13282   0.09664   0.00000  Uiso   1.00
Cl42   Cl    0.31833   0.36718   0.23670   0.00000  Uiso   1.00
Cl43   Cl    0.31262   0.13268   0.24290   0.00000  Uiso   1.00
Cl44   Cl    0.18737   0.36732   0.09044   0.00000  Uiso   1.00
Cl45   Cl    0.01339   0.33701   0.22393   0.00000  Uiso   1.00
Cl46   Cl    0.48663   0.16298   0.10947   0.00000  Uiso   1.00
Cl47   Cl    0.48749   0.33742   0.10931   0.00000  Uiso   1.00
Cl48   Cl    0.01252   0.16261   0.22410   0.00000  Uiso   1.00
C49    C     0.11651   0.33668   0.21066   0.00000  Uiso   1.00
O50    O     0.10532   0.37379   0.19087   0.00000  Uiso   1.00
O51    O     0.15170   0.33583   0.24681   0.00000  Uiso   1.00
H52    H     0.16578   0.36795   0.25270   0.00000  Uiso   1.00
C53    C     0.38351   0.16330   0.12276   0.00000  Uiso   1.00
O54    O     0.39472   0.12622   0.14259   0.00000  Uiso   1.00
O55    O     0.34831   0.16412   0.08662   0.00000  Uiso   1.00
H56    H     0.33422   0.13199   0.08077   0.00000  Uiso   1.00
C57    C     0.38427   0.33723   0.12260   0.00000  Uiso   1.00
O58    O     0.39629   0.37432   0.14172   0.00000  Uiso   1.00
O59    O     0.34859   0.33654   0.08703   0.00000  Uiso   1.00
H60    H     0.33482   0.36872   0.08109   0.00000  Uiso   1.00
C61    C     0.11575   0.16279   0.21086   0.00000  Uiso   1.00
O62    O     0.10370   0.12566   0.19187   0.00000  Uiso   1.00
O63    O     0.15149   0.16355   0.24636   0.00000  Uiso   1.00
H64    H     0.16525   0.13137   0.25237   0.00000  Uiso   1.00
Cl65   Cl    0.15874   0.02942   0.13085   0.00000  Uiso   1.00
Cl66   Cl    0.34126   0.47058   0.20248   0.00000  Uiso   1.00
Cl67   Cl    0.28026   0.02951   0.26771   0.00000  Uiso   1.00
Cl68   Cl    0.21973   0.47048   0.06563   0.00000  Uiso   1.00
C69    C     0.66398   0.24991   0.17350   0.00000  Uiso   1.00
C70    C     0.83603   0.25009   0.15985   0.00000  Uiso   1.00
C71    C     0.71853   0.10229   0.13802   0.00000  Uiso   1.00
C72    C     0.78147   0.39771   0.19532   0.00000  Uiso   1.00
C73    C     0.77550   0.10225   0.20172   0.00000  Uiso   1.00
C74    C     0.72449   0.39775   0.13162   0.00000  Uiso   1.00
C75    C     0.71391   0.05308   0.14242   0.00000  Uiso   1.00
C76    C     0.78609   0.44692   0.19091   0.00000  Uiso   1.00
C77    C     0.77128   0.05307   0.20678   0.00000  Uiso   1.00
C78    C     0.72872   0.44693   0.12656   0.00000  Uiso   1.00
C79    C     0.74985   0.25006   0.07290   0.00000  Uiso   1.00
C80    C     0.75015   0.24994   0.26043   0.00000  Uiso   1.00
C81    C     0.74719   0.02679   0.16967   0.00000  Uiso   1.00
C82    C     0.75280   0.47321   0.16367   0.00000  Uiso   1.00
C83    C     0.74995   0.25009   0.02180   0.00000  Uiso   1.00
C84    C     0.75005   0.24991   0.31153   0.00000  Uiso   1.00
C85    C     0.54461   0.29164   0.19506   0.00000  Uiso   1.00
C86    C     0.95540   0.20837   0.13832   0.00000  Uiso   1.00
C87    C     0.95579   0.29196   0.13830   0.00000  Uiso   1.00
C88    C     0.54422   0.20804   0.19509   0.00000  Uiso   1.00
C89    C     0.59237   0.29250   0.19686   0.00000  Uiso   1.00
C90    C     0.90764   0.20750   0.13652   0.00000  Uiso   1.00
C91    C     0.90802   0.29294   0.13648   0.00000  Uiso   1.00
C92    C     0.59200   0.20707   0.19691   0.00000  Uiso   1.00
C93    C     0.61589   0.24979   0.18864   0.00000  Uiso   1.00
C94    C     0.88412   0.25021   0.14472   0.00000  Uiso   1.00
C95    C     0.52253   0.24992   0.18021   0.00000  Uiso   1.00
C96    C     0.97749   0.25008   0.15317   0.00000  Uiso   1.00
N97    N     0.75000   0.12624   0.16667   0.00000  Uiso   1.00
N98    N     0.75000   0.37377   0.16667   0.00000  Uiso   1.00
O99    O     0.68453   0.28974   0.16667   0.00000  Uiso   1.00
O100   O     0.81547   0.21026   0.16666   0.00000  Uiso   1.00
O101   O     0.81547   0.28974   0.16666   0.00000  Uiso   1.00
O102   O     0.68453   0.21026   0.16667   0.00000  Uiso   1.00
O103   O     0.75000   0.28973   0.09511   0.00000  Uiso   1.00
O104   O     0.75000   0.21027   0.23822   0.00000  Uiso   1.00
O105   O     0.75000   0.28973   0.23822   0.00000  Uiso   1.00
O106   O     0.75000   0.21027   0.09511   0.00000  Uiso   1.00
Zn107  Zn    0.75000   0.30307   0.16667   0.00000  Uiso   1.00
Zn108  Zn    0.75000   0.19693   0.16667   0.00000  Uiso   1.00
Cl109  Cl    0.68167   0.13282   0.09664   0.00000  Uiso   1.00
Cl110  Cl    0.81833   0.36718   0.23670   0.00000  Uiso   1.00
Cl111  Cl    0.81262   0.13268   0.24290   0.00000  Uiso   1.00
Cl112  Cl    0.68737   0.36732   0.09044   0.00000  Uiso   1.00
Cl113  Cl    0.51339   0.33701   0.22393   0.00000  Uiso   1.00
Cl114  Cl    0.98663   0.16298   0.10947   0.00000  Uiso   1.00
Cl115  Cl    0.98749   0.33742   0.10931   0.00000  Uiso   1.00
Cl116  Cl    0.51252   0.16261   0.22410   0.00000  Uiso   1.00
C117   C     0.61651   0.33668   0.21066   0.00000  Uiso   1.00
O118   O     0.60532   0.37379   0.19087   0.00000  Uiso   1.00
O119   O     0.65170   0.33583   0.24681   0.00000  Uiso   1.00
H120   H     0.66578   0.36795   0.25270   0.00000  Uiso   1.00
C121   C     0.88351   0.16330   0.12276   0.00000  Uiso   1.00
O122   O     0.89472   0.12622   0.14259   0.00000  Uiso   1.00
O123   O     0.84831   0.16412   0.08662   0.00000  Uiso   1.00
H124   H     0.83422   0.13199   0.08077   0.00000  Uiso   1.00
C125   C     0.88427   0.33723   0.12260   0.00000  Uiso   1.00
O126   O     0.89629   0.37432   0.14172   0.00000  Uiso   1.00
O127   O     0.84859   0.33654   0.08703   0.00000  Uiso   1.00
H128   H     0.83482   0.36872   0.08109   0.00000  Uiso   1.00
C129   C     0.61575   0.16279   0.21086   0.00000  Uiso   1.00
O130   O     0.60370   0.12566   0.19187   0.00000  Uiso   1.00
O131   O     0.65149   0.16355   0.24636   0.00000  Uiso   1.00
H132   H     0.66525   0.13137   0.25237   0.00000  Uiso   1.00
Cl133  Cl    0.65874   0.02942   0.13085   0.00000  Uiso   1.00
Cl134  Cl    0.84126   0.47058   0.20248   0.00000  Uiso   1.00
Cl135  Cl    0.78026   0.02951   0.26771   0.00000  Uiso   1.00
Cl136  Cl    0.71973   0.47048   0.06563   0.00000  Uiso   1.00
C137   C     0.16398   0.74991   0.17350   0.00000  Uiso   1.00
C138   C     0.33603   0.75009   0.15985   0.00000  Uiso   1.00
C139   C     0.21853   0.60229   0.13802   0.00000  Uiso   1.00
C140   C     0.28147   0.89771   0.19532   0.00000  Uiso   1.00
C141   C     0.27550   0.60225   0.20172   0.00000  Uiso   1.00
C142   C     0.22449   0.89775   0.13162   0.00000  Uiso   1.00
C143   C     0.21391   0.55308   0.14242   0.00000  Uiso   1.00
C144   C     0.28609   0.94692   0.19091   0.00000  Uiso   1.00
C145   C     0.27128   0.55307   0.20678   0.00000  Uiso   1.00
C146   C     0.22872   0.94693   0.12656   0.00000  Uiso   1.00
C147   C     0.24985   0.75006   0.07290   0.00000  Uiso   1.00
C148   C     0.25015   0.74994   0.26043   0.00000  Uiso   1.00
C149   C     0.24719   0.52679   0.16967   0.00000  Uiso   1.00
C150   C     0.25280   0.97321   0.16367   0.00000  Uiso   1.00
C151   C     0.24995   0.75009   0.02180   0.00000  Uiso   1.00
C152   C     0.25005   0.74991   0.31153   0.00000  Uiso   1.00
C153   C     0.04461   0.79164   0.19506   0.00000  Uiso   1.00
C154   C     0.45540   0.70837   0.13832   0.00000  Uiso   1.00
C155   C     0.45579   0.79196   0.13830   0.00000  Uiso   1.00
C156   C     0.04422   0.70804   0.19509   0.00000  Uiso   1.00
C157   C     0.09237   0.79250   0.19686   0.00000  Uiso   1.00
C158   C     0.40764   0.70750   0.13652   0.00000  Uiso   1.00
C159   C     0.40802   0.79294   0.13648   0.00000  Uiso   1.00
C160   C     0.09200   0.70707   0.19691   0.00000  Uiso   1.00
C161   C     0.11589   0.74979   0.18864   0.00000  Uiso   1.00
C162   C     0.38412   0.75021   0.14472   0.00000  Uiso   1.00
C163   C     0.02253   0.74992   0.18021   0.00000  Uiso   1.00
C164   C     0.47749   0.75008   0.15317   0.00000  Uiso   1.00
N165   N     0.25000   0.62624   0.16667   0.00000  Uiso   1.00
N166   N     0.25000   0.87377   0.16667   0.00000  Uiso   1.00
O167   O     0.18453   0.78974   0.16667   0.00000  Uiso   1.00
O168   O     0.31547   0.71026   0.16666   0.00000  Uiso   1.00
O169   O     0.31547   0.78974   0.16666   0.00000  Uiso   1.00
O170   O     0.18453   0.71026   0.16667   0.00000  Uiso   1.00
O171   O     0.25000   0.78973   0.09511   0.00000  Uiso   1.00
O172   O     0.25000   0.71027   0.23822   0.00000  Uiso   1.00
O173   O     0.25000   0.78973   0.23822   0.00000  Uiso   1.00
O174   O     0.25000   0.71027   0.09511   0.00000  Uiso   1.00
Zn175  Zn    0.25000   0.80307   0.16667   0.00000  Uiso   1.00
Zn176  Zn    0.25000   0.69693   0.16667   0.00000  Uiso   1.00
Cl177  Cl    0.18167   0.63282   0.09664   0.00000  Uiso   1.00
Cl178  Cl    0.31833   0.86718   0.23670   0.00000  Uiso   1.00
Cl179  Cl    0.31262   0.63268   0.24290   0.00000  Uiso   1.00
Cl180  Cl    0.18737   0.86732   0.09044   0.00000  Uiso   1.00
Cl181  Cl    0.01339   0.83701   0.22393   0.00000  Uiso   1.00
Cl182  Cl    0.48663   0.66298   0.10947   0.00000  Uiso   1.00
Cl183  Cl    0.48749   0.83742   0.10931   0.00000  Uiso   1.00
Cl184  Cl    0.01252   0.66261   0.22410   0.00000  Uiso   1.00
C185   C     0.11651   0.83668   0.21066   0.00000  Uiso   1.00
O186   O     0.10532   0.87379   0.19087   0.00000  Uiso   1.00
O187   O     0.15170   0.83583   0.24681   0.00000  Uiso   1.00
H188   H     0.16578   0.86795   0.25270   0.00000  Uiso   1.00
C189   C     0.38351   0.66330   0.12276   0.00000  Uiso   1.00
O190   O     0.39472   0.62622   0.14259   0.00000  Uiso   1.00
O191   O     0.34831   0.66412   0.08662   0.00000  Uiso   1.00
H192   H     0.33422   0.63199   0.08077   0.00000  Uiso   1.00
C193   C     0.38427   0.83723   0.12260   0.00000  Uiso   1.00
O194   O     0.39629   0.87432   0.14172   0.00000  Uiso   1.00
O195   O     0.34859   0.83654   0.08703   0.00000  Uiso   1.00
H196   H     0.33482   0.86872   0.08109   0.00000  Uiso   1.00
C197   C     0.11575   0.66279   0.21086   0.00000  Uiso   1.00
O198   O     0.10370   0.62566   0.19187   0.00000  Uiso   1.00
O199   O     0.15149   0.66355   0.24636   0.00000  Uiso   1.00
H200   H     0.16525   0.63137   0.25237   0.00000  Uiso   1.00
Cl201  Cl    0.15874   0.52942   0.13085   0.00000  Uiso   1.00
Cl202  Cl    0.34126   0.97058   0.20248   0.00000  Uiso   1.00
Cl203  Cl    0.28026   0.52951   0.26771   0.00000  Uiso   1.00
Cl204  Cl    0.21973   0.97048   0.06563   0.00000  Uiso   1.00
C205   C     0.66398   0.74991   0.17350   0.00000  Uiso   1.00
C206   C     0.83603   0.75009   0.15985   0.00000  Uiso   1.00
C207   C     0.71853   0.60229   0.13802   0.00000  Uiso   1.00
C208   C     0.78147   0.89771   0.19532   0.00000  Uiso   1.00
C209   C     0.77550   0.60225   0.20172   0.00000  Uiso   1.00
C210   C     0.72449   0.89775   0.13162   0.00000  Uiso   1.00
C211   C     0.71391   0.55308   0.14242   0.00000  Uiso   1.00
C212   C     0.78609   0.94692   0.19091   0.00000  Uiso   1.00
C213   C     0.77128   0.55307   0.20678   0.00000  Uiso   1.00
C214   C     0.72872   0.94693   0.12656   0.00000  Uiso   1.00
C215   C     0.74985   0.75006   0.07290   0.00000  Uiso   1.00
C216   C     0.75015   0.74994   0.26043   0.00000  Uiso   1.00
C217   C     0.74719   0.52679   0.16967   0.00000  Uiso   1.00
C218   C     0.75280   0.97321   0.16367   0.00000  Uiso   1.00
C219   C     0.74995   0.75009   0.02180   0.00000  Uiso   1.00
C220   C     0.75005   0.74991   0.31153   0.00000  Uiso   1.00
C221   C     0.54461   0.79164   0.19506   0.00000  Uiso   1.00
C222   C     0.95540   0.70837   0.13832   0.00000  Uiso   1.00
C223   C     0.95579   0.79196   0.13830   0.00000  Uiso   1.00
C224   C     0.54422   0.70804   0.19509   0.00000  Uiso   1.00
C225   C     0.59237   0.79250   0.19686   0.00000  Uiso   1.00
C226   C     0.90764   0.70750   0.13652   0.00000  Uiso   1.00
C227   C     0.90802   0.79294   0.13648   0.00000  Uiso   1.00
C228   C     0.59200   0.70707   0.19691   0.00000  Uiso   1.00
C229   C     0.61589   0.74979   0.18864   0.00000  Uiso   1.00
C230   C     0.88412   0.75021   0.14472   0.00000  Uiso   1.00
C231   C     0.52253   0.74992   0.18021   0.00000  Uiso   1.00
C232   C     0.97749   0.75008   0.15317   0.00000  Uiso   1.00
N233   N     0.75000   0.62624   0.16667   0.00000  Uiso   1.00
N234   N     0.75000   0.87377   0.16667   0.00000  Uiso   1.00
O235   O     0.68453   0.78974   0.16667   0.00000  Uiso   1.00
O236   O     0.81547   0.71026   0.16666   0.00000  Uiso   1.00
O237   O     0.81547   0.78974   0.16666   0.00000  Uiso   1.00
O238   O     0.68453   0.71026   0.16667   0.00000  Uiso   1.00
O239   O     0.75000   0.78973   0.09511   0.00000  Uiso   1.00
O240   O     0.75000   0.71027   0.23822   0.00000  Uiso   1.00
O241   O     0.75000   0.78973   0.23822   0.00000  Uiso   1.00
O242   O     0.75000   0.71027   0.09511   0.00000  Uiso   1.00
Zn243  Zn    0.75000   0.80307   0.16667   0.00000  Uiso   1.00
Zn244  Zn    0.75000   0.69693   0.16667   0.00000  Uiso   1.00
Cl245  Cl    0.68167   0.63282   0.09664   0.00000  Uiso   1.00
Cl246  Cl    0.81833   0.86718   0.23670   0.00000  Uiso   1.00
Cl247  Cl    0.81262   0.63268   0.24290   0.00000  Uiso   1.00
Cl248  Cl    0.68737   0.86732   0.09044   0.00000  Uiso   1.00
Cl249  Cl    0.51339   0.83701   0.22393   0.00000  Uiso   1.00
Cl250  Cl    0.98663   0.66298   0.10947   0.00000  Uiso   1.00
Cl251  Cl    0.98749   0.83742   0.10931   0.00000  Uiso   1.00
Cl252  Cl    0.51252   0.66261   0.22410   0.00000  Uiso   1.00
C253   C     0.61651   0.83668   0.21066   0.00000  Uiso   1.00
O254   O     0.60532   0.87379   0.19087   0.00000  Uiso   1.00
O255   O     0.65170   0.83583   0.24681   0.00000  Uiso   1.00
H256   H     0.66578   0.86795   0.25270   0.00000  Uiso   1.00
C257   C     0.88351   0.66330   0.12276   0.00000  Uiso   1.00
O258   O     0.89472   0.62622   0.14259   0.00000  Uiso   1.00
O259   O     0.84831   0.66412   0.08662   0.00000  Uiso   1.00
H260   H     0.83422   0.63199   0.08077   0.00000  Uiso   1.00
C261   C     0.88427   0.83723   0.12260   0.00000  Uiso   1.00
O262   O     0.89629   0.87432   0.14172   0.00000  Uiso   1.00
O263   O     0.84859   0.83654   0.08703   0.00000  Uiso   1.00
H264   H     0.83482   0.86872   0.08109   0.00000  Uiso   1.00
C265   C     0.61575   0.66279   0.21086   0.00000  Uiso   1.00
O266   O     0.60370   0.62566   0.19187   0.00000  Uiso   1.00
O267   O     0.65149   0.66355   0.24636   0.00000  Uiso   1.00
H268   H     0.66525   0.63137   0.25237   0.00000  Uiso   1.00
Cl269  Cl    0.65874   0.52942   0.13085   0.00000  Uiso   1.00
Cl270  Cl    0.84126   0.97058   0.20248   0.00000  Uiso   1.00
Cl271  Cl    0.78026   0.52951   0.26771   0.00000  Uiso   1.00
Cl272  Cl    0.71973   0.97048   0.06563   0.00000  Uiso   1.00
C273   C     0.16398   0.24991   0.50683   0.00000  Uiso   1.00
C274   C     0.33603   0.25009   0.49318   0.00000  Uiso   1.00
C275   C     0.21853   0.10229   0.47135   0.00000  Uiso   1.00
C276   C     0.28147   0.39771   0.52865   0.00000  Uiso   1.00
C277   C     0.27550   0.10225   0.53505   0.00000  Uiso   1.00
C278   C     0.22449   0.39775   0.46495   0.00000  Uiso   1.00
C279   C     0.21391   0.05308   0.47576   0.00000  Uiso   1.00
C280   C     0.28609   0.44692   0.52424   0.00000  Uiso   1.00
C281   C     0.27128   0.05307   0.54011   0.00000  Uiso   1.00
C282   C     0.22872   0.44693   0.45989   0.00000  Uiso   1.00
C283   C     0.24985   0.25006   0.40623   0.00000  Uiso   1.00
C284   C     0.25015   0.24994   0.59377   0.00000  Uiso   1.00
C285   C     0.24719   0.02679   0.50300   0.00000  Uiso   1.00
C286   C     0.25280   0.47321   0.49700   0.00000  Uiso   1.00
C287   C     0.24995   0.25009   0.35514   0.00000  Uiso   1.00
C288   C     0.25005   0.24991   0.64486   0.00000  Uiso   1.00
C289   C     0.04461   0.29164   0.52839   0.00000  Uiso   1.00
C290   C     0.45540   0.20837   0.47165   0.00000  Uiso   1.00
C291   C     0.45579   0.29196   0.47163   0.00000  Uiso   1.00
C292   C     0.04422   0.20804   0.52842   0.00000  Uiso   1.00
C293   C     0.09237   0.29250   0.53019   0.00000  Uiso   1.00
C294   C     0.40764   0.20750   0.46985   0.00000  Uiso   1.00
C295   C     0.40802   0.29294   0.46982   0.00000  Uiso   1.00
C296   C     0.09200   0.20707   0.53024   0.00000  Uiso   1.00
C297   C     0.11589   0.24979   0.52198   0.00000  Uiso   1.00
C298   C     0.38412   0.25021   0.47806   0.00000  Uiso   1.00
C299   C     0.02253   0.24992   0.51354   0.00000  Uiso   1.00
C300   C     0.47749   0.25008   0.48650   0.00000  Uiso   1.00
N301   N     0.25000   0.12624   0.50000   0.00000  Uiso   1.00
N302   N     0.25000   0.37377   0.50000   0.00000  Uiso   1.00
O303   O     0.18453   0.28974   0.50000   0.00000  Uiso   1.00
O304   O     0.31547   0.21026   0.50000   0.00000  Uiso   1.00
O305   O     0.31547   0.28974   0.50000   0.00000  Uiso   1.00
O306   O     0.18453   0.21026   0.50000   0.00000  Uiso   1.00
O307   O     0.25000   0.28973   0.42845   0.00000  Uiso   1.00
O308   O     0.25000   0.21027   0.57155   0.00000  Uiso   1.00
O309   O     0.25000   0.28973   0.57155   0.00000  Uiso   1.00
O310   O     0.25000   0.21027   0.42845   0.00000  Uiso   1.00
Zn311  Zn    0.25000   0.30307   0.50000   0.00000  Uiso   1.00
Zn312  Zn    0.25000   0.19693   0.50000   0.00000  Uiso   1.00
Cl313  Cl    0.18167   0.13282   0.42997   0.00000  Uiso   1.00
Cl314  Cl    0.31833   0.36718   0.57004   0.00000  Uiso   1.00
Cl315  Cl    0.31262   0.13268   0.57623   0.00000  Uiso   1.00
Cl316  Cl    0.18737   0.36732   0.42378   0.00000  Uiso   1.00
Cl317  Cl    0.01339   0.33701   0.55726   0.00000  Uiso   1.00
Cl318  Cl    0.48663   0.16298   0.44281   0.00000  Uiso   1.00
Cl319  Cl    0.48749   0.33742   0.44265   0.00000  Uiso   1.00
Cl320  Cl    0.01252   0.16261   0.55743   0.00000  Uiso   1.00
C321   C     0.11651   0.33668   0.54399   0.00000  Uiso   1.00
O322   O     0.10532   0.37379   0.52421   0.00000  Uiso   1.00
O323   O     0.15170   0.33583   0.58014   0.00000  Uiso   1.00
H324   H     0.16578   0.36795   0.58604   0.00000  Uiso   1.00
C325   C     0.38351   0.16330   0.45609   0.00000  Uiso   1.00
O326   O     0.39472   0.12622   0.47592   0.00000  Uiso   1.00
O327   O     0.34831   0.16412   0.41996   0.00000  Uiso   1.00
H328   H     0.33422   0.13199   0.41411   0.00000  Uiso   1.00
C329   C     0.38427   0.33723   0.45593   0.00000  Uiso   1.00
O330   O     0.39629   0.37432   0.47505   0.00000  Uiso   1.00
O331   O     0.34859   0.33654   0.42036   0.00000  Uiso   1.00
H332   H     0.33482   0.36872   0.41442   0.00000  Uiso   1.00
C333   C     0.11575   0.16279   0.54420   0.00000  Uiso   1.00
O334   O     0.10370   0.12566   0.52520   0.00000  Uiso   1.00
O335   O     0.15149   0.16355   0.57970   0.00000  Uiso   1.00
H336   H     0.16525   0.13137   0.58570   0.00000  Uiso   1.00
Cl337  Cl    0.15874   0.02942   0.46419   0.00000  Uiso   1.00
Cl338  Cl    0.34126   0.47058   0.53581   0.00000  Uiso   1.00
Cl339  Cl    0.28026   0.02951   0.60104   0.00000  Uiso   1.00
Cl340  Cl    0.21973   0.47048   0.39896   0.00000  Uiso   1.00
C341   C     0.66398   0.24991   0.50683   0.00000  Uiso   1.00
C342   C     0.83603   0.25009   0.49318   0.00000  Uiso   1.00
C343   C     0.71853   0.10229   0.47135   0.00000  Uiso   1.00
C344   C     0.78147   0.39771   0.52865   0.00000  Uiso   1.00
C345   C     0.77550   0.10225   0.53505   0.00000  Uiso   1.00
C346   C     0.72449   0.39775   0.46495   0.00000  Uiso   1.00
C347   C     0.71391   0.05308   0.47576   0.00000  Uiso   1.00
C348   C     0.78609   0.44692   0.52424   0.00000  Uiso   1.00
C349   C     0.77128   0.05307   0.54011   0.00000  Uiso   1.00
C350   C     0.72872   0.44693   0.45989   0.00000  Uiso   1.00
C351   C     0.74985   0.25006   0.40623   0.00000  Uiso   1.00
C352   C     0.75015   0.24994   0.59377   0.00000  Uiso   1.00
C353   C     0.74719   0.02679   0.50300   0.00000  Uiso   1.00
C354   C     0.75280   0.47321   0.49700   0.00000  Uiso   1.00
C355   C     0.74995   0.25009   0.35514   0.00000  Uiso   1.00
C356   C     0.75005   0.24991   0.64486   0.00000  Uiso   1.00
C357   C     0.54461   0.29164   0.52839   0.00000  Uiso   1.00
C358   C     0.95540   0.20837   0.47165   0.00000  Uiso   1.00
C359   C     0.95579   0.29196   0.47163   0.00000  Uiso   1.00
C360   C     0.54422   0.20804   0.52842   0.00000  Uiso   1.00
C361   C     0.59237   0.29250   0.53019   0.00000  Uiso   1.00
C362   C     0.90764   0.20750   0.46985   0.00000  Uiso   1.00
C363   C     0.90802   0.29294   0.46982   0.00000  Uiso   1.00
C364   C     0.59200   0.20707   0.53024   0.00000  Uiso   1.00
C365   C     0.61589   0.24979   0.52198   0.00000  Uiso   1.00
C366   C     0.88412   0.25021   0.47806   0.00000  Uiso   1.00
C367   C     0.52253   0.24992   0.51354   0.00000  Uiso   1.00
C368   C     0.97749   0.25008   0.48650   0.00000  Uiso   1.00
N369   N     0.75000   0.12624   0.50000   0.00000  Uiso   1.00
N370   N     0.75000   0.37377   0.50000   0.00000  Uiso   1.00
O371   O     0.68453   0.28974   0.50000   0.00000  Uiso   1.00
O372   O     0.81547   0.21026   0.50000   0.00000  Uiso   1.00
O373   O     0.81547   0.28974   0.50000   0.00000  Uiso   1.00
O374   O     0.68453   0.21026   0.50000   0.00000  Uiso   1.00
O375   O     0.75000   0.28973   0.42845   0.00000  Uiso   1.00
O376   O     0.75000   0.21027   0.57155   0.00000  Uiso   1.00
O377   O     0.75000   0.28973   0.57155   0.00000  Uiso   1.00
O378   O     0.75000   0.21027   0.42845   0.00000  Uiso   1.00
Zn379  Zn    0.75000   0.30307   0.50000   0.00000  Uiso   1.00
Zn380  Zn    0.75000   0.19693   0.50000   0.00000  Uiso   1.00
Cl381  Cl    0.68167   0.13282   0.42997   0.00000  Uiso   1.00
Cl382  Cl    0.81833   0.36718   0.57004   0.00000  Uiso   1.00
Cl383  Cl    0.81262   0.13268   0.57623   0.00000  Uiso   1.00
Cl384  Cl    0.68737   0.36732   0.42378   0.00000  Uiso   1.00
Cl385  Cl    0.51339   0.33701   0.55726   0.00000  Uiso   1.00
Cl386  Cl    0.98663   0.16298   0.44281   0.00000  Uiso   1.00
Cl387  Cl    0.98749   0.33742   0.44265   0.00000  Uiso   1.00
Cl388  Cl    0.51252   0.16261   0.55743   0.00000  Uiso   1.00
C389   C     0.61651   0.33668   0.54399   0.00000  Uiso   1.00
O390   O     0.60532   0.37379   0.52421   0.00000  Uiso   1.00
O391   O     0.65170   0.33583   0.58014   0.00000  Uiso   1.00
H392   H     0.66578   0.36795   0.58604   0.00000  Uiso   1.00
C393   C     0.88351   0.16330   0.45609   0.00000  Uiso   1.00
O394   O     0.89472   0.12622   0.47592   0.00000  Uiso   1.00
O395   O     0.84831   0.16412   0.41996   0.00000  Uiso   1.00
H396   H     0.83422   0.13199   0.41411   0.00000  Uiso   1.00
C397   C     0.88427   0.33723   0.45593   0.00000  Uiso   1.00
O398   O     0.89629   0.37432   0.47505   0.00000  Uiso   1.00
O399   O     0.84859   0.33654   0.42036   0.00000  Uiso   1.00
H400   H     0.83482   0.36872   0.41442   0.00000  Uiso   1.00
C401   C     0.61575   0.16279   0.54420   0.00000  Uiso   1.00
O402   O     0.60370   0.12566   0.52520   0.00000  Uiso   1.00
O403   O     0.65149   0.16355   0.57970   0.00000  Uiso   1.00
H404   H     0.66525   0.13137   0.58570   0.00000  Uiso   1.00
Cl405  Cl    0.65874   0.02942   0.46419   0.00000  Uiso   1.00
Cl406  Cl    0.84126   0.47058   0.53581   0.00000  Uiso   1.00
Cl407  Cl    0.78026   0.02951   0.60104   0.00000  Uiso   1.00
Cl408  Cl    0.71973   0.47048   0.39896   0.00000  Uiso   1.00
C409   C     0.16398   0.74991   0.50683   0.00000  Uiso   1.00
C410   C     0.33603   0.75009   0.49318   0.00000  Uiso   1.00
C411   C     0.21853   0.60229   0.47135   0.00000  Uiso   1.00
C412   C     0.28147   0.89771   0.52865   0.00000  Uiso   1.00
C413   C     0.27550   0.60225   0.53505   0.00000  Uiso   1.00
C414   C     0.22449   0.89775   0.46495   0.00000  Uiso   1.00
C415   C     0.21391   0.55308   0.47576   0.00000  Uiso   1.00
C416   C     0.28609   0.94692   0.52424   0.00000  Uiso   1.00
C417   C     0.27128   0.55307   0.54011   0.00000  Uiso   1.00
C418   C     0.22872   0.94693   0.45989   0.00000  Uiso   1.00
C419   C     0.24985   0.75006   0.40623   0.00000  Uiso   1.00
C420   C     0.25015   0.74994   0.59377   0.00000  Uiso   1.00
C421   C     0.24719   0.52679   0.50300   0.00000  Uiso   1.00
C422   C     0.25280   0.97321   0.49700   0.00000  Uiso   1.00
C423   C     0.24995   0.75009   0.35514   0.00000  Uiso   1.00
C424   C     0.25005   0.74991   0.64486   0.00000  Uiso   1.00
C425   C     0.04461   0.79164   0.52839   0.00000  Uiso   1.00
C426   C     0.45540   0.70837   0.47165   0.00000  Uiso   1.00
C427   C     0.45579   0.79196   0.47163   0.00000  Uiso   1.00
C428   C     0.04422   0.70804   0.52842   0.00000  Uiso   1.00
C429   C     0.09237   0.79250   0.53019   0.00000  Uiso   1.00
C430   C     0.40764   0.70750   0.46985   0.00000  Uiso   1.00
C431   C     0.40802   0.79294   0.46982   0.00000  Uiso   1.00
C432   C     0.09200   0.70707   0.53024   0.00000  Uiso   1.00
C433   C     0.11589   0.74979   0.52198   0.00000  Uiso   1.00
C434   C     0.38412   0.75021   0.47806   0.00000  Uiso   1.00
C435   C     0.02253   0.74992   0.51354   0.00000  Uiso   1.00
C436   C     0.47749   0.75008   0.48650   0.00000  Uiso   1.00
N437   N     0.25000   0.62624   0.50000   0.00000  Uiso   1.00
N438   N     0.25000   0.87377   0.50000   0.00000  Uiso   1.00
O439   O     0.18453   0.78974   0.50000   0.00000  Uiso   1.00
O440   O     0.31547   0.71026   0.50000   0.00000  Uiso   1.00
O441   O     0.31547   0.78974   0.50000   0.00000  Uiso   1.00
O442   O     0.18453   0.71026   0.50000   0.00000  Uiso   1.00
O443   O     0.25000   0.78973   0.42845   0.00000  Uiso   1.00
O444   O     0.25000   0.71027   0.57155   0.00000  Uiso   1.00
O445   O     0.25000   0.78973   0.57155   0.00000  Uiso   1.00
O446   O     0.25000   0.71027   0.42845   0.00000  Uiso   1.00
Zn447  Zn    0.25000   0.80307   0.50000   0.00000  Uiso   1.00
Zn448  Zn    0.25000   0.69693   0.50000   0.00000  Uiso   1.00
Cl449  Cl    0.18167   0.63282   0.42997   0.00000  Uiso   1.00
Cl450  Cl    0.31833   0.86718   0.57004   0.00000  Uiso   1.00
Cl451  Cl    0.31262   0.63268   0.57623   0.00000  Uiso   1.00
Cl452  Cl    0.18737   0.86732   0.42378   0.00000  Uiso   1.00
Cl453  Cl    0.01339   0.83701   0.55726   0.00000  Uiso   1.00
Cl454  Cl    0.48663   0.66298   0.44281   0.00000  Uiso   1.00
Cl455  Cl    0.48749   0.83742   0.44265   0.00000  Uiso   1.00
Cl456  Cl    0.01252   0.66261   0.55743   0.00000  Uiso   1.00
C457   C     0.11651   0.83668   0.54399   0.00000  Uiso   1.00
O458   O     0.10532   0.87379   0.52421   0.00000  Uiso   1.00
O459   O     0.15170   0.83583   0.58014   0.00000  Uiso   1.00
H460   H     0.16578   0.86795   0.58604   0.00000  Uiso   1.00
C461   C     0.38351   0.66330   0.45609   0.00000  Uiso   1.00
O462   O     0.39472   0.62622   0.47592   0.00000  Uiso   1.00
O463   O     0.34831   0.66412   0.41996   0.00000  Uiso   1.00
H464   H     0.33422   0.63199   0.41411   0.00000  Uiso   1.00
C465   C     0.38427   0.83723   0.45593   0.00000  Uiso   1.00
O466   O     0.39629   0.87432   0.47505   0.00000  Uiso   1.00
O467   O     0.34859   0.83654   0.42036   0.00000  Uiso   1.00
H468   H     0.33482   0.86872   0.41442   0.00000  Uiso   1.00
C469   C     0.11575   0.66279   0.54420   0.00000  Uiso   1.00
O470   O     0.10370   0.62566   0.52520   0.00000  Uiso   1.00
O471   O     0.15149   0.66355   0.57970   0.00000  Uiso   1.00
H472   H     0.16525   0.63137   0.58570   0.00000  Uiso   1.00
Cl473  Cl    0.15874   0.52942   0.46419   0.00000  Uiso   1.00
Cl474  Cl    0.34126   0.97058   0.53581   0.00000  Uiso   1.00
Cl475  Cl    0.28026   0.52951   0.60104   0.00000  Uiso   1.00
Cl476  Cl    0.21973   0.97048   0.39896   0.00000  Uiso   1.00
C477   C     0.66398   0.74991   0.50683   0.00000  Uiso   1.00
C478   C     0.83603   0.75009   0.49318   0.00000  Uiso   1.00
C479   C     0.71853   0.60229   0.47135   0.00000  Uiso   1.00
C480   C     0.78147   0.89771   0.52865   0.00000  Uiso   1.00
C481   C     0.77550   0.60225   0.53505   0.00000  Uiso   1.00
C482   C     0.72449   0.89775   0.46495   0.00000  Uiso   1.00
C483   C     0.71391   0.55308   0.47576   0.00000  Uiso   1.00
C484   C     0.78609   0.94692   0.52424   0.00000  Uiso   1.00
C485   C     0.77128   0.55307   0.54011   0.00000  Uiso   1.00
C486   C     0.72872   0.94693   0.45989   0.00000  Uiso   1.00
C487   C     0.74985   0.75006   0.40623   0.00000  Uiso   1.00
C488   C     0.75015   0.74994   0.59377   0.00000  Uiso   1.00
C489   C     0.74719   0.52679   0.50300   0.00000  Uiso   1.00
C490   C     0.75280   0.97321   0.49700   0.00000  Uiso   1.00
C491   C     0.74995   0.75009   0.35514   0.00000  Uiso   1.00
C492   C     0.75005   0.74991   0.64486   0.00000  Uiso   1.00
C493   C     0.54461   0.79164   0.52839   0.00000  Uiso   1.00
C494   C     0.95540   0.70837   0.47165   0.00000  Uiso   1.00
C495   C     0.95579   0.79196   0.47163   0.00000  Uiso   1.00
C496   C     0.54422   0.70804   0.52842   0.00000  Uiso   1.00
C497   C     0.59237   0.79250   0.53019   0.00000  Uiso   1.00
C498   C     0.90764   0.70750   0.46985   0.00000  Uiso   1.00
C499   C     0.90802   0.79294   0.46982   0.00000  Uiso   1.00
C500   C     0.59200   0.70707   0.53024   0.00000  Uiso   1.00
C501   C     0.61589   0.74979   0.52198   0.00000  Uiso   1.00
C502   C     0.88412   0.75021   0.47806   0.00000  Uiso   1.00
C503   C     0.52253   0.74992   0.51354   0.00000  Uiso   1.00
C504   C     0.97749   0.75008   0.48650   0.00000  Uiso   1.00
N505   N     0.75000   0.62624   0.50000   0.00000  Uiso   1.00
N506   N     0.75000   0.87377   0.50000   0.00000  Uiso   1.00
O507   O     0.68453   0.78974   0.50000   0.00000  Uiso   1.00
O508   O     0.81547   0.71026   0.50000   0.00000  Uiso   1.00
O509   O     0.81547   0.78974   0.50000   0.00000  Uiso   1.00
O510   O     0.68453   0.71026   0.50000   0.00000  Uiso   1.00
O511   O     0.75000   0.78973   0.42845   0.00000  Uiso   1.00
O512   O     0.75000   0.71027   0.57155   0.00000  Uiso   1.00
O513   O     0.75000   0.78973   0.57155   0.00000  Uiso   1.00
O514   O     0.75000   0.71027   0.42845   0.00000  Uiso   1.00
Zn515  Zn    0.75000   0.80307   0.50000   0.00000  Uiso   1.00
Zn516  Zn    0.75000   0.69693   0.50000   0.00000  Uiso   1.00
Cl517  Cl    0.68167   0.63282   0.42997   0.00000  Uiso   1.00
Cl518  Cl    0.81833   0.86718   0.57004   0.00000  Uiso   1.00
Cl519  Cl    0.81262   0.63268   0.57623   0.00000  Uiso   1.00
Cl520  Cl    0.68737   0.86732   0.42378   0.00000  Uiso   1.00
Cl521  Cl    0.51339   0.83701   0.55726   0.00000  Uiso   1.00
Cl522  Cl    0.98663   0.66298   0.44281   0.00000  Uiso   1.00
Cl523  Cl    0.98749   0.83742   0.44265   0.00000  Uiso   1.00
Cl524  Cl    0.51252   0.66261   0.55743   0.00000  Uiso   1.00
C525   C     0.61651   0.83668   0.54399   0.00000  Uiso   1.00
O526   O     0.60532   0.87379   0.52421   0.00000  Uiso   1.00
O527   O     0.65170   0.83583   0.58014   0.00000  Uiso   1.00
H528   H     0.66578   0.86795   0.58604   0.00000  Uiso   1.00
C529   C     0.88351   0.66330   0.45609   0.00000  Uiso   1.00
O530   O     0.89472   0.62622   0.47592   0.00000  Uiso   1.00
O531   O     0.84831   0.66412   0.41996   0.00000  Uiso   1.00
H532   H     0.83422   0.63199   0.41411   0.00000  Uiso   1.00
C533   C     0.88427   0.83723   0.45593   0.00000  Uiso   1.00
O534   O     0.89629   0.87432   0.47505   0.00000  Uiso   1.00
O535   O     0.84859   0.83654   0.42036   0.00000  Uiso   1.00
H536   H     0.83482   0.86872   0.41442   0.00000  Uiso   1.00
C537   C     0.61575   0.66279   0.54420   0.00000  Uiso   1.00
O538   O     0.60370   0.62566   0.52520   0.00000  Uiso   1.00
O539   O     0.65149   0.66355   0.57970   0.00000  Uiso   1.00
H540   H     0.66525   0.63137   0.58570   0.00000  Uiso   1.00
Cl541  Cl    0.65874   0.52942   0.46419   0.00000  Uiso   1.00
Cl542  Cl    0.84126   0.97058   0.53581   0.00000  Uiso   1.00
Cl543  Cl    0.78026   0.52951   0.60104   0.00000  Uiso   1.00
Cl544  Cl    0.71973   0.97048   0.39896   0.00000  Uiso   1.00
C545   C     0.16398   0.24991   0.84016   0.00000  Uiso   1.00
C546   C     0.33603   0.25009   0.82651   0.00000  Uiso   1.00
C547   C     0.21853   0.10229   0.80468   0.00000  Uiso   1.00
C548   C     0.28147   0.39771   0.86198   0.00000  Uiso   1.00
C549   C     0.27550   0.10225   0.86839   0.00000  Uiso   1.00
C550   C     0.22449   0.39775   0.79828   0.00000  Uiso   1.00
C551   C     0.21391   0.05308   0.80909   0.00000  Uiso   1.00
C552   C     0.28609   0.44692   0.85758   0.00000  Uiso   1.00
C553   C     0.27128   0.05307   0.87344   0.00000  Uiso   1.00
C554   C     0.22872   0.44693   0.79323   0.00000  Uiso   1.00
C555   C     0.24985   0.25006   0.73957   0.00000  Uiso   1.00
C556   C     0.25015   0.24994   0.92710   0.00000  Uiso   1.00
C557   C     0.24719   0.02679   0.83633   0.00000  Uiso   1.00
C558   C     0.25280   0.47321   0.83034   0.00000  Uiso   1.00
C559   C     0.24995   0.25009   0.68847   0.00000  Uiso   1.00
C560   C     0.25005   0.24991   0.97820   0.00000  Uiso   1.00
C561   C     0.04461   0.29164   0.86172   0.00000  Uiso   1.00
C562   C     0.45540   0.20837   0.80499   0.00000  Uiso   1.00
C563   C     0.45579   0.29196   0.80497   0.00000  Uiso   1.00
C564   C     0.04422   0.20804   0.86175   0.00000  Uiso   1.00
C565   C     0.09237   0.29250   0.86352   0.00000  Uiso   1.00
C566   C     0.40764   0.20750   0.80318   0.00000  Uiso   1.00
C567   C     0.40802   0.29294   0.80315   0.00000  Uiso   1.00
C568   C     0.09200   0.20707   0.86358   0.00000  Uiso   1.00
C569   C     0.11589   0.24979   0.85531   0.00000  Uiso   1.00
C570   C     0.38412   0.25021   0.81139   0.00000  Uiso   1.00
C571   C     0.02253   0.24992   0.84687   0.00000  Uiso   1.00
C572   C     0.47749   0.25008   0.81983   0.00000  Uiso   1.00
N573   N     0.25000   0.12624   0.83333   0.00000  Uiso   1.00
N574   N     0.25000   0.37377   0.83333   0.00000  Uiso   1.00
O575   O     0.18453   0.28974   0.83334   0.00000  Uiso   1.00
O576   O     0.31547   0.21026   0.83333   0.00000  Uiso   1.00
O577   O     0.31547   0.28974   0.83333   0.00000  Uiso   1.00
O578   O     0.18453   0.21026   0.83334   0.00000  Uiso   1.00
O579   O     0.25000   0.28973   0.76178   0.00000  Uiso   1.00
O580   O     0.25000   0.21027   0.90489   0.00000  Uiso   1.00
O581   O     0.25000   0.28973   0.90489   0.00000  Uiso   1.00
O582   O     0.25000   0.21027   0.76178   0.00000  Uiso   1.00
Zn583  Zn    0.25000   0.30307   0.83333   0.00000  Uiso   1.00
Zn584  Zn    0.25000   0.19693   0.83333   0.00000  Uiso   1.00
Cl585  Cl    0.18167   0.13282   0.76331   0.00000  Uiso   1.00
Cl586  Cl    0.31833   0.36718   0.90337   0.00000  Uiso   1.00
Cl587  Cl    0.31262   0.13268   0.90957   0.00000  Uiso   1.00
Cl588  Cl    0.18737   0.36732   0.75711   0.00000  Uiso   1.00
Cl589  Cl    0.01339   0.33701   0.89060   0.00000  Uiso   1.00
Cl590  Cl    0.48663   0.16298   0.77614   0.00000  Uiso   1.00
Cl591  Cl    0.48749   0.33742   0.77598   0.00000  Uiso   1.00
Cl592  Cl    0.01252   0.16261   0.89076   0.00000  Uiso   1.00
C593   C     0.11651   0.33668   0.87732   0.00000  Uiso   1.00
O594   O     0.10532   0.37379   0.85754   0.00000  Uiso   1.00
O595   O     0.15170   0.33583   0.91347   0.00000  Uiso   1.00
H596   H     0.16578   0.36795   0.91937   0.00000  Uiso   1.00
C597   C     0.38351   0.16330   0.78943   0.00000  Uiso   1.00
O598   O     0.39472   0.12622   0.80925   0.00000  Uiso   1.00
O599   O     0.34831   0.16412   0.75329   0.00000  Uiso   1.00
H600   H     0.33422   0.13199   0.74744   0.00000  Uiso   1.00
C601   C     0.38427   0.33723   0.78927   0.00000  Uiso   1.00
O602   O     0.39629   0.37432   0.80839   0.00000  Uiso   1.00
O603   O     0.34859   0.33654   0.75370   0.00000  Uiso   1.00
H604   H     0.33482   0.36872   0.74776   0.00000  Uiso   1.00
C605   C     0.11575   0.16279   0.87753   0.00000  Uiso   1.00
O606   O     0.10370   0.12566   0.85854   0.00000  Uiso   1.00
O607   O     0.15149   0.16355   0.91303   0.00000  Uiso   1.00
H608   H     0.16525   0.13137   0.91903   0.00000  Uiso   1.00
Cl609  Cl    0.15874   0.02942   0.79752   0.00000  Uiso   1.00
Cl610  Cl    0.34126   0.47058   0.86915   0.00000  Uiso   1.00
Cl611  Cl    0.28026   0.02951   0.93437   0.00000  Uiso   1.00
Cl612  Cl    0.21973   0.47048   0.73230   0.00000  Uiso   1.00
C613   C     0.66398   0.24991   0.84016   0.00000  Uiso   1.00
C614   C     0.83603   0.25009   0.82651   0.00000  Uiso   1.00
C615   C     0.71853   0.10229   0.80468   0.00000  Uiso   1.00
C616   C     0.78147   0.39771   0.86198   0.00000  Uiso   1.00
C617   C     0.77550   0.10225   0.86839   0.00000  Uiso   1.00
C618   C     0.72449   0.39775   0.79828   0.00000  Uiso   1.00
C619   C     0.71391   0.05308   0.80909   0.00000  Uiso   1.00
C620   C     0.78609   0.44692   0.85758   0.00000  Uiso   1.00
C621   C     0.77128   0.05307   0.87344   0.00000  Uiso   1.00
C622   C     0.72872   0.44693   0.79323   0.00000  Uiso   1.00
C623   C     0.74985   0.25006   0.73957   0.00000  Uiso   1.00
C624   C     0.75015   0.24994   0.92710   0.00000  Uiso   1.00
C625   C     0.74719   0.02679   0.83633   0.00000  Uiso   1.00
C626   C     0.75280   0.47321   0.83034   0.00000  Uiso   1.00
C627   C     0.74995   0.25009   0.68847   0.00000  Uiso   1.00
C628   C     0.75005   0.24991   0.97820   0.00000  Uiso   1.00
C629   C     0.54461   0.29164   0.86172   0.00000  Uiso   1.00
C630   C     0.95540   0.20837   0.80499   0.00000  Uiso   1.00
C631   C     0.95579   0.29196   0.80497   0.00000  Uiso   1.00
C632   C     0.54422   0.20804   0.86175   0.00000  Uiso   1.00
C633   C     0.59237   0.29250   0.86352   0.00000  Uiso   1.00
C634   C     0.90764   0.20750   0.80318   0.00000  Uiso   1.00
C635   C     0.90802   0.29294   0.80315   0.00000  Uiso   1.00
C636   C     0.59200   0.20707   0.86358   0.00000  Uiso   1.00
C637   C     0.61589   0.24979   0.85531   0.00000  Uiso   1.00
C638   C     0.88412   0.25021   0.81139   0.00000  Uiso   1.00
C639   C     0.52253   0.24992   0.84687   0.00000  Uiso   1.00
C640   C     0.97749   0.25008   0.81983   0.00000  Uiso   1.00
N641   N     0.75000   0.12624   0.83333   0.00000  Uiso   1.00
N642   N     0.75000   0.37377   0.83333   0.00000  Uiso   1.00
O643   O     0.68453   0.28974   0.83334   0.00000  Uiso   1.00
O644   O     0.81547   0.21026   0.83333   0.00000  Uiso   1.00
O645   O     0.81547   0.28974   0.83333   0.00000  Uiso   1.00
O646   O     0.68453   0.21026   0.83334   0.00000  Uiso   1.00
O647   O     0.75000   0.28973   0.76178   0.00000  Uiso   1.00
O648   O     0.75000   0.21027   0.90489   0.00000  Uiso   1.00
O649   O     0.75000   0.28973   0.90489   0.00000  Uiso   1.00
O650   O     0.75000   0.21027   0.76178   0.00000  Uiso   1.00
Zn651  Zn    0.75000   0.30307   0.83333   0.00000  Uiso   1.00
Zn652  Zn    0.75000   0.19693   0.83333   0.00000  Uiso   1.00
Cl653  Cl    0.68167   0.13282   0.76331   0.00000  Uiso   1.00
Cl654  Cl    0.81833   0.36718   0.90337   0.00000  Uiso   1.00
Cl655  Cl    0.81262   0.13268   0.90957   0.00000  Uiso   1.00
Cl656  Cl    0.68737   0.36732   0.75711   0.00000  Uiso   1.00
Cl657  Cl    0.51339   0.33701   0.89060   0.00000  Uiso   1.00
Cl658  Cl    0.98663   0.16298   0.77614   0.00000  Uiso   1.00
Cl659  Cl    0.98749   0.33742   0.77598   0.00000  Uiso   1.00
Cl660  Cl    0.51252   0.16261   0.89076   0.00000  Uiso   1.00
C661   C     0.61651   0.33668   0.87732   0.00000  Uiso   1.00
O662   O     0.60532   0.37379   0.85754   0.00000  Uiso   1.00
O663   O     0.65170   0.33583   0.91347   0.00000  Uiso   1.00
H664   H     0.66578   0.36795   0.91937   0.00000  Uiso   1.00
C665   C     0.88351   0.16330   0.78943   0.00000  Uiso   1.00
O666   O     0.89472   0.12622   0.80925   0.00000  Uiso   1.00
O667   O     0.84831   0.16412   0.75329   0.00000  Uiso   1.00
H668   H     0.83422   0.13199   0.74744   0.00000  Uiso   1.00
C669   C     0.88427   0.33723   0.78927   0.00000  Uiso   1.00
O670   O     0.89629   0.37432   0.80839   0.00000  Uiso   1.00
O671   O     0.84859   0.33654   0.75370   0.00000  Uiso   1.00
H672   H     0.83482   0.36872   0.74776   0.00000  Uiso   1.00
C673   C     0.61575   0.16279   0.87753   0.00000  Uiso   1.00
O674   O     0.60370   0.12566   0.85854   0.00000  Uiso   1.00
O675   O     0.65149   0.16355   0.91303   0.00000  Uiso   1.00
H676   H     0.66525   0.13137   0.91903   0.00000  Uiso   1.00
Cl677  Cl    0.65874   0.02942   0.79752   0.00000  Uiso   1.00
Cl678  Cl    0.84126   0.47058   0.86915   0.00000  Uiso   1.00
Cl679  Cl    0.78026   0.02951   0.93437   0.00000  Uiso   1.00
Cl680  Cl    0.71973   0.47048   0.73230   0.00000  Uiso   1.00
C681   C     0.16398   0.74991   0.84016   0.00000  Uiso   1.00
C682   C     0.33603   0.75009   0.82651   0.00000  Uiso   1.00
C683   C     0.21853   0.60229   0.80468   0.00000  Uiso   1.00
C684   C     0.28147   0.89771   0.86198   0.00000  Uiso   1.00
C685   C     0.27550   0.60225   0.86839   0.00000  Uiso   1.00
C686   C     0.22449   0.89775   0.79828   0.00000  Uiso   1.00
C687   C     0.21391   0.55308   0.80909   0.00000  Uiso   1.00
C688   C     0.28609   0.94692   0.85758   0.00000  Uiso   1.00
C689   C     0.27128   0.55307   0.87344   0.00000  Uiso   1.00
C690   C     0.22872   0.94693   0.79323   0.00000  Uiso   1.00
C691   C     0.24985   0.75006   0.73957   0.00000  Uiso   1.00
C692   C     0.25015   0.74994   0.92710   0.00000  Uiso   1.00
C693   C     0.24719   0.52679   0.83633   0.00000  Uiso   1.00
C694   C     0.25280   0.97321   0.83034   0.00000  Uiso   1.00
C695   C     0.24995   0.75009   0.68847   0.00000  Uiso   1.00
C696   C     0.25005   0.74991   0.97820   0.00000  Uiso   1.00
C697   C     0.04461   0.79164   0.86172   0.00000  Uiso   1.00
C698   C     0.45540   0.70837   0.80499   0.00000  Uiso   1.00
C699   C     0.45579   0.79196   0.80497   0.00000  Uiso   1.00
C700   C     0.04422   0.70804   0.86175   0.00000  Uiso   1.00
C701   C     0.09237   0.79250   0.86352   0.00000  Uiso   1.00
C702   C     0.40764   0.70750   0.80318   0.00000  Uiso   1.00
C703   C     0.40802   0.79294   0.80315   0.00000  Uiso   1.00
C704   C     0.09200   0.70707   0.86358   0.00000  Uiso   1.00
C705   C     0.11589   0.74979   0.85531   0.00000  Uiso   1.00
C706   C     0.38412   0.75021   0.81139   0.00000  Uiso   1.00
C707   C     0.02253   0.74992   0.84687   0.00000  Uiso   1.00
C708   C     0.47749   0.75008   0.81983   0.00000  Uiso   1.00
N709   N     0.25000   0.62624   0.83333   0.00000  Uiso   1.00
N710   N     0.25000   0.87377   0.83333   0.00000  Uiso   1.00
O711   O     0.18453   0.78974   0.83334   0.00000  Uiso   1.00
O712   O     0.31547   0.71026   0.83333   0.00000  Uiso   1.00
O713   O     0.31547   0.78974   0.83333   0.00000  Uiso   1.00
O714   O     0.18453   0.71026   0.83334   0.00000  Uiso   1.00
O715   O     0.25000   0.78973   0.76178   0.00000  Uiso   1.00
O716   O     0.25000   0.71027   0.90489   0.00000  Uiso   1.00
O717   O     0.25000   0.78973   0.90489   0.00000  Uiso   1.00
O718   O     0.25000   0.71027   0.76178   0.00000  Uiso   1.00
Zn719  Zn    0.25000   0.80307   0.83333   0.00000  Uiso   1.00
Zn720  Zn    0.25000   0.69693   0.83333   0.00000  Uiso   1.00
Cl721  Cl    0.18167   0.63282   0.76331   0.00000  Uiso   1.00
Cl722  Cl    0.31833   0.86718   0.90337   0.00000  Uiso   1.00
Cl723  Cl    0.31262   0.63268   0.90957   0.00000  Uiso   1.00
Cl724  Cl    0.18737   0.86732   0.75711   0.00000  Uiso   1.00
Cl725  Cl    0.01339   0.83701   0.89060   0.00000  Uiso   1.00
Cl726  Cl    0.48663   0.66298   0.77614   0.00000  Uiso   1.00
Cl727  Cl    0.48749   0.83742   0.77598   0.00000  Uiso   1.00
Cl728  Cl    0.01252   0.66261   0.89076   0.00000  Uiso   1.00
C729   C     0.11651   0.83668   0.87732   0.00000  Uiso   1.00
O730   O     0.10532   0.87379   0.85754   0.00000  Uiso   1.00
O731   O     0.15170   0.83583   0.91347   0.00000  Uiso   1.00
H732   H     0.16578   0.86795   0.91937   0.00000  Uiso   1.00
C733   C     0.38351   0.66330   0.78943   0.00000  Uiso   1.00
O734   O     0.39472   0.62622   0.80925   0.00000  Uiso   1.00
O735   O     0.34831   0.66412   0.75329   0.00000  Uiso   1.00
H736   H     0.33422   0.63199   0.74744   0.00000  Uiso   1.00
C737   C     0.38427   0.83723   0.78927   0.00000  Uiso   1.00
O738   O     0.39629   0.87432   0.80839   0.00000  Uiso   1.00
O739   O     0.34859   0.83654   0.75370   0.00000  Uiso   1.00
H740   H     0.33482   0.86872   0.74776   0.00000  Uiso   1.00
C741   C     0.11575   0.66279   0.87753   0.00000  Uiso   1.00
O742   O     0.10370   0.62566   0.85854   0.00000  Uiso   1.00
O743   O     0.15149   0.66355   0.91303   0.00000  Uiso   1.00
H744   H     0.16525   0.63137   0.91903   0.00000  Uiso   1.00
Cl745  Cl    0.15874   0.52942   0.79752   0.00000  Uiso   1.00
Cl746  Cl    0.34126   0.97058   0.86915   0.00000  Uiso   1.00
Cl747  Cl    0.28026   0.52951   0.93437   0.00000  Uiso   1.00
Cl748  Cl    0.21973   0.97048   0.73230   0.00000  Uiso   1.00
C749   C     0.66398   0.74991   0.84016   0.00000  Uiso   1.00
C750   C     0.83603   0.75009   0.82651   0.00000  Uiso   1.00
C751   C     0.71853   0.60229   0.80468   0.00000  Uiso   1.00
C752   C     0.78147   0.89771   0.86198   0.00000  Uiso   1.00
C753   C     0.77550   0.60225   0.86839   0.00000  Uiso   1.00
C754   C     0.72449   0.89775   0.79828   0.00000  Uiso   1.00
C755   C     0.71391   0.55308   0.80909   0.00000  Uiso   1.00
C756   C     0.78609   0.94692   0.85758   0.00000  Uiso   1.00
C757   C     0.77128   0.55307   0.87344   0.00000  Uiso   1.00
C758   C     0.72872   0.94693   0.79323   0.00000  Uiso   1.00
C759   C     0.74985   0.75006   0.73957   0.00000  Uiso   1.00
C760   C     0.75015   0.74994   0.92710   0.00000  Uiso   1.00
C761   C     0.74719   0.52679   0.83633   0.00000  Uiso   1.00
C762   C     0.75280   0.97321   0.83034   0.00000  Uiso   1.00
C763   C     0.74995   0.75009   0.68847   0.00000  Uiso   1.00
C764   C     0.75005   0.74991   0.97820   0.00000  Uiso   1.00
C765   C     0.54461   0.79164   0.86172   0.00000  Uiso   1.00
C766   C     0.95540   0.70837   0.80499   0.00000  Uiso   1.00
C767   C     0.95579   0.79196   0.80497   0.00000  Uiso   1.00
C768   C     0.54422   0.70804   0.86175   0.00000  Uiso   1.00
C769   C     0.59237   0.79250   0.86352   0.00000  Uiso   1.00
C770   C     0.90764   0.70750   0.80318   0.00000  Uiso   1.00
C771   C     0.90802   0.79294   0.80315   0.00000  Uiso   1.00
C772   C     0.59200   0.70707   0.86358   0.00000  Uiso   1.00
C773   C     0.61589   0.74979   0.85531   0.00000  Uiso   1.00
C774   C     0.88412   0.75021   0.81139   0.00000  Uiso   1.00
C775   C     0.52253   0.74992   0.84687   0.00000  Uiso   1.00
C776   C     0.97749   0.75008   0.81983   0.00000  Uiso   1.00
N777   N     0.75000   0.62624   0.83333   0.00000  Uiso   1.00
N778   N     0.75000   0.87377   0.83333   0.00000  Uiso   1.00
O779   O     0.68453   0.78974   0.83334   0.00000  Uiso   1.00
O780   O     0.81547   0.71026   0.83333   0.00000  Uiso   1.00
O781   O     0.81547   0.78974   0.83333   0.00000  Uiso   1.00
O782   O     0.68453   0.71026   0.83334   0.00000  Uiso   1.00
O783   O     0.75000   0.78973   0.76178   0.00000  Uiso   1.00
O784   O     0.75000   0.71027   0.90489   0.00000  Uiso   1.00
O785   O     0.75000   0.78973   0.90489   0.00000  Uiso   1.00
O786   O     0.75000   0.71027   0.76178   0.00000  Uiso   1.00
Zn787  Zn    0.75000   0.80307   0.83333   0.00000  Uiso   1.00
Zn788  Zn    0.75000   0.69693   0.83333   0.00000  Uiso   1.00
Cl789  Cl    0.68167   0.63282   0.76331   0.00000  Uiso   1.00
Cl790  Cl    0.81833   0.86718   0.90337   0.00000  Uiso   1.00
Cl791  Cl    0.81262   0.63268   0.90957   0.00000  Uiso   1.00
Cl792  Cl    0.68737   0.86732   0.75711   0.00000  Uiso   1.00
Cl793  Cl    0.51339   0.83701   0.89060   0.00000  Uiso   1.00
Cl794  Cl    0.98663   0.66298   0.77614   0.00000  Uiso   1.00
Cl795  Cl    0.98749   0.83742   0.77598   0.00000  Uiso   1.00
Cl796  Cl    0.51252   0.66261   0.89076   0.00000  Uiso   1.00
C797   C     0.61651   0.83668   0.87732   0.00000  Uiso   1.00
O798   O     0.60532   0.87379   0.85754   0.00000  Uiso   1.00
O799   O     0.65170   0.83583   0.91347   0.00000  Uiso   1.00
H800   H     0.66578   0.86795   0.91937   0.00000  Uiso   1.00
C801   C     0.88351   0.66330   0.78943   0.00000  Uiso   1.00
O802   O     0.89472   0.62622   0.80925   0.00000  Uiso   1.00
O803   O     0.84831   0.66412   0.75329   0.00000  Uiso   1.00
H804   H     0.83422   0.63199   0.74744   0.00000  Uiso   1.00
C805   C     0.88427   0.83723   0.78927   0.00000  Uiso   1.00
O806   O     0.89629   0.87432   0.80839   0.00000  Uiso   1.00
O807   O     0.84859   0.83654   0.75370   0.00000  Uiso   1.00
H808   H     0.83482   0.86872   0.74776   0.00000  Uiso   1.00
C809   C     0.61575   0.66279   0.87753   0.00000  Uiso   1.00
O810   O     0.60370   0.62566   0.85854   0.00000  Uiso   1.00
O811   O     0.65149   0.66355   0.91303   0.00000  Uiso   1.00
H812   H     0.66525   0.63137   0.91903   0.00000  Uiso   1.00
Cl813  Cl    0.65874   0.52942   0.79752   0.00000  Uiso   1.00
Cl814  Cl    0.84126   0.97058   0.86915   0.00000  Uiso   1.00
Cl815  Cl    0.78026   0.52951   0.93437   0.00000  Uiso   1.00
Cl816  Cl    0.71973   0.97048   0.73230   0.00000  Uiso   1.00
loop_
_geom_bond_atom_site_label_1
_geom_bond_atom_site_label_2
_geom_bond_distance
_geom_bond_site_symmetry_2
_ccdc_geom_bond_type
C1     O34     1.298   .     A
C1     C25     1.475   .     S
C1     O31     1.297   .     A
C2     C26     1.475   .     S
C2     O32     1.297   .     A
C2     O33     1.298   .     A
C3     N29     1.368   .     A
C3     Cl41    1.760   .     S
C3     C7      1.413   .     A
C4     C8      1.413   .     A
C4     Cl42    1.760   .     S
C4     N30     1.368   .     A
C5     Cl43    1.759   .     S
C5     N29     1.368   .     A
C5     C9      1.412   .     A
C6     N30     1.368   .     A
C6     C10     1.412   .     A
C6     Cl44    1.759   .     S
C7     Cl65    1.772   .     S
C7     C13     1.420   .     A
C8     Cl66    1.772   .     S
C8     C14     1.420   .     A
C9     Cl67    1.772   .     S
C9     C13     1.419   .     A
C10    Cl68    1.772   .     S
C10    C14     1.419   .     A
C11    O38     1.277   .     A
C11    O35     1.278   .     A
C11    C15     1.364   .     S
C12    O36     1.278   .     A
C12    C16     1.364   .     S
C12    O37     1.277   .     A
C13    C150    1.545   1_545 S
C14    C149    1.545   .     S
C15    C560    1.164   1_554 S
C16    C287    1.164   .     S
C17    Cl45    1.775   .     S
C17    C27     1.406   .     A
C17    C21     1.400   .     A
C18    Cl46    1.775   .     S
C18    C28     1.406   .     A
C18    C22     1.400   .     A
C19    C28     1.406   .     A
C19    Cl47    1.775   .     S
C19    C23     1.401   .     A
C20    C27     1.406   .     A
C20    Cl48    1.775   .     S
C20    C24     1.401   .     A
C21    C49     1.486   .     S
C21    C25     1.421   .     A
C22    C53     1.486   .     S
C22    C26     1.421   .     A
C23    C26     1.420   .     A
C23    C57     1.486   .     S
C24    C61     1.486   .     S
C24    C25     1.420   .     A
C27    C96     1.492   1_455 S
C28    C95     1.492   .     S
N29    Zn40    2.014   .     S
N30    Zn39    2.014   .     S
O31    Zn39    1.955   .     S
O32    Zn40    1.955   .     S
O33    Zn39    1.958   .     S
O34    Zn40    1.958   .     S
O35    Zn39    1.949   .     S
O36    Zn40    1.949   .     S
O37    Zn39    1.946   .     S
O38    Zn40    1.946   .     S
C49    O50     1.223   .     D
C49    O51     1.399   .     S
O51    H52     1.014   .     S
C53    O54     1.223   .     D
C53    O55     1.399   .     S
O55    H56     1.014   .     S
C57    O58     1.223   .     D
C57    O59     1.399   .     S
O59    H60     1.014   .     S
C61    O62     1.223   .     D
C61    O63     1.399   .     S
O63    H64     1.014   .     S
C69    O102    1.298   .     A
C69    C93     1.475   .     S
C69    O99     1.297   .     A
C70    C94     1.475   .     S
C70    O100    1.297   .     A
C70    O101    1.298   .     A
C71    N97     1.368   .     A
C71    Cl109   1.760   .     S
C71    C75     1.413   .     A
C72    C76     1.413   .     A
C72    Cl110   1.760   .     S
C72    N98     1.368   .     A
C73    Cl111   1.759   .     S
C73    N97     1.368   .     A
C73    C77     1.412   .     A
C74    N98     1.368   .     A
C74    C78     1.412   .     A
C74    Cl112   1.759   .     S
C75    Cl133   1.772   .     S
C75    C81     1.420   .     A
C76    Cl134   1.772   .     S
C76    C82     1.420   .     A
C77    Cl135   1.772   .     S
C77    C81     1.419   .     A
C78    Cl136   1.772   .     S
C78    C82     1.419   .     A
C79    O106    1.277   .     A
C79    O103    1.278   .     A
C79    C83     1.364   .     S
C80    O104    1.278   .     A
C80    C84     1.364   .     S
C80    O105    1.277   .     A
C81    C218    1.545   1_545 S
C82    C217    1.545   .     S
C83    C628    1.164   1_554 S
C84    C355    1.164   .     S
C85    Cl113   1.775   .     S
C85    C95     1.406   .     A
C85    C89     1.400   .     A
C86    Cl114   1.775   .     S
C86    C96     1.406   .     A
C86    C90     1.400   .     A
C87    C96     1.406   .     A
C87    Cl115   1.775   .     S
C87    C91     1.401   .     A
C88    C95     1.406   .     A
C88    Cl116   1.775   .     S
C88    C92     1.401   .     A
C89    C117    1.486   .     S
C89    C93     1.421   .     A
C90    C121    1.486   .     S
C90    C94     1.421   .     A
C91    C94     1.420   .     A
C91    C125    1.486   .     S
C92    C129    1.486   .     S
C92    C93     1.420   .     A
C96    C27     1.492   1_655 S
N97    Zn108   2.014   .     S
N98    Zn107   2.014   .     S
O99    Zn107   1.955   .     S
O100   Zn108   1.955   .     S
O101   Zn107   1.958   .     S
O102   Zn108   1.958   .     S
O103   Zn107   1.949   .     S
O104   Zn108   1.949   .     S
O105   Zn107   1.946   .     S
O106   Zn108   1.946   .     S
C117   O118    1.223   .     D
C117   O119    1.399   .     S
O119   H120    1.014   .     S
C121   O122    1.223   .     D
C121   O123    1.399   .     S
O123   H124    1.014   .     S
C125   O126    1.223   .     D
C125   O127    1.399   .     S
O127   H128    1.014   .     S
C129   O130    1.223   .     D
C129   O131    1.399   .     S
O131   H132    1.014   .     S
C137   O170    1.298   .     A
C137   C161    1.475   .     S
C137   O167    1.297   .     A
C138   C162    1.475   .     S
C138   O168    1.297   .     A
C138   O169    1.298   .     A
C139   N165    1.368   .     A
C139   Cl177   1.760   .     S
C139   C143    1.413   .     A
C140   C144    1.413   .     A
C140   Cl178   1.760   .     S
C140   N166    1.368   .     A
C141   Cl179   1.759   .     S
C141   N165    1.368   .     A
C141   C145    1.412   .     A
C142   N166    1.368   .     A
C142   C146    1.412   .     A
C142   Cl180   1.759   .     S
C143   Cl201   1.772   .     S
C143   C149    1.420   .     A
C144   Cl202   1.772   .     S
C144   C150    1.420   .     A
C145   Cl203   1.772   .     S
C145   C149    1.419   .     A
C146   Cl204   1.772   .     S
C146   C150    1.419   .     A
C147   O174    1.277   .     A
C147   O171    1.278   .     A
C147   C151    1.364   .     S
C148   O172    1.278   .     A
C148   C152    1.364   .     S
C148   O173    1.277   .     A
C150   C13     1.545   1_565 S
C151   C696    1.164   1_554 S
C152   C423    1.164   .     S
C153   Cl181   1.775   .     S
C153   C163    1.406   .     A
C153   C157    1.400   .     A
C154   Cl182   1.775   .     S
C154   C164    1.406   .     A
C154   C158    1.400   .     A
C155   C164    1.406   .     A
C155   Cl183   1.775   .     S
C155   C159    1.401   .     A
C156   C163    1.406   .     A
C156   Cl184   1.775   .     S
C156   C160    1.401   .     A
C157   C185    1.486   .     S
C157   C161    1.421   .     A
C158   C189    1.486   .     S
C158   C162    1.421   .     A
C159   C162    1.420   .     A
C159   C193    1.486   .     S
C160   C197    1.486   .     S
C160   C161    1.420   .     A
C163   C232    1.492   1_455 S
C164   C231    1.492   .     S
N165   Zn176   2.014   .     S
N166   Zn175   2.014   .     S
O167   Zn175   1.955   .     S
O168   Zn176   1.955   .     S
O169   Zn175   1.958   .     S
O170   Zn176   1.958   .     S
O171   Zn175   1.949   .     S
O172   Zn176   1.949   .     S
O173   Zn175   1.946   .     S
O174   Zn176   1.946   .     S
C185   O186    1.223   .     D
C185   O187    1.399   .     S
O187   H188    1.014   .     S
C189   O190    1.223   .     D
C189   O191    1.399   .     S
O191   H192    1.014   .     S
C193   O194    1.223   .     D
C193   O195    1.399   .     S
O195   H196    1.014   .     S
C197   O198    1.223   .     D
C197   O199    1.399   .     S
O199   H200    1.014   .     S
C205   O238    1.298   .     A
C205   C229    1.475   .     S
C205   O235    1.297   .     A
C206   C230    1.475   .     S
C206   O236    1.297   .     A
C206   O237    1.298   .     A
C207   N233    1.368   .     A
C207   Cl245   1.760   .     S
C207   C211    1.413   .     A
C208   C212    1.413   .     A
C208   Cl246   1.760   .     S
C208   N234    1.368   .     A
C209   Cl247   1.759   .     S
C209   N233    1.368   .     A
C209   C213    1.412   .     A
C210   N234    1.368   .     A
C210   C214    1.412   .     A
C210   Cl248   1.759   .     S
C211   Cl269   1.772   .     S
C211   C217    1.420   .     A
C212   Cl270   1.772   .     S
C212   C218    1.420   .     A
C213   Cl271   1.772   .     S
C213   C217    1.419   .     A
C214   Cl272   1.772   .     S
C214   C218    1.419   .     A
C215   O242    1.277   .     A
C215   O239    1.278   .     A
C215   C219    1.364   .     S
C216   O240    1.278   .     A
C216   C220    1.364   .     S
C216   O241    1.277   .     A
C218   C81     1.545   1_565 S
C219   C764    1.164   1_554 S
C220   C491    1.164   .     S
C221   Cl249   1.775   .     S
C221   C231    1.406   .     A
C221   C225    1.400   .     A
C222   Cl250   1.775   .     S
C222   C232    1.406   .     A
C222   C226    1.400   .     A
C223   C232    1.406   .     A
C223   Cl251   1.775   .     S
C223   C227    1.401   .     A
C224   C231    1.406   .     A
C224   Cl252   1.775   .     S
C224   C228    1.401   .     A
C225   C253    1.486   .     S
C225   C229    1.421   .     A
C226   C257    1.486   .     S
C226   C230    1.421   .     A
C227   C230    1.420   .     A
C227   C261    1.486   .     S
C228   C265    1.486   .     S
C228   C229    1.420   .     A
C232   C163    1.492   1_655 S
N233   Zn244   2.014   .     S
N234   Zn243   2.014   .     S
O235   Zn243   1.955   .     S
O236   Zn244   1.955   .     S
O237   Zn243   1.958   .     S
O238   Zn244   1.958   .     S
O239   Zn243   1.949   .     S
O240   Zn244   1.949   .     S
O241   Zn243   1.946   .     S
O242   Zn244   1.946   .     S
C253   O254    1.223   .     D
C253   O255    1.399   .     S
O255   H256    1.014   .     S
C257   O258    1.223   .     D
C257   O259    1.399   .     S
O259   H260    1.014   .     S
C261   O262    1.223   .     D
C261   O263    1.399   .     S
O263   H264    1.014   .     S
C265   O266    1.223   .     D
C265   O267    1.399   .     S
O267   H268    1.014   .     S
C273   O306    1.298   .     A
C273   C297    1.475   .     S
C273   O303    1.297   .     A
C274   C298    1.475   .     S
C274   O304    1.297   .     A
C274   O305    1.298   .     A
C275   N301    1.368   .     A
C275   Cl313   1.760   .     S
C275   C279    1.413   .     A
C276   C280    1.413   .     A
C276   Cl314   1.760   .     S
C276   N302    1.368   .     A
C277   Cl315   1.759   .     S
C277   N301    1.368   .     A
C277   C281    1.412   .     A
C278   N302    1.368   .     A
C278   C282    1.412   .     A
C278   Cl316   1.759   .     S
C279   Cl337   1.772   .     S
C279   C285    1.420   .     A
C280   Cl338   1.772   .     S
C280   C286    1.420   .     A
C281   Cl339   1.772   .     S
C281   C285    1.419   .     A
C282   Cl340   1.772   .     S
C282   C286    1.419   .     A
C283   O310    1.277   .     A
C283   O307    1.278   .     A
C283   C287    1.364   .     S
C284   O308    1.278   .     A
C284   C288    1.364   .     S
C284   O309    1.277   .     A
C285   C422    1.545   1_545 S
C286   C421    1.545   .     S
C288   C559    1.164   .     S
C289   Cl317   1.775   .     S
C289   C299    1.406   .     A
C289   C293    1.400   .     A
C290   Cl318   1.775   .     S
C290   C300    1.406   .     A
C290   C294    1.400   .     A
C291   C300    1.406   .     A
C291   Cl319   1.775   .     S
C291   C295    1.401   .     A
C292   C299    1.406   .     A
C292   Cl320   1.775   .     S
C292   C296    1.401   .     A
C293   C321    1.486   .     S
C293   C297    1.421   .     A
C294   C325    1.486   .     S
C294   C298    1.421   .     A
C295   C298    1.420   .     A
C295   C329    1.486   .     S
C296   C333    1.486   .     S
C296   C297    1.420   .     A
C299   C368    1.492   1_455 S
C300   C367    1.492   .     S
N301   Zn312   2.014   .     S
N302   Zn311   2.014   .     S
O303   Zn311   1.955   .     S
O304   Zn312   1.955   .     S
O305   Zn311   1.958   .     S
O306   Zn312   1.958   .     S
O307   Zn311   1.949   .     S
O308   Zn312   1.949   .     S
O309   Zn311   1.946   .     S
O310   Zn312   1.946   .     S
C321   O322    1.223   .     D
C321   O323    1.399   .     S
O323   H324    1.014   .     S
C325   O326    1.223   .     D
C325   O327    1.399   .     S
O327   H328    1.014   .     S
C329   O330    1.223   .     D
C329   O331    1.399   .     S
O331   H332    1.014   .     S
C333   O334    1.223   .     D
C333   O335    1.399   .     S
O335   H336    1.014   .     S
C341   O374    1.298   .     A
C341   C365    1.475   .     S
C341   O371    1.297   .     A
C342   C366    1.475   .     S
C342   O372    1.297   .     A
C342   O373    1.298   .     A
C343   N369    1.368   .     A
C343   Cl381   1.760   .     S
C343   C347    1.413   .     A
C344   C348    1.413   .     A
C344   Cl382   1.760   .     S
C344   N370    1.368   .     A
C345   Cl383   1.759   .     S
C345   N369    1.368   .     A
C345   C349    1.412   .     A
C346   N370    1.368   .     A
C346   C350    1.412   .     A
C346   Cl384   1.759   .     S
C347   Cl405   1.772   .     S
C347   C353    1.420   .     A
C348   Cl406   1.772   .     S
C348   C354    1.420   .     A
C349   Cl407   1.772   .     S
C349   C353    1.419   .     A
C350   Cl408   1.772   .     S
C350   C354    1.419   .     A
C351   O378    1.277   .     A
C351   O375    1.278   .     A
C351   C355    1.364   .     S
C352   O376    1.278   .     A
C352   C356    1.364   .     S
C352   O377    1.277   .     A
C353   C490    1.545   1_545 S
C354   C489    1.545   .     S
C356   C627    1.164   .     S
C357   Cl385   1.775   .     S
C357   C367    1.406   .     A
C357   C361    1.400   .     A
C358   Cl386   1.775   .     S
C358   C368    1.406   .     A
C358   C362    1.400   .     A
C359   C368    1.406   .     A
C359   Cl387   1.775   .     S
C359   C363    1.401   .     A
C360   C367    1.406   .     A
C360   Cl388   1.775   .     S
C360   C364    1.401   .     A
C361   C389    1.486   .     S
C361   C365    1.421   .     A
C362   C393    1.486   .     S
C362   C366    1.421   .     A
C363   C366    1.420   .     A
C363   C397    1.486   .     S
C364   C401    1.486   .     S
C364   C365    1.420   .     A
C368   C299    1.492   1_655 S
N369   Zn380   2.014   .     S
N370   Zn379   2.014   .     S
O371   Zn379   1.955   .     S
O372   Zn380   1.955   .     S
O373   Zn379   1.958   .     S
O374   Zn380   1.958   .     S
O375   Zn379   1.949   .     S
O376   Zn380   1.949   .     S
O377   Zn379   1.946   .     S
O378   Zn380   1.946   .     S
C389   O390    1.223   .     D
C389   O391    1.399   .     S
O391   H392    1.014   .     S
C393   O394    1.223   .     D
C393   O395    1.399   .     S
O395   H396    1.014   .     S
C397   O398    1.223   .     D
C397   O399    1.399   .     S
O399   H400    1.014   .     S
C401   O402    1.223   .     D
C401   O403    1.399   .     S
O403   H404    1.014   .     S
C409   O442    1.298   .     A
C409   C433    1.475   .     S
C409   O439    1.297   .     A
C410   C434    1.475   .     S
C410   O440    1.297   .     A
C410   O441    1.298   .     A
C411   N437    1.368   .     A
C411   Cl449   1.760   .     S
C411   C415    1.413   .     A
C412   C416    1.413   .     A
C412   Cl450   1.760   .     S
C412   N438    1.368   .     A
C413   Cl451   1.759   .     S
C413   N437    1.368   .     A
C413   C417    1.412   .     A
C414   N438    1.368   .     A
C414   C418    1.412   .     A
C414   Cl452   1.759   .     S
C415   Cl473   1.772   .     S
C415   C421    1.420   .     A
C416   Cl474   1.772   .     S
C416   C422    1.420   .     A
C417   Cl475   1.772   .     S
C417   C421    1.419   .     A
C418   Cl476   1.772   .     S
C418   C422    1.419   .     A
C419   O446    1.277   .     A
C419   O443    1.278   .     A
C419   C423    1.364   .     S
C420   O444    1.278   .     A
C420   C424    1.364   .     S
C420   O445    1.277   .     A
C422   C285    1.545   1_565 S
C424   C695    1.164   .     S
C425   Cl453   1.775   .     S
C425   C435    1.406   .     A
C425   C429    1.400   .     A
C426   Cl454   1.775   .     S
C426   C436    1.406   .     A
C426   C430    1.400   .     A
C427   C436    1.406   .     A
C427   Cl455   1.775   .     S
C427   C431    1.401   .     A
C428   C435    1.406   .     A
C428   Cl456   1.775   .     S
C428   C432    1.401   .     A
C429   C457    1.486   .     S
C429   C433    1.421   .     A
C430   C461    1.486   .     S
C430   C434    1.421   .     A
C431   C434    1.420   .     A
C431   C465    1.486   .     S
C432   C469    1.486   .     S
C432   C433    1.420   .     A
C435   C504    1.492   1_455 S
C436   C503    1.492   .     S
N437   Zn448   2.014   .     S
N438   Zn447   2.014   .     S
O439   Zn447   1.955   .     S
O440   Zn448   1.955   .     S
O441   Zn447   1.958   .     S
O442   Zn448   1.958   .     S
O443   Zn447   1.949   .     S
O444   Zn448   1.949   .     S
O445   Zn447   1.946   .     S
O446   Zn448   1.946   .     S
C457   O458    1.223   .     D
C457   O459    1.399   .     S
O459   H460    1.014   .     S
C461   O462    1.223   .     D
C461   O463    1.399   .     S
O463   H464    1.014   .     S
C465   O466    1.223   .     D
C465   O467    1.399   .     S
O467   H468    1.014   .     S
C469   O470    1.223   .     D
C469   O471    1.399   .     S
O471   H472    1.014   .     S
C477   O510    1.298   .     A
C477   C501    1.475   .     S
C477   O507    1.297   .     A
C478   C502    1.475   .     S
C478   O508    1.297   .     A
C478   O509    1.298   .     A
C479   N505    1.368   .     A
C479   Cl517   1.760   .     S
C479   C483    1.413   .     A
C480   C484    1.413   .     A
C480   Cl518   1.760   .     S
C480   N506    1.368   .     A
C481   Cl519   1.759   .     S
C481   N505    1.368   .     A
C481   C485    1.412   .     A
C482   N506    1.368   .     A
C482   C486    1.412   .     A
C482   Cl520   1.759   .     S
C483   Cl541   1.772   .     S
C483   C489    1.420   .     A
C484   Cl542   1.772   .     S
C484   C490    1.420   .     A
C485   Cl543   1.772   .     S
C485   C489    1.419   .     A
C486   Cl544   1.772   .     S
C486   C490    1.419   .     A
C487   O514    1.277   .     A
C487   O511    1.278   .     A
C487   C491    1.364   .     S
C488   O512    1.278   .     A
C488   C492    1.364   .     S
C488   O513    1.277   .     A
C490   C353    1.545   1_565 S
C492   C763    1.164   .     S
C493   Cl521   1.775   .     S
C493   C503    1.406   .     A
C493   C497    1.400   .     A
C494   Cl522   1.775   .     S
C494   C504    1.406   .     A
C494   C498    1.400   .     A
C495   C504    1.406   .     A
C495   Cl523   1.775   .     S
C495   C499    1.401   .     A
C496   C503    1.406   .     A
C496   Cl524   1.775   .     S
C496   C500    1.401   .     A
C497   C525    1.486   .     S
C497   C501    1.421   .     A
C498   C529    1.486   .     S
C498   C502    1.421   .     A
C499   C502    1.420   .     A
C499   C533    1.486   .     S
C500   C537    1.486   .     S
C500   C501    1.420   .     A
C504   C435    1.492   1_655 S
N505   Zn516   2.014   .     S
N506   Zn515   2.014   .     S
O507   Zn515   1.955   .     S
O508   Zn516   1.955   .     S
O509   Zn515   1.958   .     S
O510   Zn516   1.958   .     S
O511   Zn515   1.949   .     S
O512   Zn516   1.949   .     S
O513   Zn515   1.946   .     S
O514   Zn516   1.946   .     S
C525   O526    1.223   .     D
C525   O527    1.399   .     S
O527   H528    1.014   .     S
C529   O530    1.223   .     D
C529   O531    1.399   .     S
O531   H532    1.014   .     S
C533   O534    1.223   .     D
C533   O535    1.399   .     S
O535   H536    1.014   .     S
C537   O538    1.223   .     D
C537   O539    1.399   .     S
O539   H540    1.014   .     S
C545   O578    1.298   .     A
C545   C569    1.475   .     S
C545   O575    1.297   .     A
C546   C570    1.475   .     S
C546   O576    1.297   .     A
C546   O577    1.298   .     A
C547   N573    1.368   .     A
C547   Cl585   1.760   .     S
C547   C551    1.413   .     A
C548   C552    1.413   .     A
C548   Cl586   1.760   .     S
C548   N574    1.368   .     A
C549   Cl587   1.759   .     S
C549   N573    1.368   .     A
C549   C553    1.412   .     A
C550   N574    1.368   .     A
C550   C554    1.412   .     A
C550   Cl588   1.759   .     S
C551   Cl609   1.772   .     S
C551   C557    1.420   .     A
C552   Cl610   1.772   .     S
C552   C558    1.420   .     A
C553   Cl611   1.772   .     S
C553   C557    1.419   .     A
C554   Cl612   1.772   .     S
C554   C558    1.419   .     A
C555   O582    1.277   .     A
C555   O579    1.278   .     A
C555   C559    1.364   .     S
C556   O580    1.278   .     A
C556   C560    1.364   .     S
C556   O581    1.277   .     A
C557   C694    1.545   1_545 S
C558   C693    1.545   .     S
C560   C15     1.164   1_556 S
C561   Cl589   1.775   .     S
C561   C571    1.406   .     A
C561   C565    1.400   .     A
C562   Cl590   1.775   .     S
C562   C572    1.406   .     A
C562   C566    1.400   .     A
C563   C572    1.406   .     A
C563   Cl591   1.775   .     S
C563   C567    1.401   .     A
C564   C571    1.406   .     A
C564   Cl592   1.775   .     S
C564   C568    1.401   .     A
C565   C593    1.486   .     S
C565   C569    1.421   .     A
C566   C597    1.486   .     S
C566   C570    1.421   .     A
C567   C570    1.420   .     A
C567   C601    1.486   .     S
C568   C605    1.486   .     S
C568   C569    1.420   .     A
C571   C640    1.492   1_455 S
C572   C639    1.492   .     S
N573   Zn584   2.014   .     S
N574   Zn583   2.014   .     S
O575   Zn583   1.955   .     S
O576   Zn584   1.955   .     S
O577   Zn583   1.958   .     S
O578   Zn584   1.958   .     S
O579   Zn583   1.949   .     S
O580   Zn584   1.949   .     S
O581   Zn583   1.946   .     S
O582   Zn584   1.946   .     S
C593   O594    1.223   .     D
C593   O595    1.399   .     S
O595   H596    1.014   .     S
C597   O598    1.223   .     D
C597   O599    1.399   .     S
O599   H600    1.014   .     S
C601   O602    1.223   .     D
C601   O603    1.399   .     S
O603   H604    1.014   .     S
C605   O606    1.223   .     D
C605   O607    1.399   .     S
O607   H608    1.014   .     S
C613   O646    1.298   .     A
C613   C637    1.475   .     S
C613   O643    1.297   .     A
C614   C638    1.475   .     S
C614   O644    1.297   .     A
C614   O645    1.298   .     A
C615   N641    1.368   .     A
C615   Cl653   1.760   .     S
C615   C619    1.413   .     A
C616   C620    1.413   .     A
C616   Cl654   1.760   .     S
C616   N642    1.368   .     A
C617   Cl655   1.759   .     S
C617   N641    1.368   .     A
C617   C621    1.412   .     A
C618   N642    1.368   .     A
C618   C622    1.412   .     A
C618   Cl656   1.759   .     S
C619   Cl677   1.772   .     S
C619   C625    1.420   .     A
C620   Cl678   1.772   .     S
C620   C626    1.420   .     A
C621   Cl679   1.772   .     S
C621   C625    1.419   .     A
C622   Cl680   1.772   .     S
C622   C626    1.419   .     A
C623   O650    1.277   .     A
C623   O647    1.278   .     A
C623   C627    1.364   .     S
C624   O648    1.278   .     A
C624   C628    1.364   .     S
C624   O649    1.277   .     A
C625   C762    1.545   1_545 S
C626   C761    1.545   .     S
C628   C83     1.164   1_556 S
C629   Cl657   1.775   .     S
C629   C639    1.406   .     A
C629   C633    1.400   .     A
C630   Cl658   1.775   .     S
C630   C640    1.406   .     A
C630   C634    1.400   .     A
C631   C640    1.406   .     A
C631   Cl659   1.775   .     S
C631   C635    1.401   .     A
C632   C639    1.406   .     A
C632   Cl660   1.775   .     S
C632   C636    1.401   .     A
C633   C661    1.486   .     S
C633   C637    1.421   .     A
C634   C665    1.486   .     S
C634   C638    1.421   .     A
C635   C638    1.420   .     A
C635   C669    1.486   .     S
C636   C673    1.486   .     S
C636   C637    1.420   .     A
C640   C571    1.492   1_655 S
N641   Zn652   2.014   .     S
N642   Zn651   2.014   .     S
O643   Zn651   1.955   .     S
O644   Zn652   1.955   .     S
O645   Zn651   1.958   .     S
O646   Zn652   1.958   .     S
O647   Zn651   1.949   .     S
O648   Zn652   1.949   .     S
O649   Zn651   1.946   .     S
O650   Zn652   1.946   .     S
C661   O662    1.223   .     D
C661   O663    1.399   .     S
O663   H664    1.014   .     S
C665   O666    1.223   .     D
C665   O667    1.399   .     S
O667   H668    1.014   .     S
C669   O670    1.223   .     D
C669   O671    1.399   .     S
O671   H672    1.014   .     S
C673   O674    1.223   .     D
C673   O675    1.399   .     S
O675   H676    1.014   .     S
C681   O714    1.298   .     A
C681   C705    1.475   .     S
C681   O711    1.297   .     A
C682   C706    1.475   .     S
C682   O712    1.297   .     A
C682   O713    1.298   .     A
C683   N709    1.368   .     A
C683   Cl721   1.760   .     S
C683   C687    1.413   .     A
C684   C688    1.413   .     A
C684   Cl722   1.760   .     S
C684   N710    1.368   .     A
C685   Cl723   1.759   .     S
C685   N709    1.368   .     A
C685   C689    1.412   .     A
C686   N710    1.368   .     A
C686   C690    1.412   .     A
C686   Cl724   1.759   .     S
C687   Cl745   1.772   .     S
C687   C693    1.420   .     A
C688   Cl746   1.772   .     S
C688   C694    1.420   .     A
C689   Cl747   1.772   .     S
C689   C693    1.419   .     A
C690   Cl748   1.772   .     S
C690   C694    1.419   .     A
C691   O718    1.277   .     A
C691   O715    1.278   .     A
C691   C695    1.364   .     S
C692   O716    1.278   .     A
C692   C696    1.364   .     S
C692   O717    1.277   .     A
C694   C557    1.545   1_565 S
C696   C151    1.164   1_556 S
C697   Cl725   1.775   .     S
C697   C707    1.406   .     A
C697   C701    1.400   .     A
C698   Cl726   1.775   .     S
C698   C708    1.406   .     A
C698   C702    1.400   .     A
C699   C708    1.406   .     A
C699   Cl727   1.775   .     S
C699   C703    1.401   .     A
C700   C707    1.406   .     A
C700   Cl728   1.775   .     S
C700   C704    1.401   .     A
C701   C729    1.486   .     S
C701   C705    1.421   .     A
C702   C733    1.486   .     S
C702   C706    1.421   .     A
C703   C706    1.420   .     A
C703   C737    1.486   .     S
C704   C741    1.486   .     S
C704   C705    1.420   .     A
C707   C776    1.492   1_455 S
C708   C775    1.492   .     S
N709   Zn720   2.014   .     S
N710   Zn719   2.014   .     S
O711   Zn719   1.955   .     S
O712   Zn720   1.955   .     S
O713   Zn719   1.958   .     S
O714   Zn720   1.958   .     S
O715   Zn719   1.949   .     S
O716   Zn720   1.949   .     S
O717   Zn719   1.946   .     S
O718   Zn720   1.946   .     S
C729   O730    1.223   .     D
C729   O731    1.399   .     S
O731   H732    1.014   .     S
C733   O734    1.223   .     D
C733   O735    1.399   .     S
O735   H736    1.014   .     S
C737   O738    1.223   .     D
C737   O739    1.399   .     S
O739   H740    1.014   .     S
C741   O742    1.223   .     D
C741   O743    1.399   .     S
O743   H744    1.014   .     S
C749   O782    1.298   .     A
C749   C773    1.475   .     S
C749   O779    1.297   .     A
C750   C774    1.475   .     S
C750   O780    1.297   .     A
C750   O781    1.298   .     A
C751   N777    1.368   .     A
C751   Cl789   1.760   .     S
C751   C755    1.413   .     A
C752   C756    1.413   .     A
C752   Cl790   1.760   .     S
C752   N778    1.368   .     A
C753   Cl791   1.759   .     S
C753   N777    1.368   .     A
C753   C757    1.412   .     A
C754   N778    1.368   .     A
C754   C758    1.412   .     A
C754   Cl792   1.759   .     S
C755   Cl813   1.772   .     S
C755   C761    1.420   .     A
C756   Cl814   1.772   .     S
C756   C762    1.420   .     A
C757   Cl815   1.772   .     S
C757   C761    1.419   .     A
C758   Cl816   1.772   .     S
C758   C762    1.419   .     A
C759   O786    1.277   .     A
C759   O783    1.278   .     A
C759   C763    1.364   .     S
C760   O784    1.278   .     A
C760   C764    1.364   .     S
C760   O785    1.277   .     A
C762   C625    1.545   1_565 S
C764   C219    1.164   1_556 S
C765   Cl793   1.775   .     S
C765   C775    1.406   .     A
C765   C769    1.400   .     A
C766   Cl794   1.775   .     S
C766   C776    1.406   .     A
C766   C770    1.400   .     A
C767   C776    1.406   .     A
C767   Cl795   1.775   .     S
C767   C771    1.401   .     A
C768   C775    1.406   .     A
C768   Cl796   1.775   .     S
C768   C772    1.401   .     A
C769   C797    1.486   .     S
C769   C773    1.421   .     A
C770   C801    1.486   .     S
C770   C774    1.421   .     A
C771   C774    1.420   .     A
C771   C805    1.486   .     S
C772   C809    1.486   .     S
C772   C773    1.420   .     A
C776   C707    1.492   1_655 S
N777   Zn788   2.014   .     S
N778   Zn787   2.014   .     S
O779   Zn787   1.955   .     S
O780   Zn788   1.955   .     S
O781   Zn787   1.958   .     S
O782   Zn788   1.958   .     S
O783   Zn787   1.949   .     S
O784   Zn788   1.949   .     S
O785   Zn787   1.946   .     S
O786   Zn788   1.946   .     S
C797   O798    1.223   .     D
C797   O799    1.399   .     S
O799   H800    1.014   .     S
C801   O802    1.223   .     D
C801   O803    1.399   .     S
O803   H804    1.014   .     S
C805   O806    1.223   .     D
C805   O807    1.399   .     S
O807   H808    1.014   .     S
C809   O810    1.223   .     D
C809   O811    1.399   .     S
O811   H812    1.014   .     S
