data_str_m3_o1_o10_pcu_sym.130
_audit_creation_date              2020-01-03
_audit_creation_method            'Materials Studio'
_symmetry_space_group_name_H-M    'P1'
_symmetry_Int_Tables_number       1
_symmetry_cell_setting            triclinic
loop_
_symmetry_equiv_pos_as_xyz
  x,y,z
_cell_length_a                    25.7444
_cell_length_b                    32.1420
_cell_length_c                    29.5751
_cell_angle_alpha                 90.0012
_cell_angle_beta                  99.1740
_cell_angle_gamma                 89.9646
loop_
_atom_site_label
_atom_site_type_symbol
_atom_site_fract_x
_atom_site_fract_y
_atom_site_fract_z
_atom_site_U_iso_or_equiv
_atom_site_adp_type
_atom_site_occupancy
C1     C     0.16653   0.08664   0.16662   0.00000  Uiso   1.00
C2     C     0.16664   0.24669   0.16668   0.00000  Uiso   1.00
C3     C     0.06698   0.16659   0.15456   0.00000  Uiso   1.00
C4     C     0.26635   0.16651   0.17872   0.00000  Uiso   1.00
C5     C     0.01181   0.16666   0.14805   0.00000  Uiso   1.00
C6     C     0.32151   0.16598   0.18502   0.00000  Uiso   1.00
C7     C     0.17606   0.02130   0.12752   0.00000  Uiso   1.00
C8     C     0.15656   0.31204   0.20562   0.00000  Uiso   1.00
C9     C     0.17615   0.31203   0.12756   0.00000  Uiso   1.00
C10    C     0.15646   0.02132   0.20558   0.00000  Uiso   1.00
C11    C     0.16647   0.29085   0.16663   0.00000  Uiso   1.00
C12    C     0.16632   0.04249   0.16657   0.00000  Uiso   1.00
C13    C     0.20538   0.18642   0.02953   0.00000  Uiso   1.00
C14    C     0.12746   0.14742   0.30385   0.00000  Uiso   1.00
C15    C     0.20676   0.18530   0.31487   0.00000  Uiso   1.00
C16    C     0.12802   0.14627   0.01880   0.00000  Uiso   1.00
H17    H     0.32418   0.16751   0.11306   0.00000  Uiso   1.00
H18    H     0.00929   0.16494   0.21985   0.00000  Uiso   1.00
H19    H     0.18398   0.03751   0.09722   0.00000  Uiso   1.00
H20    H     0.14863   0.29582   0.23592   0.00000  Uiso   1.00
H21    H     0.18414   0.29580   0.09728   0.00000  Uiso   1.00
H22    H     0.14845   0.03756   0.23585   0.00000  Uiso   1.00
H23    H     0.23543   0.20290   0.05233   0.00000  Uiso   1.00
H24    H     0.09575   0.13286   0.28096   0.00000  Uiso   1.00
N25    N     0.16665   0.16666   0.28573   0.00000  Uiso   1.00
N26    N     0.16668   0.16668   0.04760   0.00000  Uiso   1.00
O27    O     0.16666   0.10558   0.20487   0.00000  Uiso   1.00
O28    O     0.16667   0.22775   0.12846   0.00000  Uiso   1.00
O29    O     0.16666   0.10559   0.12843   0.00000  Uiso   1.00
O30    O     0.16667   0.22774   0.20490   0.00000  Uiso   1.00
O31    O     0.09058   0.16666   0.19595   0.00000  Uiso   1.00
O32    O     0.24275   0.16667   0.13739   0.00000  Uiso   1.00
O33    O     0.09058   0.16667   0.11950   0.00000  Uiso   1.00
O34    O     0.24275   0.16666   0.21383   0.00000  Uiso   1.00
Zn35   Zn    0.16667   0.16666   0.21771   0.00000  Uiso   1.00
Zn36   Zn    0.16667   0.16667   0.11563   0.00000  Uiso   1.00
O37    O     0.24617   0.20555   0.29658   0.00000  Uiso   1.00
C38    C     0.29692   0.19221   0.31759   0.00000  Uiso   1.00
H39    H     0.31791   0.17980   0.29058   0.00000  Uiso   1.00
H40    H     0.29728   0.16664   0.00984   0.00000  Uiso   1.00
C41    C     0.32823   0.22904   0.00657   0.00000  Uiso   1.00
H42    H     0.30882   0.24227   0.03425   0.00000  Uiso   1.00
H43    H     0.03519   0.21872   0.02151   0.00000  Uiso   1.00
H44    H     0.33118   0.25353   0.31394   0.00000  Uiso   1.00
O45    O     0.08735   0.12806   0.03717   0.00000  Uiso   1.00
C46    C     0.08073   0.08566   0.02452   0.00000  Uiso   1.00
H47    H     0.08554   0.06678   0.05637   0.00000  Uiso   1.00
H48    H     0.10984   0.07334   0.00365   0.00000  Uiso   1.00
C49    C     0.02521   0.07882   0.33226   0.00000  Uiso   1.00
H50    H     0.01875   0.09742   0.30023   0.00000  Uiso   1.00
H51    H     0.01940   0.04539   0.32340   0.00000  Uiso   1.00
H52    H     0.32925   0.08829   0.02076   0.00000  Uiso   1.00
C53    C     0.49986   0.08664   0.16662   0.00000  Uiso   1.00
C54    C     0.49997   0.24669   0.16668   0.00000  Uiso   1.00
C55    C     0.40032   0.16659   0.15456   0.00000  Uiso   1.00
C56    C     0.59968   0.16651   0.17872   0.00000  Uiso   1.00
C57    C     0.34514   0.16666   0.14805   0.00000  Uiso   1.00
C58    C     0.65485   0.16598   0.18502   0.00000  Uiso   1.00
C59    C     0.50939   0.02130   0.12752   0.00000  Uiso   1.00
C60    C     0.48989   0.31204   0.20562   0.00000  Uiso   1.00
C61    C     0.50948   0.31203   0.12756   0.00000  Uiso   1.00
C62    C     0.48979   0.02132   0.20558   0.00000  Uiso   1.00
C63    C     0.49980   0.29085   0.16663   0.00000  Uiso   1.00
C64    C     0.49965   0.04249   0.16657   0.00000  Uiso   1.00
C65    C     0.53871   0.18642   0.02953   0.00000  Uiso   1.00
C66    C     0.46079   0.14742   0.30385   0.00000  Uiso   1.00
C67    C     0.54009   0.18530   0.31487   0.00000  Uiso   1.00
C68    C     0.46136   0.14627   0.01880   0.00000  Uiso   1.00
H69    H     0.65751   0.16751   0.11306   0.00000  Uiso   1.00
H70    H     0.34263   0.16494   0.21985   0.00000  Uiso   1.00
H71    H     0.51732   0.03751   0.09722   0.00000  Uiso   1.00
H72    H     0.48197   0.29582   0.23592   0.00000  Uiso   1.00
H73    H     0.51747   0.29580   0.09728   0.00000  Uiso   1.00
H74    H     0.48179   0.03756   0.23585   0.00000  Uiso   1.00
H75    H     0.56876   0.20290   0.05233   0.00000  Uiso   1.00
H76    H     0.42908   0.13286   0.28096   0.00000  Uiso   1.00
N77    N     0.49999   0.16666   0.28573   0.00000  Uiso   1.00
N78    N     0.50001   0.16668   0.04760   0.00000  Uiso   1.00
O79    O     0.50000   0.10558   0.20487   0.00000  Uiso   1.00
O80    O     0.50000   0.22775   0.12846   0.00000  Uiso   1.00
O81    O     0.50000   0.10559   0.12843   0.00000  Uiso   1.00
O82    O     0.50000   0.22774   0.20490   0.00000  Uiso   1.00
O83    O     0.42392   0.16666   0.19595   0.00000  Uiso   1.00
O84    O     0.57608   0.16667   0.13739   0.00000  Uiso   1.00
O85    O     0.42392   0.16667   0.11950   0.00000  Uiso   1.00
O86    O     0.57608   0.16666   0.21383   0.00000  Uiso   1.00
Zn87   Zn    0.50000   0.16666   0.21771   0.00000  Uiso   1.00
Zn88   Zn    0.50000   0.16667   0.11563   0.00000  Uiso   1.00
O89    O     0.57950   0.20555   0.29658   0.00000  Uiso   1.00
C90    C     0.63025   0.19221   0.31759   0.00000  Uiso   1.00
H91    H     0.65124   0.17980   0.29058   0.00000  Uiso   1.00
H92    H     0.63061   0.16664   0.00984   0.00000  Uiso   1.00
C93    C     0.66157   0.22904   0.00657   0.00000  Uiso   1.00
H94    H     0.64215   0.24227   0.03425   0.00000  Uiso   1.00
H95    H     0.36852   0.21872   0.02151   0.00000  Uiso   1.00
H96    H     0.66451   0.25353   0.31394   0.00000  Uiso   1.00
O97    O     0.42068   0.12806   0.03717   0.00000  Uiso   1.00
C98    C     0.41406   0.08566   0.02452   0.00000  Uiso   1.00
H99    H     0.41887   0.06678   0.05637   0.00000  Uiso   1.00
H100   H     0.44317   0.07334   0.00365   0.00000  Uiso   1.00
C101   C     0.35855   0.07882   0.33226   0.00000  Uiso   1.00
H102   H     0.35208   0.09742   0.30023   0.00000  Uiso   1.00
H103   H     0.35273   0.04539   0.32340   0.00000  Uiso   1.00
H104   H     0.66258   0.08829   0.02076   0.00000  Uiso   1.00
C105   C     0.83320   0.08664   0.16662   0.00000  Uiso   1.00
C106   C     0.83331   0.24669   0.16668   0.00000  Uiso   1.00
C107   C     0.73365   0.16659   0.15456   0.00000  Uiso   1.00
C108   C     0.93301   0.16651   0.17872   0.00000  Uiso   1.00
C109   C     0.67847   0.16666   0.14805   0.00000  Uiso   1.00
C110   C     0.98818   0.16598   0.18502   0.00000  Uiso   1.00
C111   C     0.84273   0.02130   0.12752   0.00000  Uiso   1.00
C112   C     0.82323   0.31204   0.20562   0.00000  Uiso   1.00
C113   C     0.84281   0.31203   0.12756   0.00000  Uiso   1.00
C114   C     0.82313   0.02132   0.20558   0.00000  Uiso   1.00
C115   C     0.83313   0.29085   0.16663   0.00000  Uiso   1.00
C116   C     0.83298   0.04249   0.16657   0.00000  Uiso   1.00
C117   C     0.87205   0.18642   0.02953   0.00000  Uiso   1.00
C118   C     0.79413   0.14742   0.30385   0.00000  Uiso   1.00
C119   C     0.87342   0.18530   0.31487   0.00000  Uiso   1.00
C120   C     0.79469   0.14627   0.01880   0.00000  Uiso   1.00
H121   H     0.99085   0.16751   0.11306   0.00000  Uiso   1.00
H122   H     0.67596   0.16494   0.21985   0.00000  Uiso   1.00
H123   H     0.85065   0.03751   0.09722   0.00000  Uiso   1.00
H124   H     0.81530   0.29582   0.23592   0.00000  Uiso   1.00
H125   H     0.85080   0.29580   0.09728   0.00000  Uiso   1.00
H126   H     0.81512   0.03756   0.23585   0.00000  Uiso   1.00
H127   H     0.90210   0.20290   0.05233   0.00000  Uiso   1.00
H128   H     0.76241   0.13286   0.28096   0.00000  Uiso   1.00
N129   N     0.83332   0.16666   0.28573   0.00000  Uiso   1.00
N130   N     0.83335   0.16668   0.04760   0.00000  Uiso   1.00
O131   O     0.83333   0.10558   0.20487   0.00000  Uiso   1.00
O132   O     0.83334   0.22775   0.12846   0.00000  Uiso   1.00
O133   O     0.83333   0.10559   0.12843   0.00000  Uiso   1.00
O134   O     0.83334   0.22774   0.20490   0.00000  Uiso   1.00
O135   O     0.75725   0.16666   0.19595   0.00000  Uiso   1.00
O136   O     0.90942   0.16667   0.13739   0.00000  Uiso   1.00
O137   O     0.75725   0.16667   0.11950   0.00000  Uiso   1.00
O138   O     0.90942   0.16666   0.21383   0.00000  Uiso   1.00
Zn139  Zn    0.83333   0.16666   0.21771   0.00000  Uiso   1.00
Zn140  Zn    0.83333   0.16667   0.11563   0.00000  Uiso   1.00
O141   O     0.91283   0.20555   0.29658   0.00000  Uiso   1.00
C142   C     0.96358   0.19221   0.31759   0.00000  Uiso   1.00
H143   H     0.98458   0.17980   0.29058   0.00000  Uiso   1.00
H144   H     0.96395   0.16664   0.00984   0.00000  Uiso   1.00
C145   C     0.99490   0.22904   0.00657   0.00000  Uiso   1.00
H146   H     0.97548   0.24227   0.03425   0.00000  Uiso   1.00
H147   H     0.70185   0.21872   0.02151   0.00000  Uiso   1.00
H148   H     0.99785   0.25353   0.31394   0.00000  Uiso   1.00
O149   O     0.75401   0.12806   0.03717   0.00000  Uiso   1.00
C150   C     0.74740   0.08566   0.02452   0.00000  Uiso   1.00
H151   H     0.75220   0.06678   0.05637   0.00000  Uiso   1.00
H152   H     0.77650   0.07334   0.00365   0.00000  Uiso   1.00
C153   C     0.69188   0.07882   0.33226   0.00000  Uiso   1.00
H154   H     0.68541   0.09742   0.30023   0.00000  Uiso   1.00
H155   H     0.68606   0.04539   0.32340   0.00000  Uiso   1.00
H156   H     0.99592   0.08829   0.02076   0.00000  Uiso   1.00
C157   C     0.16653   0.41998   0.16662   0.00000  Uiso   1.00
C158   C     0.16664   0.58002   0.16668   0.00000  Uiso   1.00
C159   C     0.06698   0.49992   0.15456   0.00000  Uiso   1.00
C160   C     0.26635   0.49985   0.17872   0.00000  Uiso   1.00
C161   C     0.01181   0.50000   0.14805   0.00000  Uiso   1.00
C162   C     0.32151   0.49932   0.18502   0.00000  Uiso   1.00
C163   C     0.17606   0.35464   0.12752   0.00000  Uiso   1.00
C164   C     0.15656   0.64537   0.20562   0.00000  Uiso   1.00
C165   C     0.17615   0.64536   0.12756   0.00000  Uiso   1.00
C166   C     0.15646   0.35466   0.20558   0.00000  Uiso   1.00
C167   C     0.16647   0.62419   0.16663   0.00000  Uiso   1.00
C168   C     0.16632   0.37582   0.16657   0.00000  Uiso   1.00
C169   C     0.20538   0.51976   0.02953   0.00000  Uiso   1.00
C170   C     0.12746   0.48075   0.30385   0.00000  Uiso   1.00
C171   C     0.20676   0.51864   0.31487   0.00000  Uiso   1.00
C172   C     0.12802   0.47961   0.01880   0.00000  Uiso   1.00
H173   H     0.32418   0.50084   0.11306   0.00000  Uiso   1.00
H174   H     0.00929   0.49828   0.21985   0.00000  Uiso   1.00
H175   H     0.18398   0.37084   0.09722   0.00000  Uiso   1.00
H176   H     0.14863   0.62916   0.23592   0.00000  Uiso   1.00
H177   H     0.18414   0.62914   0.09728   0.00000  Uiso   1.00
H178   H     0.14845   0.37089   0.23585   0.00000  Uiso   1.00
H179   H     0.23543   0.53623   0.05233   0.00000  Uiso   1.00
H180   H     0.09575   0.46619   0.28096   0.00000  Uiso   1.00
N181   N     0.16665   0.49999   0.28573   0.00000  Uiso   1.00
N182   N     0.16668   0.50001   0.04760   0.00000  Uiso   1.00
O183   O     0.16666   0.43892   0.20487   0.00000  Uiso   1.00
O184   O     0.16667   0.56108   0.12846   0.00000  Uiso   1.00
O185   O     0.16666   0.43893   0.12843   0.00000  Uiso   1.00
O186   O     0.16667   0.56107   0.20490   0.00000  Uiso   1.00
O187   O     0.09058   0.50000   0.19595   0.00000  Uiso   1.00
O188   O     0.24275   0.50000   0.13739   0.00000  Uiso   1.00
O189   O     0.09058   0.50000   0.11950   0.00000  Uiso   1.00
O190   O     0.24275   0.50000   0.21383   0.00000  Uiso   1.00
Zn191  Zn    0.16667   0.49999   0.21771   0.00000  Uiso   1.00
Zn192  Zn    0.16667   0.50001   0.11563   0.00000  Uiso   1.00
O193   O     0.24617   0.53888   0.29658   0.00000  Uiso   1.00
C194   C     0.29692   0.52554   0.31759   0.00000  Uiso   1.00
H195   H     0.31791   0.51313   0.29058   0.00000  Uiso   1.00
H196   H     0.29728   0.49998   0.00984   0.00000  Uiso   1.00
C197   C     0.32823   0.56237   0.00657   0.00000  Uiso   1.00
H198   H     0.30882   0.57560   0.03425   0.00000  Uiso   1.00
H199   H     0.03519   0.55205   0.02151   0.00000  Uiso   1.00
H200   H     0.33118   0.58686   0.31394   0.00000  Uiso   1.00
O201   O     0.08735   0.46140   0.03717   0.00000  Uiso   1.00
C202   C     0.08073   0.41899   0.02452   0.00000  Uiso   1.00
H203   H     0.08554   0.40011   0.05637   0.00000  Uiso   1.00
H204   H     0.10984   0.40667   0.00365   0.00000  Uiso   1.00
C205   C     0.02521   0.41215   0.33226   0.00000  Uiso   1.00
H206   H     0.01875   0.43076   0.30023   0.00000  Uiso   1.00
H207   H     0.01940   0.37873   0.32340   0.00000  Uiso   1.00
H208   H     0.32925   0.42162   0.02076   0.00000  Uiso   1.00
C209   C     0.49986   0.41998   0.16662   0.00000  Uiso   1.00
C210   C     0.49997   0.58002   0.16668   0.00000  Uiso   1.00
C211   C     0.40032   0.49992   0.15456   0.00000  Uiso   1.00
C212   C     0.59968   0.49985   0.17872   0.00000  Uiso   1.00
C213   C     0.34514   0.50000   0.14805   0.00000  Uiso   1.00
C214   C     0.65485   0.49932   0.18502   0.00000  Uiso   1.00
C215   C     0.50939   0.35464   0.12752   0.00000  Uiso   1.00
C216   C     0.48989   0.64537   0.20562   0.00000  Uiso   1.00
C217   C     0.50948   0.64536   0.12756   0.00000  Uiso   1.00
C218   C     0.48979   0.35466   0.20558   0.00000  Uiso   1.00
C219   C     0.49980   0.62419   0.16663   0.00000  Uiso   1.00
C220   C     0.49965   0.37582   0.16657   0.00000  Uiso   1.00
C221   C     0.53871   0.51976   0.02953   0.00000  Uiso   1.00
C222   C     0.46079   0.48075   0.30385   0.00000  Uiso   1.00
C223   C     0.54009   0.51864   0.31487   0.00000  Uiso   1.00
C224   C     0.46136   0.47961   0.01880   0.00000  Uiso   1.00
H225   H     0.65751   0.50084   0.11306   0.00000  Uiso   1.00
H226   H     0.34263   0.49828   0.21985   0.00000  Uiso   1.00
H227   H     0.51732   0.37084   0.09722   0.00000  Uiso   1.00
H228   H     0.48197   0.62916   0.23592   0.00000  Uiso   1.00
H229   H     0.51747   0.62914   0.09728   0.00000  Uiso   1.00
H230   H     0.48179   0.37089   0.23585   0.00000  Uiso   1.00
H231   H     0.56876   0.53623   0.05233   0.00000  Uiso   1.00
H232   H     0.42908   0.46619   0.28096   0.00000  Uiso   1.00
N233   N     0.49999   0.49999   0.28573   0.00000  Uiso   1.00
N234   N     0.50001   0.50001   0.04760   0.00000  Uiso   1.00
O235   O     0.50000   0.43892   0.20487   0.00000  Uiso   1.00
O236   O     0.50000   0.56108   0.12846   0.00000  Uiso   1.00
O237   O     0.50000   0.43893   0.12843   0.00000  Uiso   1.00
O238   O     0.50000   0.56107   0.20490   0.00000  Uiso   1.00
O239   O     0.42392   0.50000   0.19595   0.00000  Uiso   1.00
O240   O     0.57608   0.50000   0.13739   0.00000  Uiso   1.00
O241   O     0.42392   0.50000   0.11950   0.00000  Uiso   1.00
O242   O     0.57608   0.50000   0.21383   0.00000  Uiso   1.00
Zn243  Zn    0.50000   0.49999   0.21771   0.00000  Uiso   1.00
Zn244  Zn    0.50000   0.50001   0.11563   0.00000  Uiso   1.00
O245   O     0.57950   0.53888   0.29658   0.00000  Uiso   1.00
C246   C     0.63025   0.52554   0.31759   0.00000  Uiso   1.00
H247   H     0.65124   0.51313   0.29058   0.00000  Uiso   1.00
H248   H     0.63061   0.49998   0.00984   0.00000  Uiso   1.00
C249   C     0.66157   0.56237   0.00657   0.00000  Uiso   1.00
H250   H     0.64215   0.57560   0.03425   0.00000  Uiso   1.00
H251   H     0.36852   0.55205   0.02151   0.00000  Uiso   1.00
H252   H     0.66451   0.58686   0.31394   0.00000  Uiso   1.00
O253   O     0.42068   0.46140   0.03717   0.00000  Uiso   1.00
C254   C     0.41406   0.41899   0.02452   0.00000  Uiso   1.00
H255   H     0.41887   0.40011   0.05637   0.00000  Uiso   1.00
H256   H     0.44317   0.40667   0.00365   0.00000  Uiso   1.00
C257   C     0.35855   0.41215   0.33226   0.00000  Uiso   1.00
H258   H     0.35208   0.43076   0.30023   0.00000  Uiso   1.00
H259   H     0.35273   0.37873   0.32340   0.00000  Uiso   1.00
H260   H     0.66258   0.42162   0.02076   0.00000  Uiso   1.00
C261   C     0.83320   0.41998   0.16662   0.00000  Uiso   1.00
C262   C     0.83331   0.58002   0.16668   0.00000  Uiso   1.00
C263   C     0.73365   0.49992   0.15456   0.00000  Uiso   1.00
C264   C     0.93301   0.49985   0.17872   0.00000  Uiso   1.00
C265   C     0.67847   0.50000   0.14805   0.00000  Uiso   1.00
C266   C     0.98818   0.49932   0.18502   0.00000  Uiso   1.00
C267   C     0.84273   0.35464   0.12752   0.00000  Uiso   1.00
C268   C     0.82323   0.64537   0.20562   0.00000  Uiso   1.00
C269   C     0.84281   0.64536   0.12756   0.00000  Uiso   1.00
C270   C     0.82313   0.35466   0.20558   0.00000  Uiso   1.00
C271   C     0.83313   0.62419   0.16663   0.00000  Uiso   1.00
C272   C     0.83298   0.37582   0.16657   0.00000  Uiso   1.00
C273   C     0.87205   0.51976   0.02953   0.00000  Uiso   1.00
C274   C     0.79413   0.48075   0.30385   0.00000  Uiso   1.00
C275   C     0.87342   0.51864   0.31487   0.00000  Uiso   1.00
C276   C     0.79469   0.47961   0.01880   0.00000  Uiso   1.00
H277   H     0.99085   0.50084   0.11306   0.00000  Uiso   1.00
H278   H     0.67596   0.49828   0.21985   0.00000  Uiso   1.00
H279   H     0.85065   0.37084   0.09722   0.00000  Uiso   1.00
H280   H     0.81530   0.62916   0.23592   0.00000  Uiso   1.00
H281   H     0.85080   0.62914   0.09728   0.00000  Uiso   1.00
H282   H     0.81512   0.37089   0.23585   0.00000  Uiso   1.00
H283   H     0.90210   0.53623   0.05233   0.00000  Uiso   1.00
H284   H     0.76241   0.46619   0.28096   0.00000  Uiso   1.00
N285   N     0.83332   0.49999   0.28573   0.00000  Uiso   1.00
N286   N     0.83335   0.50001   0.04760   0.00000  Uiso   1.00
O287   O     0.83333   0.43892   0.20487   0.00000  Uiso   1.00
O288   O     0.83334   0.56108   0.12846   0.00000  Uiso   1.00
O289   O     0.83333   0.43893   0.12843   0.00000  Uiso   1.00
O290   O     0.83334   0.56107   0.20490   0.00000  Uiso   1.00
O291   O     0.75725   0.50000   0.19595   0.00000  Uiso   1.00
O292   O     0.90942   0.50000   0.13739   0.00000  Uiso   1.00
O293   O     0.75725   0.50000   0.11950   0.00000  Uiso   1.00
O294   O     0.90942   0.50000   0.21383   0.00000  Uiso   1.00
Zn295  Zn    0.83333   0.49999   0.21771   0.00000  Uiso   1.00
Zn296  Zn    0.83333   0.50001   0.11563   0.00000  Uiso   1.00
O297   O     0.91283   0.53888   0.29658   0.00000  Uiso   1.00
C298   C     0.96358   0.52554   0.31759   0.00000  Uiso   1.00
H299   H     0.98458   0.51313   0.29058   0.00000  Uiso   1.00
H300   H     0.96395   0.49998   0.00984   0.00000  Uiso   1.00
C301   C     0.99490   0.56237   0.00657   0.00000  Uiso   1.00
H302   H     0.97548   0.57560   0.03425   0.00000  Uiso   1.00
H303   H     0.70185   0.55205   0.02151   0.00000  Uiso   1.00
H304   H     0.99785   0.58686   0.31394   0.00000  Uiso   1.00
O305   O     0.75401   0.46140   0.03717   0.00000  Uiso   1.00
C306   C     0.74740   0.41899   0.02452   0.00000  Uiso   1.00
H307   H     0.75220   0.40011   0.05637   0.00000  Uiso   1.00
H308   H     0.77650   0.40667   0.00365   0.00000  Uiso   1.00
C309   C     0.69188   0.41215   0.33226   0.00000  Uiso   1.00
H310   H     0.68541   0.43076   0.30023   0.00000  Uiso   1.00
H311   H     0.68606   0.37873   0.32340   0.00000  Uiso   1.00
H312   H     0.99592   0.42162   0.02076   0.00000  Uiso   1.00
C313   C     0.16653   0.75331   0.16662   0.00000  Uiso   1.00
C314   C     0.16664   0.91336   0.16668   0.00000  Uiso   1.00
C315   C     0.06698   0.83325   0.15456   0.00000  Uiso   1.00
C316   C     0.26635   0.83318   0.17872   0.00000  Uiso   1.00
C317   C     0.01181   0.83333   0.14805   0.00000  Uiso   1.00
C318   C     0.32151   0.83265   0.18502   0.00000  Uiso   1.00
C319   C     0.17606   0.68797   0.12752   0.00000  Uiso   1.00
C320   C     0.15656   0.97871   0.20562   0.00000  Uiso   1.00
C321   C     0.17615   0.97869   0.12756   0.00000  Uiso   1.00
C322   C     0.15646   0.68799   0.20558   0.00000  Uiso   1.00
C323   C     0.16647   0.95752   0.16663   0.00000  Uiso   1.00
C324   C     0.16632   0.70916   0.16657   0.00000  Uiso   1.00
C325   C     0.20538   0.85309   0.02953   0.00000  Uiso   1.00
C326   C     0.12746   0.81409   0.30385   0.00000  Uiso   1.00
C327   C     0.20676   0.85197   0.31487   0.00000  Uiso   1.00
C328   C     0.12802   0.81294   0.01880   0.00000  Uiso   1.00
H329   H     0.32418   0.83417   0.11306   0.00000  Uiso   1.00
H330   H     0.00929   0.83161   0.21985   0.00000  Uiso   1.00
H331   H     0.18398   0.70418   0.09722   0.00000  Uiso   1.00
H332   H     0.14863   0.96249   0.23592   0.00000  Uiso   1.00
H333   H     0.18414   0.96247   0.09728   0.00000  Uiso   1.00
H334   H     0.14845   0.70422   0.23585   0.00000  Uiso   1.00
H335   H     0.23543   0.86957   0.05233   0.00000  Uiso   1.00
H336   H     0.09575   0.79952   0.28096   0.00000  Uiso   1.00
N337   N     0.16665   0.83332   0.28573   0.00000  Uiso   1.00
N338   N     0.16668   0.83334   0.04760   0.00000  Uiso   1.00
O339   O     0.16666   0.77225   0.20487   0.00000  Uiso   1.00
O340   O     0.16667   0.89442   0.12846   0.00000  Uiso   1.00
O341   O     0.16666   0.77226   0.12843   0.00000  Uiso   1.00
O342   O     0.16667   0.89441   0.20490   0.00000  Uiso   1.00
O343   O     0.09058   0.83333   0.19595   0.00000  Uiso   1.00
O344   O     0.24275   0.83334   0.13739   0.00000  Uiso   1.00
O345   O     0.09058   0.83334   0.11950   0.00000  Uiso   1.00
O346   O     0.24275   0.83333   0.21383   0.00000  Uiso   1.00
Zn347  Zn    0.16667   0.83333   0.21771   0.00000  Uiso   1.00
Zn348  Zn    0.16667   0.83334   0.11563   0.00000  Uiso   1.00
O349   O     0.24617   0.87221   0.29658   0.00000  Uiso   1.00
C350   C     0.29692   0.85887   0.31759   0.00000  Uiso   1.00
H351   H     0.31791   0.84646   0.29058   0.00000  Uiso   1.00
H352   H     0.29728   0.83331   0.00984   0.00000  Uiso   1.00
C353   C     0.32823   0.89570   0.00657   0.00000  Uiso   1.00
H354   H     0.30882   0.90894   0.03425   0.00000  Uiso   1.00
H355   H     0.03519   0.88538   0.02151   0.00000  Uiso   1.00
H356   H     0.33118   0.92020   0.31394   0.00000  Uiso   1.00
O357   O     0.08735   0.79473   0.03717   0.00000  Uiso   1.00
C358   C     0.08073   0.75233   0.02452   0.00000  Uiso   1.00
H359   H     0.08554   0.73345   0.05637   0.00000  Uiso   1.00
H360   H     0.10984   0.74001   0.00365   0.00000  Uiso   1.00
C361   C     0.02521   0.74548   0.33226   0.00000  Uiso   1.00
H362   H     0.01875   0.76409   0.30023   0.00000  Uiso   1.00
H363   H     0.01940   0.71206   0.32340   0.00000  Uiso   1.00
H364   H     0.32925   0.75496   0.02076   0.00000  Uiso   1.00
C365   C     0.49986   0.75331   0.16662   0.00000  Uiso   1.00
C366   C     0.49997   0.91336   0.16668   0.00000  Uiso   1.00
C367   C     0.40032   0.83325   0.15456   0.00000  Uiso   1.00
C368   C     0.59968   0.83318   0.17872   0.00000  Uiso   1.00
C369   C     0.34514   0.83333   0.14805   0.00000  Uiso   1.00
C370   C     0.65485   0.83265   0.18502   0.00000  Uiso   1.00
C371   C     0.50939   0.68797   0.12752   0.00000  Uiso   1.00
C372   C     0.48989   0.97871   0.20562   0.00000  Uiso   1.00
C373   C     0.50948   0.97869   0.12756   0.00000  Uiso   1.00
C374   C     0.48979   0.68799   0.20558   0.00000  Uiso   1.00
C375   C     0.49980   0.95752   0.16663   0.00000  Uiso   1.00
C376   C     0.49965   0.70916   0.16657   0.00000  Uiso   1.00
C377   C     0.53871   0.85309   0.02953   0.00000  Uiso   1.00
C378   C     0.46079   0.81409   0.30385   0.00000  Uiso   1.00
C379   C     0.54009   0.85197   0.31487   0.00000  Uiso   1.00
C380   C     0.46136   0.81294   0.01880   0.00000  Uiso   1.00
H381   H     0.65751   0.83417   0.11306   0.00000  Uiso   1.00
H382   H     0.34263   0.83161   0.21985   0.00000  Uiso   1.00
H383   H     0.51732   0.70418   0.09722   0.00000  Uiso   1.00
H384   H     0.48197   0.96249   0.23592   0.00000  Uiso   1.00
H385   H     0.51747   0.96247   0.09728   0.00000  Uiso   1.00
H386   H     0.48179   0.70422   0.23585   0.00000  Uiso   1.00
H387   H     0.56876   0.86957   0.05233   0.00000  Uiso   1.00
H388   H     0.42908   0.79952   0.28096   0.00000  Uiso   1.00
N389   N     0.49999   0.83332   0.28573   0.00000  Uiso   1.00
N390   N     0.50001   0.83334   0.04760   0.00000  Uiso   1.00
O391   O     0.50000   0.77225   0.20487   0.00000  Uiso   1.00
O392   O     0.50000   0.89442   0.12846   0.00000  Uiso   1.00
O393   O     0.50000   0.77226   0.12843   0.00000  Uiso   1.00
O394   O     0.50000   0.89441   0.20490   0.00000  Uiso   1.00
O395   O     0.42392   0.83333   0.19595   0.00000  Uiso   1.00
O396   O     0.57608   0.83334   0.13739   0.00000  Uiso   1.00
O397   O     0.42392   0.83334   0.11950   0.00000  Uiso   1.00
O398   O     0.57608   0.83333   0.21383   0.00000  Uiso   1.00
Zn399  Zn    0.50000   0.83333   0.21771   0.00000  Uiso   1.00
Zn400  Zn    0.50000   0.83334   0.11563   0.00000  Uiso   1.00
O401   O     0.57950   0.87221   0.29658   0.00000  Uiso   1.00
C402   C     0.63025   0.85887   0.31759   0.00000  Uiso   1.00
H403   H     0.65124   0.84646   0.29058   0.00000  Uiso   1.00
H404   H     0.63061   0.83331   0.00984   0.00000  Uiso   1.00
C405   C     0.66157   0.89570   0.00657   0.00000  Uiso   1.00
H406   H     0.64215   0.90894   0.03425   0.00000  Uiso   1.00
H407   H     0.36852   0.88538   0.02151   0.00000  Uiso   1.00
H408   H     0.66451   0.92020   0.31394   0.00000  Uiso   1.00
O409   O     0.42068   0.79473   0.03717   0.00000  Uiso   1.00
C410   C     0.41406   0.75233   0.02452   0.00000  Uiso   1.00
H411   H     0.41887   0.73345   0.05637   0.00000  Uiso   1.00
H412   H     0.44317   0.74001   0.00365   0.00000  Uiso   1.00
C413   C     0.35855   0.74548   0.33226   0.00000  Uiso   1.00
H414   H     0.35208   0.76409   0.30023   0.00000  Uiso   1.00
H415   H     0.35273   0.71206   0.32340   0.00000  Uiso   1.00
H416   H     0.66258   0.75496   0.02076   0.00000  Uiso   1.00
C417   C     0.83320   0.75331   0.16662   0.00000  Uiso   1.00
C418   C     0.83331   0.91336   0.16668   0.00000  Uiso   1.00
C419   C     0.73365   0.83325   0.15456   0.00000  Uiso   1.00
C420   C     0.93301   0.83318   0.17872   0.00000  Uiso   1.00
C421   C     0.67847   0.83333   0.14805   0.00000  Uiso   1.00
C422   C     0.98818   0.83265   0.18502   0.00000  Uiso   1.00
C423   C     0.84273   0.68797   0.12752   0.00000  Uiso   1.00
C424   C     0.82323   0.97871   0.20562   0.00000  Uiso   1.00
C425   C     0.84281   0.97869   0.12756   0.00000  Uiso   1.00
C426   C     0.82313   0.68799   0.20558   0.00000  Uiso   1.00
C427   C     0.83313   0.95752   0.16663   0.00000  Uiso   1.00
C428   C     0.83298   0.70916   0.16657   0.00000  Uiso   1.00
C429   C     0.87205   0.85309   0.02953   0.00000  Uiso   1.00
C430   C     0.79413   0.81409   0.30385   0.00000  Uiso   1.00
C431   C     0.87342   0.85197   0.31487   0.00000  Uiso   1.00
C432   C     0.79469   0.81294   0.01880   0.00000  Uiso   1.00
H433   H     0.99085   0.83417   0.11306   0.00000  Uiso   1.00
H434   H     0.67596   0.83161   0.21985   0.00000  Uiso   1.00
H435   H     0.85065   0.70418   0.09722   0.00000  Uiso   1.00
H436   H     0.81530   0.96249   0.23592   0.00000  Uiso   1.00
H437   H     0.85080   0.96247   0.09728   0.00000  Uiso   1.00
H438   H     0.81512   0.70422   0.23585   0.00000  Uiso   1.00
H439   H     0.90210   0.86957   0.05233   0.00000  Uiso   1.00
H440   H     0.76241   0.79952   0.28096   0.00000  Uiso   1.00
N441   N     0.83332   0.83332   0.28573   0.00000  Uiso   1.00
N442   N     0.83335   0.83334   0.04760   0.00000  Uiso   1.00
O443   O     0.83333   0.77225   0.20487   0.00000  Uiso   1.00
O444   O     0.83334   0.89442   0.12846   0.00000  Uiso   1.00
O445   O     0.83333   0.77226   0.12843   0.00000  Uiso   1.00
O446   O     0.83334   0.89441   0.20490   0.00000  Uiso   1.00
O447   O     0.75725   0.83333   0.19595   0.00000  Uiso   1.00
O448   O     0.90942   0.83334   0.13739   0.00000  Uiso   1.00
O449   O     0.75725   0.83334   0.11950   0.00000  Uiso   1.00
O450   O     0.90942   0.83333   0.21383   0.00000  Uiso   1.00
Zn451  Zn    0.83333   0.83333   0.21771   0.00000  Uiso   1.00
Zn452  Zn    0.83333   0.83334   0.11563   0.00000  Uiso   1.00
O453   O     0.91283   0.87221   0.29658   0.00000  Uiso   1.00
C454   C     0.96358   0.85887   0.31759   0.00000  Uiso   1.00
H455   H     0.98458   0.84646   0.29058   0.00000  Uiso   1.00
H456   H     0.96395   0.83331   0.00984   0.00000  Uiso   1.00
C457   C     0.99490   0.89570   0.00657   0.00000  Uiso   1.00
H458   H     0.97548   0.90894   0.03425   0.00000  Uiso   1.00
H459   H     0.70185   0.88538   0.02151   0.00000  Uiso   1.00
H460   H     0.99785   0.92020   0.31394   0.00000  Uiso   1.00
O461   O     0.75401   0.79473   0.03717   0.00000  Uiso   1.00
C462   C     0.74740   0.75233   0.02452   0.00000  Uiso   1.00
H463   H     0.75220   0.73345   0.05637   0.00000  Uiso   1.00
H464   H     0.77650   0.74001   0.00365   0.00000  Uiso   1.00
C465   C     0.69188   0.74548   0.33226   0.00000  Uiso   1.00
H466   H     0.68541   0.76409   0.30023   0.00000  Uiso   1.00
H467   H     0.68606   0.71206   0.32340   0.00000  Uiso   1.00
H468   H     0.99592   0.75496   0.02076   0.00000  Uiso   1.00
C469   C     0.16653   0.08664   0.49996   0.00000  Uiso   1.00
C470   C     0.16664   0.24669   0.50001   0.00000  Uiso   1.00
C471   C     0.06698   0.16659   0.48790   0.00000  Uiso   1.00
C472   C     0.26635   0.16651   0.51206   0.00000  Uiso   1.00
C473   C     0.01181   0.16666   0.48138   0.00000  Uiso   1.00
C474   C     0.32151   0.16598   0.51835   0.00000  Uiso   1.00
C475   C     0.17606   0.02130   0.46086   0.00000  Uiso   1.00
C476   C     0.15656   0.31204   0.53895   0.00000  Uiso   1.00
C477   C     0.17615   0.31203   0.46089   0.00000  Uiso   1.00
C478   C     0.15646   0.02132   0.53892   0.00000  Uiso   1.00
C479   C     0.16647   0.29085   0.49996   0.00000  Uiso   1.00
C480   C     0.16632   0.04249   0.49990   0.00000  Uiso   1.00
C481   C     0.20538   0.18642   0.36286   0.00000  Uiso   1.00
C482   C     0.12746   0.14742   0.63718   0.00000  Uiso   1.00
C483   C     0.20676   0.18530   0.64820   0.00000  Uiso   1.00
C484   C     0.12802   0.14627   0.35214   0.00000  Uiso   1.00
H485   H     0.32418   0.16751   0.44640   0.00000  Uiso   1.00
H486   H     0.00929   0.16494   0.55319   0.00000  Uiso   1.00
H487   H     0.18398   0.03751   0.43055   0.00000  Uiso   1.00
H488   H     0.14863   0.29582   0.56925   0.00000  Uiso   1.00
H489   H     0.18414   0.29580   0.43061   0.00000  Uiso   1.00
H490   H     0.14845   0.03756   0.56919   0.00000  Uiso   1.00
H491   H     0.23543   0.20290   0.38567   0.00000  Uiso   1.00
H492   H     0.09575   0.13286   0.61429   0.00000  Uiso   1.00
N493   N     0.16665   0.16666   0.61907   0.00000  Uiso   1.00
N494   N     0.16668   0.16668   0.38093   0.00000  Uiso   1.00
O495   O     0.16666   0.10558   0.53821   0.00000  Uiso   1.00
O496   O     0.16667   0.22775   0.46179   0.00000  Uiso   1.00
O497   O     0.16666   0.10559   0.46176   0.00000  Uiso   1.00
O498   O     0.16667   0.22774   0.53824   0.00000  Uiso   1.00
O499   O     0.09058   0.16666   0.52928   0.00000  Uiso   1.00
O500   O     0.24275   0.16667   0.47072   0.00000  Uiso   1.00
O501   O     0.09058   0.16667   0.45284   0.00000  Uiso   1.00
O502   O     0.24275   0.16666   0.54716   0.00000  Uiso   1.00
Zn503  Zn    0.16667   0.16666   0.55104   0.00000  Uiso   1.00
Zn504  Zn    0.16667   0.16667   0.44896   0.00000  Uiso   1.00
O505   O     0.24617   0.20555   0.62991   0.00000  Uiso   1.00
C506   C     0.29692   0.19221   0.65092   0.00000  Uiso   1.00
H507   H     0.31791   0.17980   0.62391   0.00000  Uiso   1.00
H508   H     0.29728   0.16664   0.34317   0.00000  Uiso   1.00
C509   C     0.32823   0.22904   0.33990   0.00000  Uiso   1.00
H510   H     0.30882   0.24227   0.36759   0.00000  Uiso   1.00
H511   H     0.03519   0.21872   0.35484   0.00000  Uiso   1.00
H512   H     0.33118   0.25353   0.64727   0.00000  Uiso   1.00
O513   O     0.08735   0.12806   0.37051   0.00000  Uiso   1.00
C514   C     0.08073   0.08566   0.35786   0.00000  Uiso   1.00
H515   H     0.08554   0.06678   0.38971   0.00000  Uiso   1.00
H516   H     0.10984   0.07334   0.33698   0.00000  Uiso   1.00
C517   C     0.02521   0.07882   0.66559   0.00000  Uiso   1.00
H518   H     0.01875   0.09742   0.63356   0.00000  Uiso   1.00
H519   H     0.01940   0.04539   0.65673   0.00000  Uiso   1.00
H520   H     0.32925   0.08829   0.35409   0.00000  Uiso   1.00
C521   C     0.49986   0.08664   0.49996   0.00000  Uiso   1.00
C522   C     0.49997   0.24669   0.50001   0.00000  Uiso   1.00
C523   C     0.40032   0.16659   0.48790   0.00000  Uiso   1.00
C524   C     0.59968   0.16651   0.51206   0.00000  Uiso   1.00
C525   C     0.34514   0.16666   0.48138   0.00000  Uiso   1.00
C526   C     0.65485   0.16598   0.51835   0.00000  Uiso   1.00
C527   C     0.50939   0.02130   0.46086   0.00000  Uiso   1.00
C528   C     0.48989   0.31204   0.53895   0.00000  Uiso   1.00
C529   C     0.50948   0.31203   0.46089   0.00000  Uiso   1.00
C530   C     0.48979   0.02132   0.53892   0.00000  Uiso   1.00
C531   C     0.49980   0.29085   0.49996   0.00000  Uiso   1.00
C532   C     0.49965   0.04249   0.49990   0.00000  Uiso   1.00
C533   C     0.53871   0.18642   0.36286   0.00000  Uiso   1.00
C534   C     0.46079   0.14742   0.63718   0.00000  Uiso   1.00
C535   C     0.54009   0.18530   0.64820   0.00000  Uiso   1.00
C536   C     0.46136   0.14627   0.35214   0.00000  Uiso   1.00
H537   H     0.65751   0.16751   0.44640   0.00000  Uiso   1.00
H538   H     0.34263   0.16494   0.55319   0.00000  Uiso   1.00
H539   H     0.51732   0.03751   0.43055   0.00000  Uiso   1.00
H540   H     0.48197   0.29582   0.56925   0.00000  Uiso   1.00
H541   H     0.51747   0.29580   0.43061   0.00000  Uiso   1.00
H542   H     0.48179   0.03756   0.56919   0.00000  Uiso   1.00
H543   H     0.56876   0.20290   0.38567   0.00000  Uiso   1.00
H544   H     0.42908   0.13286   0.61429   0.00000  Uiso   1.00
N545   N     0.49999   0.16666   0.61907   0.00000  Uiso   1.00
N546   N     0.50001   0.16668   0.38093   0.00000  Uiso   1.00
O547   O     0.50000   0.10558   0.53821   0.00000  Uiso   1.00
O548   O     0.50000   0.22775   0.46179   0.00000  Uiso   1.00
O549   O     0.50000   0.10559   0.46176   0.00000  Uiso   1.00
O550   O     0.50000   0.22774   0.53824   0.00000  Uiso   1.00
O551   O     0.42392   0.16666   0.52928   0.00000  Uiso   1.00
O552   O     0.57608   0.16667   0.47072   0.00000  Uiso   1.00
O553   O     0.42392   0.16667   0.45284   0.00000  Uiso   1.00
O554   O     0.57608   0.16666   0.54716   0.00000  Uiso   1.00
Zn555  Zn    0.50000   0.16666   0.55104   0.00000  Uiso   1.00
Zn556  Zn    0.50000   0.16667   0.44896   0.00000  Uiso   1.00
O557   O     0.57950   0.20555   0.62991   0.00000  Uiso   1.00
C558   C     0.63025   0.19221   0.65092   0.00000  Uiso   1.00
H559   H     0.65124   0.17980   0.62391   0.00000  Uiso   1.00
H560   H     0.63061   0.16664   0.34317   0.00000  Uiso   1.00
C561   C     0.66157   0.22904   0.33990   0.00000  Uiso   1.00
H562   H     0.64215   0.24227   0.36759   0.00000  Uiso   1.00
H563   H     0.36852   0.21872   0.35484   0.00000  Uiso   1.00
H564   H     0.66451   0.25353   0.64727   0.00000  Uiso   1.00
O565   O     0.42068   0.12806   0.37051   0.00000  Uiso   1.00
C566   C     0.41406   0.08566   0.35786   0.00000  Uiso   1.00
H567   H     0.41887   0.06678   0.38971   0.00000  Uiso   1.00
H568   H     0.44317   0.07334   0.33698   0.00000  Uiso   1.00
C569   C     0.35855   0.07882   0.66559   0.00000  Uiso   1.00
H570   H     0.35208   0.09742   0.63356   0.00000  Uiso   1.00
H571   H     0.35273   0.04539   0.65673   0.00000  Uiso   1.00
H572   H     0.66258   0.08829   0.35409   0.00000  Uiso   1.00
C573   C     0.83320   0.08664   0.49996   0.00000  Uiso   1.00
C574   C     0.83331   0.24669   0.50001   0.00000  Uiso   1.00
C575   C     0.73365   0.16659   0.48790   0.00000  Uiso   1.00
C576   C     0.93301   0.16651   0.51206   0.00000  Uiso   1.00
C577   C     0.67847   0.16666   0.48138   0.00000  Uiso   1.00
C578   C     0.98818   0.16598   0.51835   0.00000  Uiso   1.00
C579   C     0.84273   0.02130   0.46086   0.00000  Uiso   1.00
C580   C     0.82323   0.31204   0.53895   0.00000  Uiso   1.00
C581   C     0.84281   0.31203   0.46089   0.00000  Uiso   1.00
C582   C     0.82313   0.02132   0.53892   0.00000  Uiso   1.00
C583   C     0.83313   0.29085   0.49996   0.00000  Uiso   1.00
C584   C     0.83298   0.04249   0.49990   0.00000  Uiso   1.00
C585   C     0.87205   0.18642   0.36286   0.00000  Uiso   1.00
C586   C     0.79413   0.14742   0.63718   0.00000  Uiso   1.00
C587   C     0.87342   0.18530   0.64820   0.00000  Uiso   1.00
C588   C     0.79469   0.14627   0.35214   0.00000  Uiso   1.00
H589   H     0.99085   0.16751   0.44640   0.00000  Uiso   1.00
H590   H     0.67596   0.16494   0.55319   0.00000  Uiso   1.00
H591   H     0.85065   0.03751   0.43055   0.00000  Uiso   1.00
H592   H     0.81530   0.29582   0.56925   0.00000  Uiso   1.00
H593   H     0.85080   0.29580   0.43061   0.00000  Uiso   1.00
H594   H     0.81512   0.03756   0.56919   0.00000  Uiso   1.00
H595   H     0.90210   0.20290   0.38567   0.00000  Uiso   1.00
H596   H     0.76241   0.13286   0.61429   0.00000  Uiso   1.00
N597   N     0.83332   0.16666   0.61907   0.00000  Uiso   1.00
N598   N     0.83335   0.16668   0.38093   0.00000  Uiso   1.00
O599   O     0.83333   0.10558   0.53821   0.00000  Uiso   1.00
O600   O     0.83334   0.22775   0.46179   0.00000  Uiso   1.00
O601   O     0.83333   0.10559   0.46176   0.00000  Uiso   1.00
O602   O     0.83334   0.22774   0.53824   0.00000  Uiso   1.00
O603   O     0.75725   0.16666   0.52928   0.00000  Uiso   1.00
O604   O     0.90942   0.16667   0.47072   0.00000  Uiso   1.00
O605   O     0.75725   0.16667   0.45284   0.00000  Uiso   1.00
O606   O     0.90942   0.16666   0.54716   0.00000  Uiso   1.00
Zn607  Zn    0.83333   0.16666   0.55104   0.00000  Uiso   1.00
Zn608  Zn    0.83333   0.16667   0.44896   0.00000  Uiso   1.00
O609   O     0.91283   0.20555   0.62991   0.00000  Uiso   1.00
C610   C     0.96358   0.19221   0.65092   0.00000  Uiso   1.00
H611   H     0.98458   0.17980   0.62391   0.00000  Uiso   1.00
H612   H     0.96395   0.16664   0.34317   0.00000  Uiso   1.00
C613   C     0.99490   0.22904   0.33990   0.00000  Uiso   1.00
H614   H     0.97548   0.24227   0.36759   0.00000  Uiso   1.00
H615   H     0.70185   0.21872   0.35484   0.00000  Uiso   1.00
H616   H     0.99785   0.25353   0.64727   0.00000  Uiso   1.00
O617   O     0.75401   0.12806   0.37051   0.00000  Uiso   1.00
C618   C     0.74740   0.08566   0.35786   0.00000  Uiso   1.00
H619   H     0.75220   0.06678   0.38971   0.00000  Uiso   1.00
H620   H     0.77650   0.07334   0.33698   0.00000  Uiso   1.00
C621   C     0.69188   0.07882   0.66559   0.00000  Uiso   1.00
H622   H     0.68541   0.09742   0.63356   0.00000  Uiso   1.00
H623   H     0.68606   0.04539   0.65673   0.00000  Uiso   1.00
H624   H     0.99592   0.08829   0.35409   0.00000  Uiso   1.00
C625   C     0.16653   0.41998   0.49996   0.00000  Uiso   1.00
C626   C     0.16664   0.58002   0.50001   0.00000  Uiso   1.00
C627   C     0.06698   0.49992   0.48790   0.00000  Uiso   1.00
C628   C     0.26635   0.49985   0.51206   0.00000  Uiso   1.00
C629   C     0.01181   0.50000   0.48138   0.00000  Uiso   1.00
C630   C     0.32151   0.49932   0.51835   0.00000  Uiso   1.00
C631   C     0.17606   0.35464   0.46086   0.00000  Uiso   1.00
C632   C     0.15656   0.64537   0.53895   0.00000  Uiso   1.00
C633   C     0.17615   0.64536   0.46089   0.00000  Uiso   1.00
C634   C     0.15646   0.35466   0.53892   0.00000  Uiso   1.00
C635   C     0.16647   0.62419   0.49996   0.00000  Uiso   1.00
C636   C     0.16632   0.37582   0.49990   0.00000  Uiso   1.00
C637   C     0.20538   0.51976   0.36286   0.00000  Uiso   1.00
C638   C     0.12746   0.48075   0.63718   0.00000  Uiso   1.00
C639   C     0.20676   0.51864   0.64820   0.00000  Uiso   1.00
C640   C     0.12802   0.47961   0.35214   0.00000  Uiso   1.00
H641   H     0.32418   0.50084   0.44640   0.00000  Uiso   1.00
H642   H     0.00929   0.49828   0.55319   0.00000  Uiso   1.00
H643   H     0.18398   0.37084   0.43055   0.00000  Uiso   1.00
H644   H     0.14863   0.62916   0.56925   0.00000  Uiso   1.00
H645   H     0.18414   0.62914   0.43061   0.00000  Uiso   1.00
H646   H     0.14845   0.37089   0.56919   0.00000  Uiso   1.00
H647   H     0.23543   0.53623   0.38567   0.00000  Uiso   1.00
H648   H     0.09575   0.46619   0.61429   0.00000  Uiso   1.00
N649   N     0.16665   0.49999   0.61907   0.00000  Uiso   1.00
N650   N     0.16668   0.50001   0.38093   0.00000  Uiso   1.00
O651   O     0.16666   0.43892   0.53821   0.00000  Uiso   1.00
O652   O     0.16667   0.56108   0.46179   0.00000  Uiso   1.00
O653   O     0.16666   0.43893   0.46176   0.00000  Uiso   1.00
O654   O     0.16667   0.56107   0.53824   0.00000  Uiso   1.00
O655   O     0.09058   0.50000   0.52928   0.00000  Uiso   1.00
O656   O     0.24275   0.50000   0.47072   0.00000  Uiso   1.00
O657   O     0.09058   0.50000   0.45284   0.00000  Uiso   1.00
O658   O     0.24275   0.50000   0.54716   0.00000  Uiso   1.00
Zn659  Zn    0.16667   0.49999   0.55104   0.00000  Uiso   1.00
Zn660  Zn    0.16667   0.50001   0.44896   0.00000  Uiso   1.00
O661   O     0.24617   0.53888   0.62991   0.00000  Uiso   1.00
C662   C     0.29692   0.52554   0.65092   0.00000  Uiso   1.00
H663   H     0.31791   0.51313   0.62391   0.00000  Uiso   1.00
H664   H     0.29728   0.49998   0.34317   0.00000  Uiso   1.00
C665   C     0.32823   0.56237   0.33990   0.00000  Uiso   1.00
H666   H     0.30882   0.57560   0.36759   0.00000  Uiso   1.00
H667   H     0.03519   0.55205   0.35484   0.00000  Uiso   1.00
H668   H     0.33118   0.58686   0.64727   0.00000  Uiso   1.00
O669   O     0.08735   0.46140   0.37051   0.00000  Uiso   1.00
C670   C     0.08073   0.41899   0.35786   0.00000  Uiso   1.00
H671   H     0.08554   0.40011   0.38971   0.00000  Uiso   1.00
H672   H     0.10984   0.40667   0.33698   0.00000  Uiso   1.00
C673   C     0.02521   0.41215   0.66559   0.00000  Uiso   1.00
H674   H     0.01875   0.43076   0.63356   0.00000  Uiso   1.00
H675   H     0.01940   0.37873   0.65673   0.00000  Uiso   1.00
H676   H     0.32925   0.42162   0.35409   0.00000  Uiso   1.00
C677   C     0.49986   0.41998   0.49996   0.00000  Uiso   1.00
C678   C     0.49997   0.58002   0.50001   0.00000  Uiso   1.00
C679   C     0.40032   0.49992   0.48790   0.00000  Uiso   1.00
C680   C     0.59968   0.49985   0.51206   0.00000  Uiso   1.00
C681   C     0.34514   0.50000   0.48138   0.00000  Uiso   1.00
C682   C     0.65485   0.49932   0.51835   0.00000  Uiso   1.00
C683   C     0.50939   0.35464   0.46086   0.00000  Uiso   1.00
C684   C     0.48989   0.64537   0.53895   0.00000  Uiso   1.00
C685   C     0.50948   0.64536   0.46089   0.00000  Uiso   1.00
C686   C     0.48979   0.35466   0.53892   0.00000  Uiso   1.00
C687   C     0.49980   0.62419   0.49996   0.00000  Uiso   1.00
C688   C     0.49965   0.37582   0.49990   0.00000  Uiso   1.00
C689   C     0.53871   0.51976   0.36286   0.00000  Uiso   1.00
C690   C     0.46079   0.48075   0.63718   0.00000  Uiso   1.00
C691   C     0.54009   0.51864   0.64820   0.00000  Uiso   1.00
C692   C     0.46136   0.47961   0.35214   0.00000  Uiso   1.00
H693   H     0.65751   0.50084   0.44640   0.00000  Uiso   1.00
H694   H     0.34263   0.49828   0.55319   0.00000  Uiso   1.00
H695   H     0.51732   0.37084   0.43055   0.00000  Uiso   1.00
H696   H     0.48197   0.62916   0.56925   0.00000  Uiso   1.00
H697   H     0.51747   0.62914   0.43061   0.00000  Uiso   1.00
H698   H     0.48179   0.37089   0.56919   0.00000  Uiso   1.00
H699   H     0.56876   0.53623   0.38567   0.00000  Uiso   1.00
H700   H     0.42908   0.46619   0.61429   0.00000  Uiso   1.00
N701   N     0.49999   0.49999   0.61907   0.00000  Uiso   1.00
N702   N     0.50001   0.50001   0.38093   0.00000  Uiso   1.00
O703   O     0.50000   0.43892   0.53821   0.00000  Uiso   1.00
O704   O     0.50000   0.56108   0.46179   0.00000  Uiso   1.00
O705   O     0.50000   0.43893   0.46176   0.00000  Uiso   1.00
O706   O     0.50000   0.56107   0.53824   0.00000  Uiso   1.00
O707   O     0.42392   0.50000   0.52928   0.00000  Uiso   1.00
O708   O     0.57608   0.50000   0.47072   0.00000  Uiso   1.00
O709   O     0.42392   0.50000   0.45284   0.00000  Uiso   1.00
O710   O     0.57608   0.50000   0.54716   0.00000  Uiso   1.00
Zn711  Zn    0.50000   0.49999   0.55104   0.00000  Uiso   1.00
Zn712  Zn    0.50000   0.50001   0.44896   0.00000  Uiso   1.00
O713   O     0.57950   0.53888   0.62991   0.00000  Uiso   1.00
C714   C     0.63025   0.52554   0.65092   0.00000  Uiso   1.00
H715   H     0.65124   0.51313   0.62391   0.00000  Uiso   1.00
H716   H     0.63061   0.49998   0.34317   0.00000  Uiso   1.00
C717   C     0.66157   0.56237   0.33990   0.00000  Uiso   1.00
H718   H     0.64215   0.57560   0.36759   0.00000  Uiso   1.00
H719   H     0.36852   0.55205   0.35484   0.00000  Uiso   1.00
H720   H     0.66451   0.58686   0.64727   0.00000  Uiso   1.00
O721   O     0.42068   0.46140   0.37051   0.00000  Uiso   1.00
C722   C     0.41406   0.41899   0.35786   0.00000  Uiso   1.00
H723   H     0.41887   0.40011   0.38971   0.00000  Uiso   1.00
H724   H     0.44317   0.40667   0.33698   0.00000  Uiso   1.00
C725   C     0.35855   0.41215   0.66559   0.00000  Uiso   1.00
H726   H     0.35208   0.43076   0.63356   0.00000  Uiso   1.00
H727   H     0.35273   0.37873   0.65673   0.00000  Uiso   1.00
H728   H     0.66258   0.42162   0.35409   0.00000  Uiso   1.00
C729   C     0.83320   0.41998   0.49996   0.00000  Uiso   1.00
C730   C     0.83331   0.58002   0.50001   0.00000  Uiso   1.00
C731   C     0.73365   0.49992   0.48790   0.00000  Uiso   1.00
C732   C     0.93301   0.49985   0.51206   0.00000  Uiso   1.00
C733   C     0.67847   0.50000   0.48138   0.00000  Uiso   1.00
C734   C     0.98818   0.49932   0.51835   0.00000  Uiso   1.00
C735   C     0.84273   0.35464   0.46086   0.00000  Uiso   1.00
C736   C     0.82323   0.64537   0.53895   0.00000  Uiso   1.00
C737   C     0.84281   0.64536   0.46089   0.00000  Uiso   1.00
C738   C     0.82313   0.35466   0.53892   0.00000  Uiso   1.00
C739   C     0.83313   0.62419   0.49996   0.00000  Uiso   1.00
C740   C     0.83298   0.37582   0.49990   0.00000  Uiso   1.00
C741   C     0.87205   0.51976   0.36286   0.00000  Uiso   1.00
C742   C     0.79413   0.48075   0.63718   0.00000  Uiso   1.00
C743   C     0.87342   0.51864   0.64820   0.00000  Uiso   1.00
C744   C     0.79469   0.47961   0.35214   0.00000  Uiso   1.00
H745   H     0.99085   0.50084   0.44640   0.00000  Uiso   1.00
H746   H     0.67596   0.49828   0.55319   0.00000  Uiso   1.00
H747   H     0.85065   0.37084   0.43055   0.00000  Uiso   1.00
H748   H     0.81530   0.62916   0.56925   0.00000  Uiso   1.00
H749   H     0.85080   0.62914   0.43061   0.00000  Uiso   1.00
H750   H     0.81512   0.37089   0.56919   0.00000  Uiso   1.00
H751   H     0.90210   0.53623   0.38567   0.00000  Uiso   1.00
H752   H     0.76241   0.46619   0.61429   0.00000  Uiso   1.00
N753   N     0.83332   0.49999   0.61907   0.00000  Uiso   1.00
N754   N     0.83335   0.50001   0.38093   0.00000  Uiso   1.00
O755   O     0.83333   0.43892   0.53821   0.00000  Uiso   1.00
O756   O     0.83334   0.56108   0.46179   0.00000  Uiso   1.00
O757   O     0.83333   0.43893   0.46176   0.00000  Uiso   1.00
O758   O     0.83334   0.56107   0.53824   0.00000  Uiso   1.00
O759   O     0.75725   0.50000   0.52928   0.00000  Uiso   1.00
O760   O     0.90942   0.50000   0.47072   0.00000  Uiso   1.00
O761   O     0.75725   0.50000   0.45284   0.00000  Uiso   1.00
O762   O     0.90942   0.50000   0.54716   0.00000  Uiso   1.00
Zn763  Zn    0.83333   0.49999   0.55104   0.00000  Uiso   1.00
Zn764  Zn    0.83333   0.50001   0.44896   0.00000  Uiso   1.00
O765   O     0.91283   0.53888   0.62991   0.00000  Uiso   1.00
C766   C     0.96358   0.52554   0.65092   0.00000  Uiso   1.00
H767   H     0.98458   0.51313   0.62391   0.00000  Uiso   1.00
H768   H     0.96395   0.49998   0.34317   0.00000  Uiso   1.00
C769   C     0.99490   0.56237   0.33990   0.00000  Uiso   1.00
H770   H     0.97548   0.57560   0.36759   0.00000  Uiso   1.00
H771   H     0.70185   0.55205   0.35484   0.00000  Uiso   1.00
H772   H     0.99785   0.58686   0.64727   0.00000  Uiso   1.00
O773   O     0.75401   0.46140   0.37051   0.00000  Uiso   1.00
C774   C     0.74740   0.41899   0.35786   0.00000  Uiso   1.00
H775   H     0.75220   0.40011   0.38971   0.00000  Uiso   1.00
H776   H     0.77650   0.40667   0.33698   0.00000  Uiso   1.00
C777   C     0.69188   0.41215   0.66559   0.00000  Uiso   1.00
H778   H     0.68541   0.43076   0.63356   0.00000  Uiso   1.00
H779   H     0.68606   0.37873   0.65673   0.00000  Uiso   1.00
H780   H     0.99592   0.42162   0.35409   0.00000  Uiso   1.00
C781   C     0.16653   0.75331   0.49996   0.00000  Uiso   1.00
C782   C     0.16664   0.91336   0.50001   0.00000  Uiso   1.00
C783   C     0.06698   0.83325   0.48790   0.00000  Uiso   1.00
C784   C     0.26635   0.83318   0.51206   0.00000  Uiso   1.00
C785   C     0.01181   0.83333   0.48138   0.00000  Uiso   1.00
C786   C     0.32151   0.83265   0.51835   0.00000  Uiso   1.00
C787   C     0.17606   0.68797   0.46086   0.00000  Uiso   1.00
C788   C     0.15656   0.97871   0.53895   0.00000  Uiso   1.00
C789   C     0.17615   0.97869   0.46089   0.00000  Uiso   1.00
C790   C     0.15646   0.68799   0.53892   0.00000  Uiso   1.00
C791   C     0.16647   0.95752   0.49996   0.00000  Uiso   1.00
C792   C     0.16632   0.70916   0.49990   0.00000  Uiso   1.00
C793   C     0.20538   0.85309   0.36286   0.00000  Uiso   1.00
C794   C     0.12746   0.81409   0.63718   0.00000  Uiso   1.00
C795   C     0.20676   0.85197   0.64820   0.00000  Uiso   1.00
C796   C     0.12802   0.81294   0.35214   0.00000  Uiso   1.00
H797   H     0.32418   0.83417   0.44640   0.00000  Uiso   1.00
H798   H     0.00929   0.83161   0.55319   0.00000  Uiso   1.00
H799   H     0.18398   0.70418   0.43055   0.00000  Uiso   1.00
H800   H     0.14863   0.96249   0.56925   0.00000  Uiso   1.00
H801   H     0.18414   0.96247   0.43061   0.00000  Uiso   1.00
H802   H     0.14845   0.70422   0.56919   0.00000  Uiso   1.00
H803   H     0.23543   0.86957   0.38567   0.00000  Uiso   1.00
H804   H     0.09575   0.79952   0.61429   0.00000  Uiso   1.00
N805   N     0.16665   0.83332   0.61907   0.00000  Uiso   1.00
N806   N     0.16668   0.83334   0.38093   0.00000  Uiso   1.00
O807   O     0.16666   0.77225   0.53821   0.00000  Uiso   1.00
O808   O     0.16667   0.89442   0.46179   0.00000  Uiso   1.00
O809   O     0.16666   0.77226   0.46176   0.00000  Uiso   1.00
O810   O     0.16667   0.89441   0.53824   0.00000  Uiso   1.00
O811   O     0.09058   0.83333   0.52928   0.00000  Uiso   1.00
O812   O     0.24275   0.83334   0.47072   0.00000  Uiso   1.00
O813   O     0.09058   0.83334   0.45284   0.00000  Uiso   1.00
O814   O     0.24275   0.83333   0.54716   0.00000  Uiso   1.00
Zn815  Zn    0.16667   0.83333   0.55104   0.00000  Uiso   1.00
Zn816  Zn    0.16667   0.83334   0.44896   0.00000  Uiso   1.00
O817   O     0.24617   0.87221   0.62991   0.00000  Uiso   1.00
C818   C     0.29692   0.85887   0.65092   0.00000  Uiso   1.00
H819   H     0.31791   0.84646   0.62391   0.00000  Uiso   1.00
H820   H     0.29728   0.83331   0.34317   0.00000  Uiso   1.00
C821   C     0.32823   0.89570   0.33990   0.00000  Uiso   1.00
H822   H     0.30882   0.90894   0.36759   0.00000  Uiso   1.00
H823   H     0.03519   0.88538   0.35484   0.00000  Uiso   1.00
H824   H     0.33118   0.92020   0.64727   0.00000  Uiso   1.00
O825   O     0.08735   0.79473   0.37051   0.00000  Uiso   1.00
C826   C     0.08073   0.75233   0.35786   0.00000  Uiso   1.00
H827   H     0.08554   0.73345   0.38971   0.00000  Uiso   1.00
H828   H     0.10984   0.74001   0.33698   0.00000  Uiso   1.00
C829   C     0.02521   0.74548   0.66559   0.00000  Uiso   1.00
H830   H     0.01875   0.76409   0.63356   0.00000  Uiso   1.00
H831   H     0.01940   0.71206   0.65673   0.00000  Uiso   1.00
H832   H     0.32925   0.75496   0.35409   0.00000  Uiso   1.00
C833   C     0.49986   0.75331   0.49996   0.00000  Uiso   1.00
C834   C     0.49997   0.91336   0.50001   0.00000  Uiso   1.00
C835   C     0.40032   0.83325   0.48790   0.00000  Uiso   1.00
C836   C     0.59968   0.83318   0.51206   0.00000  Uiso   1.00
C837   C     0.34514   0.83333   0.48138   0.00000  Uiso   1.00
C838   C     0.65485   0.83265   0.51835   0.00000  Uiso   1.00
C839   C     0.50939   0.68797   0.46086   0.00000  Uiso   1.00
C840   C     0.48989   0.97871   0.53895   0.00000  Uiso   1.00
C841   C     0.50948   0.97869   0.46089   0.00000  Uiso   1.00
C842   C     0.48979   0.68799   0.53892   0.00000  Uiso   1.00
C843   C     0.49980   0.95752   0.49996   0.00000  Uiso   1.00
C844   C     0.49965   0.70916   0.49990   0.00000  Uiso   1.00
C845   C     0.53871   0.85309   0.36286   0.00000  Uiso   1.00
C846   C     0.46079   0.81409   0.63718   0.00000  Uiso   1.00
C847   C     0.54009   0.85197   0.64820   0.00000  Uiso   1.00
C848   C     0.46136   0.81294   0.35214   0.00000  Uiso   1.00
H849   H     0.65751   0.83417   0.44640   0.00000  Uiso   1.00
H850   H     0.34263   0.83161   0.55319   0.00000  Uiso   1.00
H851   H     0.51732   0.70418   0.43055   0.00000  Uiso   1.00
H852   H     0.48197   0.96249   0.56925   0.00000  Uiso   1.00
H853   H     0.51747   0.96247   0.43061   0.00000  Uiso   1.00
H854   H     0.48179   0.70422   0.56919   0.00000  Uiso   1.00
H855   H     0.56876   0.86957   0.38567   0.00000  Uiso   1.00
H856   H     0.42908   0.79952   0.61429   0.00000  Uiso   1.00
N857   N     0.49999   0.83332   0.61907   0.00000  Uiso   1.00
N858   N     0.50001   0.83334   0.38093   0.00000  Uiso   1.00
O859   O     0.50000   0.77225   0.53821   0.00000  Uiso   1.00
O860   O     0.50000   0.89442   0.46179   0.00000  Uiso   1.00
O861   O     0.50000   0.77226   0.46176   0.00000  Uiso   1.00
O862   O     0.50000   0.89441   0.53824   0.00000  Uiso   1.00
O863   O     0.42392   0.83333   0.52928   0.00000  Uiso   1.00
O864   O     0.57608   0.83334   0.47072   0.00000  Uiso   1.00
O865   O     0.42392   0.83334   0.45284   0.00000  Uiso   1.00
O866   O     0.57608   0.83333   0.54716   0.00000  Uiso   1.00
Zn867  Zn    0.50000   0.83333   0.55104   0.00000  Uiso   1.00
Zn868  Zn    0.50000   0.83334   0.44896   0.00000  Uiso   1.00
O869   O     0.57950   0.87221   0.62991   0.00000  Uiso   1.00
C870   C     0.63025   0.85887   0.65092   0.00000  Uiso   1.00
H871   H     0.65124   0.84646   0.62391   0.00000  Uiso   1.00
H872   H     0.63061   0.83331   0.34317   0.00000  Uiso   1.00
C873   C     0.66157   0.89570   0.33990   0.00000  Uiso   1.00
H874   H     0.64215   0.90894   0.36759   0.00000  Uiso   1.00
H875   H     0.36852   0.88538   0.35484   0.00000  Uiso   1.00
H876   H     0.66451   0.92020   0.64727   0.00000  Uiso   1.00
O877   O     0.42068   0.79473   0.37051   0.00000  Uiso   1.00
C878   C     0.41406   0.75233   0.35786   0.00000  Uiso   1.00
H879   H     0.41887   0.73345   0.38971   0.00000  Uiso   1.00
H880   H     0.44317   0.74001   0.33698   0.00000  Uiso   1.00
C881   C     0.35855   0.74548   0.66559   0.00000  Uiso   1.00
H882   H     0.35208   0.76409   0.63356   0.00000  Uiso   1.00
H883   H     0.35273   0.71206   0.65673   0.00000  Uiso   1.00
H884   H     0.66258   0.75496   0.35409   0.00000  Uiso   1.00
C885   C     0.83320   0.75331   0.49996   0.00000  Uiso   1.00
C886   C     0.83331   0.91336   0.50001   0.00000  Uiso   1.00
C887   C     0.73365   0.83325   0.48790   0.00000  Uiso   1.00
C888   C     0.93301   0.83318   0.51206   0.00000  Uiso   1.00
C889   C     0.67847   0.83333   0.48138   0.00000  Uiso   1.00
C890   C     0.98818   0.83265   0.51835   0.00000  Uiso   1.00
C891   C     0.84273   0.68797   0.46086   0.00000  Uiso   1.00
C892   C     0.82323   0.97871   0.53895   0.00000  Uiso   1.00
C893   C     0.84281   0.97869   0.46089   0.00000  Uiso   1.00
C894   C     0.82313   0.68799   0.53892   0.00000  Uiso   1.00
C895   C     0.83313   0.95752   0.49996   0.00000  Uiso   1.00
C896   C     0.83298   0.70916   0.49990   0.00000  Uiso   1.00
C897   C     0.87205   0.85309   0.36286   0.00000  Uiso   1.00
C898   C     0.79413   0.81409   0.63718   0.00000  Uiso   1.00
C899   C     0.87342   0.85197   0.64820   0.00000  Uiso   1.00
C900   C     0.79469   0.81294   0.35214   0.00000  Uiso   1.00
H901   H     0.99085   0.83417   0.44640   0.00000  Uiso   1.00
H902   H     0.67596   0.83161   0.55319   0.00000  Uiso   1.00
H903   H     0.85065   0.70418   0.43055   0.00000  Uiso   1.00
H904   H     0.81530   0.96249   0.56925   0.00000  Uiso   1.00
H905   H     0.85080   0.96247   0.43061   0.00000  Uiso   1.00
H906   H     0.81512   0.70422   0.56919   0.00000  Uiso   1.00
H907   H     0.90210   0.86957   0.38567   0.00000  Uiso   1.00
H908   H     0.76241   0.79952   0.61429   0.00000  Uiso   1.00
N909   N     0.83332   0.83332   0.61907   0.00000  Uiso   1.00
N910   N     0.83335   0.83334   0.38093   0.00000  Uiso   1.00
O911   O     0.83333   0.77225   0.53821   0.00000  Uiso   1.00
O912   O     0.83334   0.89442   0.46179   0.00000  Uiso   1.00
O913   O     0.83333   0.77226   0.46176   0.00000  Uiso   1.00
O914   O     0.83334   0.89441   0.53824   0.00000  Uiso   1.00
O915   O     0.75725   0.83333   0.52928   0.00000  Uiso   1.00
O916   O     0.90942   0.83334   0.47072   0.00000  Uiso   1.00
O917   O     0.75725   0.83334   0.45284   0.00000  Uiso   1.00
O918   O     0.90942   0.83333   0.54716   0.00000  Uiso   1.00
Zn919  Zn    0.83333   0.83333   0.55104   0.00000  Uiso   1.00
Zn920  Zn    0.83333   0.83334   0.44896   0.00000  Uiso   1.00
O921   O     0.91283   0.87221   0.62991   0.00000  Uiso   1.00
C922   C     0.96358   0.85887   0.65092   0.00000  Uiso   1.00
H923   H     0.98458   0.84646   0.62391   0.00000  Uiso   1.00
H924   H     0.96395   0.83331   0.34317   0.00000  Uiso   1.00
C925   C     0.99490   0.89570   0.33990   0.00000  Uiso   1.00
H926   H     0.97548   0.90894   0.36759   0.00000  Uiso   1.00
H927   H     0.70185   0.88538   0.35484   0.00000  Uiso   1.00
H928   H     0.99785   0.92020   0.64727   0.00000  Uiso   1.00
O929   O     0.75401   0.79473   0.37051   0.00000  Uiso   1.00
C930   C     0.74740   0.75233   0.35786   0.00000  Uiso   1.00
H931   H     0.75220   0.73345   0.38971   0.00000  Uiso   1.00
H932   H     0.77650   0.74001   0.33698   0.00000  Uiso   1.00
C933   C     0.69188   0.74548   0.66559   0.00000  Uiso   1.00
H934   H     0.68541   0.76409   0.63356   0.00000  Uiso   1.00
H935   H     0.68606   0.71206   0.65673   0.00000  Uiso   1.00
H936   H     0.99592   0.75496   0.35409   0.00000  Uiso   1.00
C937   C     0.16653   0.08664   0.83329   0.00000  Uiso   1.00
C938   C     0.16664   0.24669   0.83334   0.00000  Uiso   1.00
C939   C     0.06698   0.16659   0.82123   0.00000  Uiso   1.00
C940   C     0.26635   0.16651   0.84539   0.00000  Uiso   1.00
C941   C     0.01181   0.16666   0.81471   0.00000  Uiso   1.00
C942   C     0.32151   0.16598   0.85168   0.00000  Uiso   1.00
C943   C     0.17606   0.02130   0.79419   0.00000  Uiso   1.00
C944   C     0.15656   0.31204   0.87229   0.00000  Uiso   1.00
C945   C     0.17615   0.31203   0.79423   0.00000  Uiso   1.00
C946   C     0.15646   0.02132   0.87225   0.00000  Uiso   1.00
C947   C     0.16647   0.29085   0.83330   0.00000  Uiso   1.00
C948   C     0.16632   0.04249   0.83323   0.00000  Uiso   1.00
C949   C     0.20538   0.18642   0.69619   0.00000  Uiso   1.00
C950   C     0.12746   0.14742   0.97051   0.00000  Uiso   1.00
C951   C     0.20676   0.18530   0.98154   0.00000  Uiso   1.00
C952   C     0.12802   0.14627   0.68547   0.00000  Uiso   1.00
H953   H     0.32418   0.16751   0.77973   0.00000  Uiso   1.00
H954   H     0.00929   0.16494   0.88652   0.00000  Uiso   1.00
H955   H     0.18398   0.03751   0.76389   0.00000  Uiso   1.00
H956   H     0.14863   0.29582   0.90258   0.00000  Uiso   1.00
H957   H     0.18414   0.29580   0.76395   0.00000  Uiso   1.00
H958   H     0.14845   0.03756   0.90252   0.00000  Uiso   1.00
H959   H     0.23543   0.20290   0.71900   0.00000  Uiso   1.00
H960   H     0.09575   0.13286   0.94762   0.00000  Uiso   1.00
N961   N     0.16665   0.16666   0.95240   0.00000  Uiso   1.00
N962   N     0.16668   0.16668   0.71427   0.00000  Uiso   1.00
O963   O     0.16666   0.10558   0.87154   0.00000  Uiso   1.00
O964   O     0.16667   0.22775   0.79513   0.00000  Uiso   1.00
O965   O     0.16666   0.10559   0.79510   0.00000  Uiso   1.00
O966   O     0.16667   0.22774   0.87157   0.00000  Uiso   1.00
O967   O     0.09058   0.16666   0.86261   0.00000  Uiso   1.00
O968   O     0.24275   0.16667   0.80405   0.00000  Uiso   1.00
O969   O     0.09058   0.16667   0.78617   0.00000  Uiso   1.00
O970   O     0.24275   0.16666   0.88050   0.00000  Uiso   1.00
Zn971  Zn    0.16667   0.16666   0.88437   0.00000  Uiso   1.00
Zn972  Zn    0.16667   0.16667   0.78229   0.00000  Uiso   1.00
O973   O     0.24617   0.20555   0.96324   0.00000  Uiso   1.00
C974   C     0.29692   0.19221   0.98425   0.00000  Uiso   1.00
H975   H     0.31791   0.17980   0.95725   0.00000  Uiso   1.00
H976   H     0.29728   0.16664   0.67651   0.00000  Uiso   1.00
C977   C     0.32823   0.22904   0.67323   0.00000  Uiso   1.00
H978   H     0.30882   0.24227   0.70092   0.00000  Uiso   1.00
H979   H     0.03519   0.21872   0.68817   0.00000  Uiso   1.00
H980   H     0.33118   0.25353   0.98061   0.00000  Uiso   1.00
O981   O     0.08735   0.12806   0.70384   0.00000  Uiso   1.00
C982   C     0.08073   0.08566   0.69119   0.00000  Uiso   1.00
H983   H     0.08554   0.06678   0.72304   0.00000  Uiso   1.00
H984   H     0.10984   0.07334   0.67031   0.00000  Uiso   1.00
C985   C     0.02521   0.07882   0.99892   0.00000  Uiso   1.00
H986   H     0.01875   0.09742   0.96690   0.00000  Uiso   1.00
H987   H     0.01940   0.04539   0.99007   0.00000  Uiso   1.00
H988   H     0.32925   0.08829   0.68743   0.00000  Uiso   1.00
C989   C     0.49986   0.08664   0.83329   0.00000  Uiso   1.00
C990   C     0.49997   0.24669   0.83334   0.00000  Uiso   1.00
C991   C     0.40032   0.16659   0.82123   0.00000  Uiso   1.00
C992   C     0.59968   0.16651   0.84539   0.00000  Uiso   1.00
C993   C     0.34514   0.16666   0.81471   0.00000  Uiso   1.00
C994   C     0.65485   0.16598   0.85168   0.00000  Uiso   1.00
C995   C     0.50939   0.02130   0.79419   0.00000  Uiso   1.00
C996   C     0.48989   0.31204   0.87229   0.00000  Uiso   1.00
C997   C     0.50948   0.31203   0.79423   0.00000  Uiso   1.00
C998   C     0.48979   0.02132   0.87225   0.00000  Uiso   1.00
C999   C     0.49980   0.29085   0.83330   0.00000  Uiso   1.00
C1000  C     0.49965   0.04249   0.83323   0.00000  Uiso   1.00
C1001  C     0.53871   0.18642   0.69619   0.00000  Uiso   1.00
C1002  C     0.46079   0.14742   0.97051   0.00000  Uiso   1.00
C1003  C     0.54009   0.18530   0.98154   0.00000  Uiso   1.00
C1004  C     0.46136   0.14627   0.68547   0.00000  Uiso   1.00
H1005  H     0.65751   0.16751   0.77973   0.00000  Uiso   1.00
H1006  H     0.34263   0.16494   0.88652   0.00000  Uiso   1.00
H1007  H     0.51732   0.03751   0.76389   0.00000  Uiso   1.00
H1008  H     0.48197   0.29582   0.90258   0.00000  Uiso   1.00
H1009  H     0.51747   0.29580   0.76395   0.00000  Uiso   1.00
H1010  H     0.48179   0.03756   0.90252   0.00000  Uiso   1.00
H1011  H     0.56876   0.20290   0.71900   0.00000  Uiso   1.00
H1012  H     0.42908   0.13286   0.94762   0.00000  Uiso   1.00
N1013  N     0.49999   0.16666   0.95240   0.00000  Uiso   1.00
N1014  N     0.50001   0.16668   0.71427   0.00000  Uiso   1.00
O1015  O     0.50000   0.10558   0.87154   0.00000  Uiso   1.00
O1016  O     0.50000   0.22775   0.79513   0.00000  Uiso   1.00
O1017  O     0.50000   0.10559   0.79510   0.00000  Uiso   1.00
O1018  O     0.50000   0.22774   0.87157   0.00000  Uiso   1.00
O1019  O     0.42392   0.16666   0.86261   0.00000  Uiso   1.00
O1020  O     0.57608   0.16667   0.80405   0.00000  Uiso   1.00
O1021  O     0.42392   0.16667   0.78617   0.00000  Uiso   1.00
O1022  O     0.57608   0.16666   0.88050   0.00000  Uiso   1.00
Zn1023 Zn    0.50000   0.16666   0.88437   0.00000  Uiso   1.00
Zn1024 Zn    0.50000   0.16667   0.78229   0.00000  Uiso   1.00
O1025  O     0.57950   0.20555   0.96324   0.00000  Uiso   1.00
C1026  C     0.63025   0.19221   0.98425   0.00000  Uiso   1.00
H1027  H     0.65124   0.17980   0.95725   0.00000  Uiso   1.00
H1028  H     0.63061   0.16664   0.67651   0.00000  Uiso   1.00
C1029  C     0.66157   0.22904   0.67323   0.00000  Uiso   1.00
H1030  H     0.64215   0.24227   0.70092   0.00000  Uiso   1.00
H1031  H     0.36852   0.21872   0.68817   0.00000  Uiso   1.00
H1032  H     0.66451   0.25353   0.98061   0.00000  Uiso   1.00
O1033  O     0.42068   0.12806   0.70384   0.00000  Uiso   1.00
C1034  C     0.41406   0.08566   0.69119   0.00000  Uiso   1.00
H1035  H     0.41887   0.06678   0.72304   0.00000  Uiso   1.00
H1036  H     0.44317   0.07334   0.67031   0.00000  Uiso   1.00
C1037  C     0.35855   0.07882   0.99892   0.00000  Uiso   1.00
H1038  H     0.35208   0.09742   0.96690   0.00000  Uiso   1.00
H1039  H     0.35273   0.04539   0.99007   0.00000  Uiso   1.00
H1040  H     0.66258   0.08829   0.68743   0.00000  Uiso   1.00
C1041  C     0.83320   0.08664   0.83329   0.00000  Uiso   1.00
C1042  C     0.83331   0.24669   0.83334   0.00000  Uiso   1.00
C1043  C     0.73365   0.16659   0.82123   0.00000  Uiso   1.00
C1044  C     0.93301   0.16651   0.84539   0.00000  Uiso   1.00
C1045  C     0.67847   0.16666   0.81471   0.00000  Uiso   1.00
C1046  C     0.98818   0.16598   0.85168   0.00000  Uiso   1.00
C1047  C     0.84273   0.02130   0.79419   0.00000  Uiso   1.00
C1048  C     0.82323   0.31204   0.87229   0.00000  Uiso   1.00
C1049  C     0.84281   0.31203   0.79423   0.00000  Uiso   1.00
C1050  C     0.82313   0.02132   0.87225   0.00000  Uiso   1.00
C1051  C     0.83313   0.29085   0.83330   0.00000  Uiso   1.00
C1052  C     0.83298   0.04249   0.83323   0.00000  Uiso   1.00
C1053  C     0.87205   0.18642   0.69619   0.00000  Uiso   1.00
C1054  C     0.79413   0.14742   0.97051   0.00000  Uiso   1.00
C1055  C     0.87342   0.18530   0.98154   0.00000  Uiso   1.00
C1056  C     0.79469   0.14627   0.68547   0.00000  Uiso   1.00
H1057  H     0.99085   0.16751   0.77973   0.00000  Uiso   1.00
H1058  H     0.67596   0.16494   0.88652   0.00000  Uiso   1.00
H1059  H     0.85065   0.03751   0.76389   0.00000  Uiso   1.00
H1060  H     0.81530   0.29582   0.90258   0.00000  Uiso   1.00
H1061  H     0.85080   0.29580   0.76395   0.00000  Uiso   1.00
H1062  H     0.81512   0.03756   0.90252   0.00000  Uiso   1.00
H1063  H     0.90210   0.20290   0.71900   0.00000  Uiso   1.00
H1064  H     0.76241   0.13286   0.94762   0.00000  Uiso   1.00
N1065  N     0.83332   0.16666   0.95240   0.00000  Uiso   1.00
N1066  N     0.83335   0.16668   0.71427   0.00000  Uiso   1.00
O1067  O     0.83333   0.10558   0.87154   0.00000  Uiso   1.00
O1068  O     0.83334   0.22775   0.79513   0.00000  Uiso   1.00
O1069  O     0.83333   0.10559   0.79510   0.00000  Uiso   1.00
O1070  O     0.83334   0.22774   0.87157   0.00000  Uiso   1.00
O1071  O     0.75725   0.16666   0.86261   0.00000  Uiso   1.00
O1072  O     0.90942   0.16667   0.80405   0.00000  Uiso   1.00
O1073  O     0.75725   0.16667   0.78617   0.00000  Uiso   1.00
O1074  O     0.90942   0.16666   0.88050   0.00000  Uiso   1.00
Zn1075 Zn    0.83333   0.16666   0.88437   0.00000  Uiso   1.00
Zn1076 Zn    0.83333   0.16667   0.78229   0.00000  Uiso   1.00
O1077  O     0.91283   0.20555   0.96324   0.00000  Uiso   1.00
C1078  C     0.96358   0.19221   0.98425   0.00000  Uiso   1.00
H1079  H     0.98458   0.17980   0.95725   0.00000  Uiso   1.00
H1080  H     0.96395   0.16664   0.67651   0.00000  Uiso   1.00
C1081  C     0.99490   0.22904   0.67323   0.00000  Uiso   1.00
H1082  H     0.97548   0.24227   0.70092   0.00000  Uiso   1.00
H1083  H     0.70185   0.21872   0.68817   0.00000  Uiso   1.00
H1084  H     0.99785   0.25353   0.98061   0.00000  Uiso   1.00
O1085  O     0.75401   0.12806   0.70384   0.00000  Uiso   1.00
C1086  C     0.74740   0.08566   0.69119   0.00000  Uiso   1.00
H1087  H     0.75220   0.06678   0.72304   0.00000  Uiso   1.00
H1088  H     0.77650   0.07334   0.67031   0.00000  Uiso   1.00
C1089  C     0.69188   0.07882   0.99892   0.00000  Uiso   1.00
H1090  H     0.68541   0.09742   0.96690   0.00000  Uiso   1.00
H1091  H     0.68606   0.04539   0.99007   0.00000  Uiso   1.00
H1092  H     0.99592   0.08829   0.68743   0.00000  Uiso   1.00
C1093  C     0.16653   0.41998   0.83329   0.00000  Uiso   1.00
C1094  C     0.16664   0.58002   0.83334   0.00000  Uiso   1.00
C1095  C     0.06698   0.49992   0.82123   0.00000  Uiso   1.00
C1096  C     0.26635   0.49985   0.84539   0.00000  Uiso   1.00
C1097  C     0.01181   0.50000   0.81471   0.00000  Uiso   1.00
C1098  C     0.32151   0.49932   0.85168   0.00000  Uiso   1.00
C1099  C     0.17606   0.35464   0.79419   0.00000  Uiso   1.00
C1100  C     0.15656   0.64537   0.87229   0.00000  Uiso   1.00
C1101  C     0.17615   0.64536   0.79423   0.00000  Uiso   1.00
C1102  C     0.15646   0.35466   0.87225   0.00000  Uiso   1.00
C1103  C     0.16647   0.62419   0.83330   0.00000  Uiso   1.00
C1104  C     0.16632   0.37582   0.83323   0.00000  Uiso   1.00
C1105  C     0.20538   0.51976   0.69619   0.00000  Uiso   1.00
C1106  C     0.12746   0.48075   0.97051   0.00000  Uiso   1.00
C1107  C     0.20676   0.51864   0.98154   0.00000  Uiso   1.00
C1108  C     0.12802   0.47961   0.68547   0.00000  Uiso   1.00
H1109  H     0.32418   0.50084   0.77973   0.00000  Uiso   1.00
H1110  H     0.00929   0.49828   0.88652   0.00000  Uiso   1.00
H1111  H     0.18398   0.37084   0.76389   0.00000  Uiso   1.00
H1112  H     0.14863   0.62916   0.90258   0.00000  Uiso   1.00
H1113  H     0.18414   0.62914   0.76395   0.00000  Uiso   1.00
H1114  H     0.14845   0.37089   0.90252   0.00000  Uiso   1.00
H1115  H     0.23543   0.53623   0.71900   0.00000  Uiso   1.00
H1116  H     0.09575   0.46619   0.94762   0.00000  Uiso   1.00
N1117  N     0.16665   0.49999   0.95240   0.00000  Uiso   1.00
N1118  N     0.16668   0.50001   0.71427   0.00000  Uiso   1.00
O1119  O     0.16666   0.43892   0.87154   0.00000  Uiso   1.00
O1120  O     0.16667   0.56108   0.79513   0.00000  Uiso   1.00
O1121  O     0.16666   0.43893   0.79510   0.00000  Uiso   1.00
O1122  O     0.16667   0.56107   0.87157   0.00000  Uiso   1.00
O1123  O     0.09058   0.50000   0.86261   0.00000  Uiso   1.00
O1124  O     0.24275   0.50000   0.80405   0.00000  Uiso   1.00
O1125  O     0.09058   0.50000   0.78617   0.00000  Uiso   1.00
O1126  O     0.24275   0.50000   0.88050   0.00000  Uiso   1.00
Zn1127 Zn    0.16667   0.49999   0.88437   0.00000  Uiso   1.00
Zn1128 Zn    0.16667   0.50001   0.78229   0.00000  Uiso   1.00
O1129  O     0.24617   0.53888   0.96324   0.00000  Uiso   1.00
C1130  C     0.29692   0.52554   0.98425   0.00000  Uiso   1.00
H1131  H     0.31791   0.51313   0.95725   0.00000  Uiso   1.00
H1132  H     0.29728   0.49998   0.67651   0.00000  Uiso   1.00
C1133  C     0.32823   0.56237   0.67323   0.00000  Uiso   1.00
H1134  H     0.30882   0.57560   0.70092   0.00000  Uiso   1.00
H1135  H     0.03519   0.55205   0.68817   0.00000  Uiso   1.00
H1136  H     0.33118   0.58686   0.98061   0.00000  Uiso   1.00
O1137  O     0.08735   0.46140   0.70384   0.00000  Uiso   1.00
C1138  C     0.08073   0.41899   0.69119   0.00000  Uiso   1.00
H1139  H     0.08554   0.40011   0.72304   0.00000  Uiso   1.00
H1140  H     0.10984   0.40667   0.67031   0.00000  Uiso   1.00
C1141  C     0.02521   0.41215   0.99892   0.00000  Uiso   1.00
H1142  H     0.01875   0.43076   0.96690   0.00000  Uiso   1.00
H1143  H     0.01940   0.37873   0.99007   0.00000  Uiso   1.00
H1144  H     0.32925   0.42162   0.68743   0.00000  Uiso   1.00
C1145  C     0.49986   0.41998   0.83329   0.00000  Uiso   1.00
C1146  C     0.49997   0.58002   0.83334   0.00000  Uiso   1.00
C1147  C     0.40032   0.49992   0.82123   0.00000  Uiso   1.00
C1148  C     0.59968   0.49985   0.84539   0.00000  Uiso   1.00
C1149  C     0.34514   0.50000   0.81471   0.00000  Uiso   1.00
C1150  C     0.65485   0.49932   0.85168   0.00000  Uiso   1.00
C1151  C     0.50939   0.35464   0.79419   0.00000  Uiso   1.00
C1152  C     0.48989   0.64537   0.87229   0.00000  Uiso   1.00
C1153  C     0.50948   0.64536   0.79423   0.00000  Uiso   1.00
C1154  C     0.48979   0.35466   0.87225   0.00000  Uiso   1.00
C1155  C     0.49980   0.62419   0.83330   0.00000  Uiso   1.00
C1156  C     0.49965   0.37582   0.83323   0.00000  Uiso   1.00
C1157  C     0.53871   0.51976   0.69619   0.00000  Uiso   1.00
C1158  C     0.46079   0.48075   0.97051   0.00000  Uiso   1.00
C1159  C     0.54009   0.51864   0.98154   0.00000  Uiso   1.00
C1160  C     0.46136   0.47961   0.68547   0.00000  Uiso   1.00
H1161  H     0.65751   0.50084   0.77973   0.00000  Uiso   1.00
H1162  H     0.34263   0.49828   0.88652   0.00000  Uiso   1.00
H1163  H     0.51732   0.37084   0.76389   0.00000  Uiso   1.00
H1164  H     0.48197   0.62916   0.90258   0.00000  Uiso   1.00
H1165  H     0.51747   0.62914   0.76395   0.00000  Uiso   1.00
H1166  H     0.48179   0.37089   0.90252   0.00000  Uiso   1.00
H1167  H     0.56876   0.53623   0.71900   0.00000  Uiso   1.00
H1168  H     0.42908   0.46619   0.94762   0.00000  Uiso   1.00
N1169  N     0.49999   0.49999   0.95240   0.00000  Uiso   1.00
N1170  N     0.50001   0.50001   0.71427   0.00000  Uiso   1.00
O1171  O     0.50000   0.43892   0.87154   0.00000  Uiso   1.00
O1172  O     0.50000   0.56108   0.79513   0.00000  Uiso   1.00
O1173  O     0.50000   0.43893   0.79510   0.00000  Uiso   1.00
O1174  O     0.50000   0.56107   0.87157   0.00000  Uiso   1.00
O1175  O     0.42392   0.50000   0.86261   0.00000  Uiso   1.00
O1176  O     0.57608   0.50000   0.80405   0.00000  Uiso   1.00
O1177  O     0.42392   0.50000   0.78617   0.00000  Uiso   1.00
O1178  O     0.57608   0.50000   0.88050   0.00000  Uiso   1.00
Zn1179 Zn    0.50000   0.49999   0.88437   0.00000  Uiso   1.00
Zn1180 Zn    0.50000   0.50001   0.78229   0.00000  Uiso   1.00
O1181  O     0.57950   0.53888   0.96324   0.00000  Uiso   1.00
C1182  C     0.63025   0.52554   0.98425   0.00000  Uiso   1.00
H1183  H     0.65124   0.51313   0.95725   0.00000  Uiso   1.00
H1184  H     0.63061   0.49998   0.67651   0.00000  Uiso   1.00
C1185  C     0.66157   0.56237   0.67323   0.00000  Uiso   1.00
H1186  H     0.64215   0.57560   0.70092   0.00000  Uiso   1.00
H1187  H     0.36852   0.55205   0.68817   0.00000  Uiso   1.00
H1188  H     0.66451   0.58686   0.98061   0.00000  Uiso   1.00
O1189  O     0.42068   0.46140   0.70384   0.00000  Uiso   1.00
C1190  C     0.41406   0.41899   0.69119   0.00000  Uiso   1.00
H1191  H     0.41887   0.40011   0.72304   0.00000  Uiso   1.00
H1192  H     0.44317   0.40667   0.67031   0.00000  Uiso   1.00
C1193  C     0.35855   0.41215   0.99892   0.00000  Uiso   1.00
H1194  H     0.35208   0.43076   0.96690   0.00000  Uiso   1.00
H1195  H     0.35273   0.37873   0.99007   0.00000  Uiso   1.00
H1196  H     0.66258   0.42162   0.68743   0.00000  Uiso   1.00
C1197  C     0.83320   0.41998   0.83329   0.00000  Uiso   1.00
C1198  C     0.83331   0.58002   0.83334   0.00000  Uiso   1.00
C1199  C     0.73365   0.49992   0.82123   0.00000  Uiso   1.00
C1200  C     0.93301   0.49985   0.84539   0.00000  Uiso   1.00
C1201  C     0.67847   0.50000   0.81471   0.00000  Uiso   1.00
C1202  C     0.98818   0.49932   0.85168   0.00000  Uiso   1.00
C1203  C     0.84273   0.35464   0.79419   0.00000  Uiso   1.00
C1204  C     0.82323   0.64537   0.87229   0.00000  Uiso   1.00
C1205  C     0.84281   0.64536   0.79423   0.00000  Uiso   1.00
C1206  C     0.82313   0.35466   0.87225   0.00000  Uiso   1.00
C1207  C     0.83313   0.62419   0.83330   0.00000  Uiso   1.00
C1208  C     0.83298   0.37582   0.83323   0.00000  Uiso   1.00
C1209  C     0.87205   0.51976   0.69619   0.00000  Uiso   1.00
C1210  C     0.79413   0.48075   0.97051   0.00000  Uiso   1.00
C1211  C     0.87342   0.51864   0.98154   0.00000  Uiso   1.00
C1212  C     0.79469   0.47961   0.68547   0.00000  Uiso   1.00
H1213  H     0.99085   0.50084   0.77973   0.00000  Uiso   1.00
H1214  H     0.67596   0.49828   0.88652   0.00000  Uiso   1.00
H1215  H     0.85065   0.37084   0.76389   0.00000  Uiso   1.00
H1216  H     0.81530   0.62916   0.90258   0.00000  Uiso   1.00
H1217  H     0.85080   0.62914   0.76395   0.00000  Uiso   1.00
H1218  H     0.81512   0.37089   0.90252   0.00000  Uiso   1.00
H1219  H     0.90210   0.53623   0.71900   0.00000  Uiso   1.00
H1220  H     0.76241   0.46619   0.94762   0.00000  Uiso   1.00
N1221  N     0.83332   0.49999   0.95240   0.00000  Uiso   1.00
N1222  N     0.83335   0.50001   0.71427   0.00000  Uiso   1.00
O1223  O     0.83333   0.43892   0.87154   0.00000  Uiso   1.00
O1224  O     0.83334   0.56108   0.79513   0.00000  Uiso   1.00
O1225  O     0.83333   0.43893   0.79510   0.00000  Uiso   1.00
O1226  O     0.83334   0.56107   0.87157   0.00000  Uiso   1.00
O1227  O     0.75725   0.50000   0.86261   0.00000  Uiso   1.00
O1228  O     0.90942   0.50000   0.80405   0.00000  Uiso   1.00
O1229  O     0.75725   0.50000   0.78617   0.00000  Uiso   1.00
O1230  O     0.90942   0.50000   0.88050   0.00000  Uiso   1.00
Zn1231 Zn    0.83333   0.49999   0.88437   0.00000  Uiso   1.00
Zn1232 Zn    0.83333   0.50001   0.78229   0.00000  Uiso   1.00
O1233  O     0.91283   0.53888   0.96324   0.00000  Uiso   1.00
C1234  C     0.96358   0.52554   0.98425   0.00000  Uiso   1.00
H1235  H     0.98458   0.51313   0.95725   0.00000  Uiso   1.00
H1236  H     0.96395   0.49998   0.67651   0.00000  Uiso   1.00
C1237  C     0.99490   0.56237   0.67323   0.00000  Uiso   1.00
H1238  H     0.97548   0.57560   0.70092   0.00000  Uiso   1.00
H1239  H     0.70185   0.55205   0.68817   0.00000  Uiso   1.00
H1240  H     0.99785   0.58686   0.98061   0.00000  Uiso   1.00
O1241  O     0.75401   0.46140   0.70384   0.00000  Uiso   1.00
C1242  C     0.74740   0.41899   0.69119   0.00000  Uiso   1.00
H1243  H     0.75220   0.40011   0.72304   0.00000  Uiso   1.00
H1244  H     0.77650   0.40667   0.67031   0.00000  Uiso   1.00
C1245  C     0.69188   0.41215   0.99892   0.00000  Uiso   1.00
H1246  H     0.68541   0.43076   0.96690   0.00000  Uiso   1.00
H1247  H     0.68606   0.37873   0.99007   0.00000  Uiso   1.00
H1248  H     0.99592   0.42162   0.68743   0.00000  Uiso   1.00
C1249  C     0.16653   0.75331   0.83329   0.00000  Uiso   1.00
C1250  C     0.16664   0.91336   0.83334   0.00000  Uiso   1.00
C1251  C     0.06698   0.83325   0.82123   0.00000  Uiso   1.00
C1252  C     0.26635   0.83318   0.84539   0.00000  Uiso   1.00
C1253  C     0.01181   0.83333   0.81471   0.00000  Uiso   1.00
C1254  C     0.32151   0.83265   0.85168   0.00000  Uiso   1.00
C1255  C     0.17606   0.68797   0.79419   0.00000  Uiso   1.00
C1256  C     0.15656   0.97871   0.87229   0.00000  Uiso   1.00
C1257  C     0.17615   0.97869   0.79423   0.00000  Uiso   1.00
C1258  C     0.15646   0.68799   0.87225   0.00000  Uiso   1.00
C1259  C     0.16647   0.95752   0.83330   0.00000  Uiso   1.00
C1260  C     0.16632   0.70916   0.83323   0.00000  Uiso   1.00
C1261  C     0.20538   0.85309   0.69619   0.00000  Uiso   1.00
C1262  C     0.12746   0.81409   0.97051   0.00000  Uiso   1.00
C1263  C     0.20676   0.85197   0.98154   0.00000  Uiso   1.00
C1264  C     0.12802   0.81294   0.68547   0.00000  Uiso   1.00
H1265  H     0.32418   0.83417   0.77973   0.00000  Uiso   1.00
H1266  H     0.00929   0.83161   0.88652   0.00000  Uiso   1.00
H1267  H     0.18398   0.70418   0.76389   0.00000  Uiso   1.00
H1268  H     0.14863   0.96249   0.90258   0.00000  Uiso   1.00
H1269  H     0.18414   0.96247   0.76395   0.00000  Uiso   1.00
H1270  H     0.14845   0.70422   0.90252   0.00000  Uiso   1.00
H1271  H     0.23543   0.86957   0.71900   0.00000  Uiso   1.00
H1272  H     0.09575   0.79952   0.94762   0.00000  Uiso   1.00
N1273  N     0.16665   0.83332   0.95240   0.00000  Uiso   1.00
N1274  N     0.16668   0.83334   0.71427   0.00000  Uiso   1.00
O1275  O     0.16666   0.77225   0.87154   0.00000  Uiso   1.00
O1276  O     0.16667   0.89442   0.79513   0.00000  Uiso   1.00
O1277  O     0.16666   0.77226   0.79510   0.00000  Uiso   1.00
O1278  O     0.16667   0.89441   0.87157   0.00000  Uiso   1.00
O1279  O     0.09058   0.83333   0.86261   0.00000  Uiso   1.00
O1280  O     0.24275   0.83334   0.80405   0.00000  Uiso   1.00
O1281  O     0.09058   0.83334   0.78617   0.00000  Uiso   1.00
O1282  O     0.24275   0.83333   0.88050   0.00000  Uiso   1.00
Zn1283 Zn    0.16667   0.83333   0.88437   0.00000  Uiso   1.00
Zn1284 Zn    0.16667   0.83334   0.78229   0.00000  Uiso   1.00
O1285  O     0.24617   0.87221   0.96324   0.00000  Uiso   1.00
C1286  C     0.29692   0.85887   0.98425   0.00000  Uiso   1.00
H1287  H     0.31791   0.84646   0.95725   0.00000  Uiso   1.00
H1288  H     0.29728   0.83331   0.67651   0.00000  Uiso   1.00
C1289  C     0.32823   0.89570   0.67323   0.00000  Uiso   1.00
H1290  H     0.30882   0.90894   0.70092   0.00000  Uiso   1.00
H1291  H     0.03519   0.88538   0.68817   0.00000  Uiso   1.00
H1292  H     0.33118   0.92020   0.98061   0.00000  Uiso   1.00
O1293  O     0.08735   0.79473   0.70384   0.00000  Uiso   1.00
C1294  C     0.08073   0.75233   0.69119   0.00000  Uiso   1.00
H1295  H     0.08554   0.73345   0.72304   0.00000  Uiso   1.00
H1296  H     0.10984   0.74001   0.67031   0.00000  Uiso   1.00
C1297  C     0.02521   0.74548   0.99892   0.00000  Uiso   1.00
H1298  H     0.01875   0.76409   0.96690   0.00000  Uiso   1.00
H1299  H     0.01940   0.71206   0.99007   0.00000  Uiso   1.00
H1300  H     0.32925   0.75496   0.68743   0.00000  Uiso   1.00
C1301  C     0.49986   0.75331   0.83329   0.00000  Uiso   1.00
C1302  C     0.49997   0.91336   0.83334   0.00000  Uiso   1.00
C1303  C     0.40032   0.83325   0.82123   0.00000  Uiso   1.00
C1304  C     0.59968   0.83318   0.84539   0.00000  Uiso   1.00
C1305  C     0.34514   0.83333   0.81471   0.00000  Uiso   1.00
C1306  C     0.65485   0.83265   0.85168   0.00000  Uiso   1.00
C1307  C     0.50939   0.68797   0.79419   0.00000  Uiso   1.00
C1308  C     0.48989   0.97871   0.87229   0.00000  Uiso   1.00
C1309  C     0.50948   0.97869   0.79423   0.00000  Uiso   1.00
C1310  C     0.48979   0.68799   0.87225   0.00000  Uiso   1.00
C1311  C     0.49980   0.95752   0.83330   0.00000  Uiso   1.00
C1312  C     0.49965   0.70916   0.83323   0.00000  Uiso   1.00
C1313  C     0.53871   0.85309   0.69619   0.00000  Uiso   1.00
C1314  C     0.46079   0.81409   0.97051   0.00000  Uiso   1.00
C1315  C     0.54009   0.85197   0.98154   0.00000  Uiso   1.00
C1316  C     0.46136   0.81294   0.68547   0.00000  Uiso   1.00
H1317  H     0.65751   0.83417   0.77973   0.00000  Uiso   1.00
H1318  H     0.34263   0.83161   0.88652   0.00000  Uiso   1.00
H1319  H     0.51732   0.70418   0.76389   0.00000  Uiso   1.00
H1320  H     0.48197   0.96249   0.90258   0.00000  Uiso   1.00
H1321  H     0.51747   0.96247   0.76395   0.00000  Uiso   1.00
H1322  H     0.48179   0.70422   0.90252   0.00000  Uiso   1.00
H1323  H     0.56876   0.86957   0.71900   0.00000  Uiso   1.00
H1324  H     0.42908   0.79952   0.94762   0.00000  Uiso   1.00
N1325  N     0.49999   0.83332   0.95240   0.00000  Uiso   1.00
N1326  N     0.50001   0.83334   0.71427   0.00000  Uiso   1.00
O1327  O     0.50000   0.77225   0.87154   0.00000  Uiso   1.00
O1328  O     0.50000   0.89442   0.79513   0.00000  Uiso   1.00
O1329  O     0.50000   0.77226   0.79510   0.00000  Uiso   1.00
O1330  O     0.50000   0.89441   0.87157   0.00000  Uiso   1.00
O1331  O     0.42392   0.83333   0.86261   0.00000  Uiso   1.00
O1332  O     0.57608   0.83334   0.80405   0.00000  Uiso   1.00
O1333  O     0.42392   0.83334   0.78617   0.00000  Uiso   1.00
O1334  O     0.57608   0.83333   0.88050   0.00000  Uiso   1.00
Zn1335 Zn    0.50000   0.83333   0.88437   0.00000  Uiso   1.00
Zn1336 Zn    0.50000   0.83334   0.78229   0.00000  Uiso   1.00
O1337  O     0.57950   0.87221   0.96324   0.00000  Uiso   1.00
C1338  C     0.63025   0.85887   0.98425   0.00000  Uiso   1.00
H1339  H     0.65124   0.84646   0.95725   0.00000  Uiso   1.00
H1340  H     0.63061   0.83331   0.67651   0.00000  Uiso   1.00
C1341  C     0.66157   0.89570   0.67323   0.00000  Uiso   1.00
H1342  H     0.64215   0.90894   0.70092   0.00000  Uiso   1.00
H1343  H     0.36852   0.88538   0.68817   0.00000  Uiso   1.00
H1344  H     0.66451   0.92020   0.98061   0.00000  Uiso   1.00
O1345  O     0.42068   0.79473   0.70384   0.00000  Uiso   1.00
C1346  C     0.41406   0.75233   0.69119   0.00000  Uiso   1.00
H1347  H     0.41887   0.73345   0.72304   0.00000  Uiso   1.00
H1348  H     0.44317   0.74001   0.67031   0.00000  Uiso   1.00
C1349  C     0.35855   0.74548   0.99892   0.00000  Uiso   1.00
H1350  H     0.35208   0.76409   0.96690   0.00000  Uiso   1.00
H1351  H     0.35273   0.71206   0.99007   0.00000  Uiso   1.00
H1352  H     0.66258   0.75496   0.68743   0.00000  Uiso   1.00
C1353  C     0.83320   0.75331   0.83329   0.00000  Uiso   1.00
C1354  C     0.83331   0.91336   0.83334   0.00000  Uiso   1.00
C1355  C     0.73365   0.83325   0.82123   0.00000  Uiso   1.00
C1356  C     0.93301   0.83318   0.84539   0.00000  Uiso   1.00
C1357  C     0.67847   0.83333   0.81471   0.00000  Uiso   1.00
C1358  C     0.98818   0.83265   0.85168   0.00000  Uiso   1.00
C1359  C     0.84273   0.68797   0.79419   0.00000  Uiso   1.00
C1360  C     0.82323   0.97871   0.87229   0.00000  Uiso   1.00
C1361  C     0.84281   0.97869   0.79423   0.00000  Uiso   1.00
C1362  C     0.82313   0.68799   0.87225   0.00000  Uiso   1.00
C1363  C     0.83313   0.95752   0.83330   0.00000  Uiso   1.00
C1364  C     0.83298   0.70916   0.83323   0.00000  Uiso   1.00
C1365  C     0.87205   0.85309   0.69619   0.00000  Uiso   1.00
C1366  C     0.79413   0.81409   0.97051   0.00000  Uiso   1.00
C1367  C     0.87342   0.85197   0.98154   0.00000  Uiso   1.00
C1368  C     0.79469   0.81294   0.68547   0.00000  Uiso   1.00
H1369  H     0.99085   0.83417   0.77973   0.00000  Uiso   1.00
H1370  H     0.67596   0.83161   0.88652   0.00000  Uiso   1.00
H1371  H     0.85065   0.70418   0.76389   0.00000  Uiso   1.00
H1372  H     0.81530   0.96249   0.90258   0.00000  Uiso   1.00
H1373  H     0.85080   0.96247   0.76395   0.00000  Uiso   1.00
H1374  H     0.81512   0.70422   0.90252   0.00000  Uiso   1.00
H1375  H     0.90210   0.86957   0.71900   0.00000  Uiso   1.00
H1376  H     0.76241   0.79952   0.94762   0.00000  Uiso   1.00
N1377  N     0.83332   0.83332   0.95240   0.00000  Uiso   1.00
N1378  N     0.83335   0.83334   0.71427   0.00000  Uiso   1.00
O1379  O     0.83333   0.77225   0.87154   0.00000  Uiso   1.00
O1380  O     0.83334   0.89442   0.79513   0.00000  Uiso   1.00
O1381  O     0.83333   0.77226   0.79510   0.00000  Uiso   1.00
O1382  O     0.83334   0.89441   0.87157   0.00000  Uiso   1.00
O1383  O     0.75725   0.83333   0.86261   0.00000  Uiso   1.00
O1384  O     0.90942   0.83334   0.80405   0.00000  Uiso   1.00
O1385  O     0.75725   0.83334   0.78617   0.00000  Uiso   1.00
O1386  O     0.90942   0.83333   0.88050   0.00000  Uiso   1.00
Zn1387 Zn    0.83333   0.83333   0.88437   0.00000  Uiso   1.00
Zn1388 Zn    0.83333   0.83334   0.78229   0.00000  Uiso   1.00
O1389  O     0.91283   0.87221   0.96324   0.00000  Uiso   1.00
C1390  C     0.96358   0.85887   0.98425   0.00000  Uiso   1.00
H1391  H     0.98458   0.84646   0.95725   0.00000  Uiso   1.00
H1392  H     0.96395   0.83331   0.67651   0.00000  Uiso   1.00
C1393  C     0.99490   0.89570   0.67323   0.00000  Uiso   1.00
H1394  H     0.97548   0.90894   0.70092   0.00000  Uiso   1.00
H1395  H     0.70185   0.88538   0.68817   0.00000  Uiso   1.00
H1396  H     0.99785   0.92020   0.98061   0.00000  Uiso   1.00
O1397  O     0.75401   0.79473   0.70384   0.00000  Uiso   1.00
C1398  C     0.74740   0.75233   0.69119   0.00000  Uiso   1.00
H1399  H     0.75220   0.73345   0.72304   0.00000  Uiso   1.00
H1400  H     0.77650   0.74001   0.67031   0.00000  Uiso   1.00
C1401  C     0.69188   0.74548   0.99892   0.00000  Uiso   1.00
H1402  H     0.68541   0.76409   0.96690   0.00000  Uiso   1.00
H1403  H     0.68606   0.71206   0.99007   0.00000  Uiso   1.00
H1404  H     0.99592   0.75496   0.68743   0.00000  Uiso   1.00
loop_
_geom_bond_atom_site_label_1
_geom_bond_atom_site_label_2
_geom_bond_distance
_geom_bond_site_symmetry_2
_ccdc_geom_bond_type
C1     O29     1.284   .     A
C1     C12     1.419   .     S
C1     O27     1.284   .     A
C2     O30     1.284   .     A
C2     C11     1.419   .     S
C2     O28     1.284   .     A
C3     O31     1.277   .     A
C3     C5      1.403   .     S
C3     O33     1.283   .     A
C4     O34     1.284   .     A
C4     O32     1.275   .     A
C4     C6      1.403   .     S
C5     C110    1.333   1_455 S
C5     H121    1.088   1_455 S
C6     C57     1.333   .     S
C6     H70     1.086   .     S
C7     H19     1.084   .     S
C7     C12     1.397   .     A
C7     C321    1.370   1_545 S
C8     H20     1.084   .     S
C8     C11     1.397   .     A
C8     C166    1.370   .     S
C9     C11     1.397   .     A
C9     H21     1.084   .     S
C9     C163    1.370   .     S
C10    H22     1.084   .     S
C10    C12     1.397   .     A
C10    C320    1.370   1_545 S
C13    H23     1.081   .     S
C13    N26     1.361   .     A
C13    C951    1.426   1_554 S
C14    N25     1.364   .     A
C14    H24     1.081   .     S
C14    C484    1.426   .     S
C15    N25     1.373   .     A
C15    O37     1.386   .     S
C15    C481    1.426   .     S
C16    O45     1.384   .     S
C16    N26     1.370   .     A
C16    C950    1.426   1_554 S
H17    C57     1.088   .     S
H18    C110    1.086   1_455 S
N25    Zn35    2.012   .     S
N26    Zn36    2.012   .     S
O27    Zn35    1.999   .     S
O28    Zn36    1.999   .     S
O29    Zn36    1.999   .     S
O30    Zn35    1.999   .     S
O31    Zn35    1.962   .     S
O32    Zn36    1.962   .     S
O33    Zn36    1.980   .     S
O34    Zn35    1.980   .     S
O37    C38     1.420   .     S
C38    H39     1.107   .     S
C38    H508    1.116   .     S
C38    C509    1.523   .     S
H40    C974    1.116   1_554 S
C41    H42     1.110   .     S
C41    C974    1.523   1_554 S
C41    H95     1.111   .     S
C41    H980    1.111   1_554 S
H43    C145    1.111   1_455 S
H44    C509    1.111   .     S
O45    C46     1.416   .     S
C46    H48     1.117   .     S
C46    H47     1.111   .     S
C46    C985    1.523   1_554 S
C49    H50     1.110   .     S
C49    H51     1.110   .     S
C49    C514    1.523   .     S
C49    H624    1.111   1_455 S
H52    C1037   1.111   1_554 S
C53    O81     1.284   .     A
C53    C64     1.419   .     S
C53    O79     1.284   .     A
C54    O82     1.284   .     A
C54    C63     1.419   .     S
C54    O80     1.284   .     A
C55    O83     1.277   .     A
C55    C57     1.403   .     S
C55    O85     1.283   .     A
C56    O86     1.284   .     A
C56    O84     1.275   .     A
C56    C58     1.403   .     S
C58    C109    1.333   .     S
C58    H122    1.086   .     S
C59    H71     1.084   .     S
C59    C64     1.397   .     A
C59    C373    1.370   1_545 S
C60    H72     1.084   .     S
C60    C63     1.397   .     A
C60    C218    1.370   .     S
C61    C63     1.397   .     A
C61    H73     1.084   .     S
C61    C215    1.370   .     S
C62    H74     1.084   .     S
C62    C64     1.397   .     A
C62    C372    1.370   1_545 S
C65    H75     1.081   .     S
C65    N78     1.361   .     A
C65    C1003   1.426   1_554 S
C66    N77     1.364   .     A
C66    H76     1.081   .     S
C66    C536    1.426   .     S
C67    N77     1.373   .     A
C67    O89     1.386   .     S
C67    C533    1.426   .     S
C68    O97     1.384   .     S
C68    N78     1.370   .     A
C68    C1002   1.426   1_554 S
H69    C109    1.088   .     S
N77    Zn87    2.012   .     S
N78    Zn88    2.012   .     S
O79    Zn87    1.999   .     S
O80    Zn88    1.999   .     S
O81    Zn88    1.999   .     S
O82    Zn87    1.999   .     S
O83    Zn87    1.962   .     S
O84    Zn88    1.962   .     S
O85    Zn88    1.980   .     S
O86    Zn87    1.980   .     S
O89    C90     1.420   .     S
C90    H91     1.107   .     S
C90    H560    1.116   .     S
C90    C561    1.523   .     S
H92    C1026   1.116   1_554 S
C93    H94     1.110   .     S
C93    C1026   1.523   1_554 S
C93    H147    1.111   .     S
C93    H1032   1.111   1_554 S
H96    C561    1.111   .     S
O97    C98     1.416   .     S
C98    H100    1.117   .     S
C98    H99     1.111   .     S
C98    C1037   1.523   1_554 S
C101   H102    1.110   .     S
C101   H103    1.110   .     S
C101   C566    1.523   .     S
C101   H520    1.111   .     S
H104   C1089   1.111   1_554 S
C105   O133    1.284   .     A
C105   C116    1.419   .     S
C105   O131    1.284   .     A
C106   O134    1.284   .     A
C106   C115    1.419   .     S
C106   O132    1.284   .     A
C107   O135    1.277   .     A
C107   C109    1.403   .     S
C107   O137    1.283   .     A
C108   O138    1.284   .     A
C108   O136    1.275   .     A
C108   C110    1.403   .     S
C110   C5      1.333   1_655 S
C110   H18     1.086   1_655 S
C111   H123    1.084   .     S
C111   C116    1.397   .     A
C111   C425    1.370   1_545 S
C112   H124    1.084   .     S
C112   C115    1.397   .     A
C112   C270    1.370   .     S
C113   C115    1.397   .     A
C113   H125    1.084   .     S
C113   C267    1.370   .     S
C114   H126    1.084   .     S
C114   C116    1.397   .     A
C114   C424    1.370   1_545 S
C117   H127    1.081   .     S
C117   N130    1.361   .     A
C117   C1055   1.426   1_554 S
C118   N129    1.364   .     A
C118   H128    1.081   .     S
C118   C588    1.426   .     S
C119   N129    1.373   .     A
C119   O141    1.386   .     S
C119   C585    1.426   .     S
C120   O149    1.384   .     S
C120   N130    1.370   .     A
C120   C1054   1.426   1_554 S
H121   C5      1.088   1_655 S
N129   Zn139   2.012   .     S
N130   Zn140   2.012   .     S
O131   Zn139   1.999   .     S
O132   Zn140   1.999   .     S
O133   Zn140   1.999   .     S
O134   Zn139   1.999   .     S
O135   Zn139   1.962   .     S
O136   Zn140   1.962   .     S
O137   Zn140   1.980   .     S
O138   Zn139   1.980   .     S
O141   C142    1.420   .     S
C142   H143    1.107   .     S
C142   H612    1.116   .     S
C142   C613    1.523   .     S
H144   C1078   1.116   1_554 S
C145   H146    1.110   .     S
C145   C1078   1.523   1_554 S
C145   H43     1.111   1_655 S
C145   H1084   1.111   1_554 S
H148   C613    1.111   .     S
O149   C150    1.416   .     S
C150   H152    1.117   .     S
C150   H151    1.111   .     S
C150   C1089   1.523   1_554 S
C153   H154    1.110   .     S
C153   H155    1.110   .     S
C153   C618    1.523   .     S
C153   H572    1.111   .     S
H156   C985    1.111   1_654 S
C157   O185    1.284   .     A
C157   C168    1.419   .     S
C157   O183    1.284   .     A
C158   O186    1.284   .     A
C158   C167    1.419   .     S
C158   O184    1.284   .     A
C159   O187    1.277   .     A
C159   C161    1.403   .     S
C159   O189    1.283   .     A
C160   O190    1.284   .     A
C160   O188    1.275   .     A
C160   C162    1.403   .     S
C161   C266    1.333   1_455 S
C161   H277    1.088   1_455 S
C162   C213    1.333   .     S
C162   H226    1.086   .     S
C163   H175    1.084   .     S
C163   C168    1.397   .     A
C164   H176    1.084   .     S
C164   C167    1.397   .     A
C164   C322    1.370   .     S
C165   C167    1.397   .     A
C165   H177    1.084   .     S
C165   C319    1.370   .     S
C166   H178    1.084   .     S
C166   C168    1.397   .     A
C169   H179    1.081   .     S
C169   N182    1.361   .     A
C169   C1107   1.426   1_554 S
C170   N181    1.364   .     A
C170   H180    1.081   .     S
C170   C640    1.426   .     S
C171   N181    1.373   .     A
C171   O193    1.386   .     S
C171   C637    1.426   .     S
C172   O201    1.384   .     S
C172   N182    1.370   .     A
C172   C1106   1.426   1_554 S
H173   C213    1.088   .     S
H174   C266    1.086   1_455 S
N181   Zn191   2.012   .     S
N182   Zn192   2.012   .     S
O183   Zn191   1.999   .     S
O184   Zn192   1.999   .     S
O185   Zn192   1.999   .     S
O186   Zn191   1.999   .     S
O187   Zn191   1.962   .     S
O188   Zn192   1.962   .     S
O189   Zn192   1.980   .     S
O190   Zn191   1.980   .     S
O193   C194    1.420   .     S
C194   H195    1.107   .     S
C194   H664    1.116   .     S
C194   C665    1.523   .     S
H196   C1130   1.116   1_554 S
C197   H198    1.110   .     S
C197   C1130   1.523   1_554 S
C197   H251    1.111   .     S
C197   H1136   1.111   1_554 S
H199   C301    1.111   1_455 S
H200   C665    1.111   .     S
O201   C202    1.416   .     S
C202   H204    1.117   .     S
C202   H203    1.111   .     S
C202   C1141   1.523   1_554 S
C205   H206    1.110   .     S
C205   H207    1.110   .     S
C205   C670    1.523   .     S
C205   H780    1.111   1_455 S
H208   C1193   1.111   1_554 S
C209   O237    1.284   .     A
C209   C220    1.419   .     S
C209   O235    1.284   .     A
C210   O238    1.284   .     A
C210   C219    1.419   .     S
C210   O236    1.284   .     A
C211   O239    1.277   .     A
C211   C213    1.403   .     S
C211   O241    1.283   .     A
C212   O242    1.284   .     A
C212   O240    1.275   .     A
C212   C214    1.403   .     S
C214   C265    1.333   .     S
C214   H278    1.086   .     S
C215   H227    1.084   .     S
C215   C220    1.397   .     A
C216   H228    1.084   .     S
C216   C219    1.397   .     A
C216   C374    1.370   .     S
C217   C219    1.397   .     A
C217   H229    1.084   .     S
C217   C371    1.370   .     S
C218   H230    1.084   .     S
C218   C220    1.397   .     A
C221   H231    1.081   .     S
C221   N234    1.361   .     A
C221   C1159   1.426   1_554 S
C222   N233    1.364   .     A
C222   H232    1.081   .     S
C222   C692    1.426   .     S
C223   N233    1.373   .     A
C223   O245    1.386   .     S
C223   C689    1.426   .     S
C224   O253    1.384   .     S
C224   N234    1.370   .     A
C224   C1158   1.426   1_554 S
H225   C265    1.088   .     S
N233   Zn243   2.012   .     S
N234   Zn244   2.012   .     S
O235   Zn243   1.999   .     S
O236   Zn244   1.999   .     S
O237   Zn244   1.999   .     S
O238   Zn243   1.999   .     S
O239   Zn243   1.962   .     S
O240   Zn244   1.962   .     S
O241   Zn244   1.980   .     S
O242   Zn243   1.980   .     S
O245   C246    1.420   .     S
C246   H247    1.107   .     S
C246   H716    1.116   .     S
C246   C717    1.523   .     S
H248   C1182   1.116   1_554 S
C249   H250    1.110   .     S
C249   C1182   1.523   1_554 S
C249   H303    1.111   .     S
C249   H1188   1.111   1_554 S
H252   C717    1.111   .     S
O253   C254    1.416   .     S
C254   H256    1.117   .     S
C254   H255    1.111   .     S
C254   C1193   1.523   1_554 S
C257   H258    1.110   .     S
C257   H259    1.110   .     S
C257   C722    1.523   .     S
C257   H676    1.111   .     S
H260   C1245   1.111   1_554 S
C261   O289    1.284   .     A
C261   C272    1.419   .     S
C261   O287    1.284   .     A
C262   O290    1.284   .     A
C262   C271    1.419   .     S
C262   O288    1.284   .     A
C263   O291    1.277   .     A
C263   C265    1.403   .     S
C263   O293    1.283   .     A
C264   O294    1.284   .     A
C264   O292    1.275   .     A
C264   C266    1.403   .     S
C266   C161    1.333   1_655 S
C266   H174    1.086   1_655 S
C267   H279    1.084   .     S
C267   C272    1.397   .     A
C268   H280    1.084   .     S
C268   C271    1.397   .     A
C268   C426    1.370   .     S
C269   C271    1.397   .     A
C269   H281    1.084   .     S
C269   C423    1.370   .     S
C270   H282    1.084   .     S
C270   C272    1.397   .     A
C273   H283    1.081   .     S
C273   N286    1.361   .     A
C273   C1211   1.426   1_554 S
C274   N285    1.364   .     A
C274   H284    1.081   .     S
C274   C744    1.426   .     S
C275   N285    1.373   .     A
C275   O297    1.386   .     S
C275   C741    1.426   .     S
C276   O305    1.384   .     S
C276   N286    1.370   .     A
C276   C1210   1.426   1_554 S
H277   C161    1.088   1_655 S
N285   Zn295   2.012   .     S
N286   Zn296   2.012   .     S
O287   Zn295   1.999   .     S
O288   Zn296   1.999   .     S
O289   Zn296   1.999   .     S
O290   Zn295   1.999   .     S
O291   Zn295   1.962   .     S
O292   Zn296   1.962   .     S
O293   Zn296   1.980   .     S
O294   Zn295   1.980   .     S
O297   C298    1.420   .     S
C298   H299    1.107   .     S
C298   H768    1.116   .     S
C298   C769    1.523   .     S
H300   C1234   1.116   1_554 S
C301   H302    1.110   .     S
C301   C1234   1.523   1_554 S
C301   H199    1.111   1_655 S
C301   H1240   1.111   1_554 S
H304   C769    1.111   .     S
O305   C306    1.416   .     S
C306   H308    1.117   .     S
C306   H307    1.111   .     S
C306   C1245   1.523   1_554 S
C309   H310    1.110   .     S
C309   H311    1.110   .     S
C309   C774    1.523   .     S
C309   H728    1.111   .     S
H312   C1141   1.111   1_654 S
C313   O341    1.284   .     A
C313   C324    1.419   .     S
C313   O339    1.284   .     A
C314   O342    1.284   .     A
C314   C323    1.419   .     S
C314   O340    1.284   .     A
C315   O343    1.277   .     A
C315   C317    1.403   .     S
C315   O345    1.283   .     A
C316   O346    1.284   .     A
C316   O344    1.275   .     A
C316   C318    1.403   .     S
C317   C422    1.333   1_455 S
C317   H433    1.088   1_455 S
C318   C369    1.333   .     S
C318   H382    1.086   .     S
C319   H331    1.084   .     S
C319   C324    1.397   .     A
C320   H332    1.084   .     S
C320   C323    1.397   .     A
C320   C10     1.370   1_565 S
C321   C323    1.397   .     A
C321   H333    1.084   .     S
C321   C7      1.370   1_565 S
C322   H334    1.084   .     S
C322   C324    1.397   .     A
C325   H335    1.081   .     S
C325   N338    1.361   .     A
C325   C1263   1.426   1_554 S
C326   N337    1.364   .     A
C326   H336    1.081   .     S
C326   C796    1.426   .     S
C327   N337    1.373   .     A
C327   O349    1.386   .     S
C327   C793    1.426   .     S
C328   O357    1.384   .     S
C328   N338    1.370   .     A
C328   C1262   1.426   1_554 S
H329   C369    1.088   .     S
H330   C422    1.086   1_455 S
N337   Zn347   2.012   .     S
N338   Zn348   2.012   .     S
O339   Zn347   1.999   .     S
O340   Zn348   1.999   .     S
O341   Zn348   1.999   .     S
O342   Zn347   1.999   .     S
O343   Zn347   1.962   .     S
O344   Zn348   1.962   .     S
O345   Zn348   1.980   .     S
O346   Zn347   1.980   .     S
O349   C350    1.420   .     S
C350   H351    1.107   .     S
C350   H820    1.116   .     S
C350   C821    1.523   .     S
H352   C1286   1.116   1_554 S
C353   H354    1.110   .     S
C353   C1286   1.523   1_554 S
C353   H407    1.111   .     S
C353   H1292   1.111   1_554 S
H355   C457    1.111   1_455 S
H356   C821    1.111   .     S
O357   C358    1.416   .     S
C358   H360    1.117   .     S
C358   H359    1.111   .     S
C358   C1297   1.523   1_554 S
C361   H362    1.110   .     S
C361   H363    1.110   .     S
C361   C826    1.523   .     S
C361   H936    1.111   1_455 S
H364   C1349   1.111   1_554 S
C365   O393    1.284   .     A
C365   C376    1.419   .     S
C365   O391    1.284   .     A
C366   O394    1.284   .     A
C366   C375    1.419   .     S
C366   O392    1.284   .     A
C367   O395    1.277   .     A
C367   C369    1.403   .     S
C367   O397    1.283   .     A
C368   O398    1.284   .     A
C368   O396    1.275   .     A
C368   C370    1.403   .     S
C370   C421    1.333   .     S
C370   H434    1.086   .     S
C371   H383    1.084   .     S
C371   C376    1.397   .     A
C372   H384    1.084   .     S
C372   C375    1.397   .     A
C372   C62     1.370   1_565 S
C373   C375    1.397   .     A
C373   H385    1.084   .     S
C373   C59     1.370   1_565 S
C374   H386    1.084   .     S
C374   C376    1.397   .     A
C377   H387    1.081   .     S
C377   N390    1.361   .     A
C377   C1315   1.426   1_554 S
C378   N389    1.364   .     A
C378   H388    1.081   .     S
C378   C848    1.426   .     S
C379   N389    1.373   .     A
C379   O401    1.386   .     S
C379   C845    1.426   .     S
C380   O409    1.384   .     S
C380   N390    1.370   .     A
C380   C1314   1.426   1_554 S
H381   C421    1.088   .     S
N389   Zn399   2.012   .     S
N390   Zn400   2.012   .     S
O391   Zn399   1.999   .     S
O392   Zn400   1.999   .     S
O393   Zn400   1.999   .     S
O394   Zn399   1.999   .     S
O395   Zn399   1.962   .     S
O396   Zn400   1.962   .     S
O397   Zn400   1.980   .     S
O398   Zn399   1.980   .     S
O401   C402    1.420   .     S
C402   H403    1.107   .     S
C402   H872    1.116   .     S
C402   C873    1.523   .     S
H404   C1338   1.116   1_554 S
C405   H406    1.110   .     S
C405   C1338   1.523   1_554 S
C405   H459    1.111   .     S
C405   H1344   1.111   1_554 S
H408   C873    1.111   .     S
O409   C410    1.416   .     S
C410   H412    1.117   .     S
C410   H411    1.111   .     S
C410   C1349   1.523   1_554 S
C413   H414    1.110   .     S
C413   H415    1.110   .     S
C413   C878    1.523   .     S
C413   H832    1.111   .     S
H416   C1401   1.111   1_554 S
C417   O445    1.284   .     A
C417   C428    1.419   .     S
C417   O443    1.284   .     A
C418   O446    1.284   .     A
C418   C427    1.419   .     S
C418   O444    1.284   .     A
C419   O447    1.277   .     A
C419   C421    1.403   .     S
C419   O449    1.283   .     A
C420   O450    1.284   .     A
C420   O448    1.275   .     A
C420   C422    1.403   .     S
C422   C317    1.333   1_655 S
C422   H330    1.086   1_655 S
C423   H435    1.084   .     S
C423   C428    1.397   .     A
C424   H436    1.084   .     S
C424   C427    1.397   .     A
C424   C114    1.370   1_565 S
C425   C427    1.397   .     A
C425   H437    1.084   .     S
C425   C111    1.370   1_565 S
C426   H438    1.084   .     S
C426   C428    1.397   .     A
C429   H439    1.081   .     S
C429   N442    1.361   .     A
C429   C1367   1.426   1_554 S
C430   N441    1.364   .     A
C430   H440    1.081   .     S
C430   C900    1.426   .     S
C431   N441    1.373   .     A
C431   O453    1.386   .     S
C431   C897    1.426   .     S
C432   O461    1.384   .     S
C432   N442    1.370   .     A
C432   C1366   1.426   1_554 S
H433   C317    1.088   1_655 S
N441   Zn451   2.012   .     S
N442   Zn452   2.012   .     S
O443   Zn451   1.999   .     S
O444   Zn452   1.999   .     S
O445   Zn452   1.999   .     S
O446   Zn451   1.999   .     S
O447   Zn451   1.962   .     S
O448   Zn452   1.962   .     S
O449   Zn452   1.980   .     S
O450   Zn451   1.980   .     S
O453   C454    1.420   .     S
C454   H455    1.107   .     S
C454   H924    1.116   .     S
C454   C925    1.523   .     S
H456   C1390   1.116   1_554 S
C457   H458    1.110   .     S
C457   C1390   1.523   1_554 S
C457   H355    1.111   1_655 S
C457   H1396   1.111   1_554 S
H460   C925    1.111   .     S
O461   C462    1.416   .     S
C462   H464    1.117   .     S
C462   H463    1.111   .     S
C462   C1401   1.523   1_554 S
C465   H466    1.110   .     S
C465   H467    1.110   .     S
C465   C930    1.523   .     S
C465   H884    1.111   .     S
H468   C1297   1.111   1_654 S
C469   O497    1.284   .     A
C469   C480    1.419   .     S
C469   O495    1.284   .     A
C470   O498    1.284   .     A
C470   C479    1.419   .     S
C470   O496    1.284   .     A
C471   O499    1.277   .     A
C471   C473    1.403   .     S
C471   O501    1.283   .     A
C472   O502    1.284   .     A
C472   O500    1.275   .     A
C472   C474    1.403   .     S
C473   C578    1.333   1_455 S
C473   H589    1.088   1_455 S
C474   C525    1.333   .     S
C474   H538    1.086   .     S
C475   H487    1.084   .     S
C475   C480    1.397   .     A
C475   C789    1.370   1_545 S
C476   H488    1.084   .     S
C476   C479    1.397   .     A
C476   C634    1.370   .     S
C477   C479    1.397   .     A
C477   H489    1.084   .     S
C477   C631    1.370   .     S
C478   H490    1.084   .     S
C478   C480    1.397   .     A
C478   C788    1.370   1_545 S
C481   H491    1.081   .     S
C481   N494    1.361   .     A
C482   N493    1.364   .     A
C482   H492    1.081   .     S
C482   C952    1.426   .     S
C483   N493    1.373   .     A
C483   O505    1.386   .     S
C483   C949    1.426   .     S
C484   O513    1.384   .     S
C484   N494    1.370   .     A
H485   C525    1.088   .     S
H486   C578    1.086   1_455 S
N493   Zn503   2.012   .     S
N494   Zn504   2.012   .     S
O495   Zn503   1.999   .     S
O496   Zn504   1.999   .     S
O497   Zn504   1.999   .     S
O498   Zn503   1.999   .     S
O499   Zn503   1.962   .     S
O500   Zn504   1.962   .     S
O501   Zn504   1.980   .     S
O502   Zn503   1.980   .     S
O505   C506    1.420   .     S
C506   H507    1.107   .     S
C506   H976    1.116   .     S
C506   C977    1.523   .     S
C509   H510    1.110   .     S
C509   H563    1.111   .     S
H511   C613    1.111   1_455 S
H512   C977    1.111   .     S
O513   C514    1.416   .     S
C514   H516    1.117   .     S
C514   H515    1.111   .     S
C517   H518    1.110   .     S
C517   H519    1.110   .     S
C517   C982    1.523   .     S
C517   H1092   1.111   1_455 S
C521   O549    1.284   .     A
C521   C532    1.419   .     S
C521   O547    1.284   .     A
C522   O550    1.284   .     A
C522   C531    1.419   .     S
C522   O548    1.284   .     A
C523   O551    1.277   .     A
C523   C525    1.403   .     S
C523   O553    1.283   .     A
C524   O554    1.284   .     A
C524   O552    1.275   .     A
C524   C526    1.403   .     S
C526   C577    1.333   .     S
C526   H590    1.086   .     S
C527   H539    1.084   .     S
C527   C532    1.397   .     A
C527   C841    1.370   1_545 S
C528   H540    1.084   .     S
C528   C531    1.397   .     A
C528   C686    1.370   .     S
C529   C531    1.397   .     A
C529   H541    1.084   .     S
C529   C683    1.370   .     S
C530   H542    1.084   .     S
C530   C532    1.397   .     A
C530   C840    1.370   1_545 S
C533   H543    1.081   .     S
C533   N546    1.361   .     A
C534   N545    1.364   .     A
C534   H544    1.081   .     S
C534   C1004   1.426   .     S
C535   N545    1.373   .     A
C535   O557    1.386   .     S
C535   C1001   1.426   .     S
C536   O565    1.384   .     S
C536   N546    1.370   .     A
H537   C577    1.088   .     S
N545   Zn555   2.012   .     S
N546   Zn556   2.012   .     S
O547   Zn555   1.999   .     S
O548   Zn556   1.999   .     S
O549   Zn556   1.999   .     S
O550   Zn555   1.999   .     S
O551   Zn555   1.962   .     S
O552   Zn556   1.962   .     S
O553   Zn556   1.980   .     S
O554   Zn555   1.980   .     S
O557   C558    1.420   .     S
C558   H559    1.107   .     S
C558   H1028   1.116   .     S
C558   C1029   1.523   .     S
C561   H562    1.110   .     S
C561   H615    1.111   .     S
H564   C1029   1.111   .     S
O565   C566    1.416   .     S
C566   H568    1.117   .     S
C566   H567    1.111   .     S
C569   H570    1.110   .     S
C569   H571    1.110   .     S
C569   C1034   1.523   .     S
C569   H988    1.111   .     S
C573   O601    1.284   .     A
C573   C584    1.419   .     S
C573   O599    1.284   .     A
C574   O602    1.284   .     A
C574   C583    1.419   .     S
C574   O600    1.284   .     A
C575   O603    1.277   .     A
C575   C577    1.403   .     S
C575   O605    1.283   .     A
C576   O606    1.284   .     A
C576   O604    1.275   .     A
C576   C578    1.403   .     S
C578   C473    1.333   1_655 S
C578   H486    1.086   1_655 S
C579   H591    1.084   .     S
C579   C584    1.397   .     A
C579   C893    1.370   1_545 S
C580   H592    1.084   .     S
C580   C583    1.397   .     A
C580   C738    1.370   .     S
C581   C583    1.397   .     A
C581   H593    1.084   .     S
C581   C735    1.370   .     S
C582   H594    1.084   .     S
C582   C584    1.397   .     A
C582   C892    1.370   1_545 S
C585   H595    1.081   .     S
C585   N598    1.361   .     A
C586   N597    1.364   .     A
C586   H596    1.081   .     S
C586   C1056   1.426   .     S
C587   N597    1.373   .     A
C587   O609    1.386   .     S
C587   C1053   1.426   .     S
C588   O617    1.384   .     S
C588   N598    1.370   .     A
H589   C473    1.088   1_655 S
N597   Zn607   2.012   .     S
N598   Zn608   2.012   .     S
O599   Zn607   1.999   .     S
O600   Zn608   1.999   .     S
O601   Zn608   1.999   .     S
O602   Zn607   1.999   .     S
O603   Zn607   1.962   .     S
O604   Zn608   1.962   .     S
O605   Zn608   1.980   .     S
O606   Zn607   1.980   .     S
O609   C610    1.420   .     S
C610   H611    1.107   .     S
C610   H1080   1.116   .     S
C610   C1081   1.523   .     S
C613   H614    1.110   .     S
C613   H511    1.111   1_655 S
H616   C1081   1.111   .     S
O617   C618    1.416   .     S
C618   H620    1.117   .     S
C618   H619    1.111   .     S
C621   H622    1.110   .     S
C621   H623    1.110   .     S
C621   C1086   1.523   .     S
C621   H1040   1.111   .     S
H624   C49     1.111   1_655 S
C625   O653    1.284   .     A
C625   C636    1.419   .     S
C625   O651    1.284   .     A
C626   O654    1.284   .     A
C626   C635    1.419   .     S
C626   O652    1.284   .     A
C627   O655    1.277   .     A
C627   C629    1.403   .     S
C627   O657    1.283   .     A
C628   O658    1.284   .     A
C628   O656    1.275   .     A
C628   C630    1.403   .     S
C629   C734    1.333   1_455 S
C629   H745    1.088   1_455 S
C630   C681    1.333   .     S
C630   H694    1.086   .     S
C631   H643    1.084   .     S
C631   C636    1.397   .     A
C632   H644    1.084   .     S
C632   C635    1.397   .     A
C632   C790    1.370   .     S
C633   C635    1.397   .     A
C633   H645    1.084   .     S
C633   C787    1.370   .     S
C634   H646    1.084   .     S
C634   C636    1.397   .     A
C637   H647    1.081   .     S
C637   N650    1.361   .     A
C638   N649    1.364   .     A
C638   H648    1.081   .     S
C638   C1108   1.426   .     S
C639   N649    1.373   .     A
C639   O661    1.386   .     S
C639   C1105   1.426   .     S
C640   O669    1.384   .     S
C640   N650    1.370   .     A
H641   C681    1.088   .     S
H642   C734    1.086   1_455 S
N649   Zn659   2.012   .     S
N650   Zn660   2.012   .     S
O651   Zn659   1.999   .     S
O652   Zn660   1.999   .     S
O653   Zn660   1.999   .     S
O654   Zn659   1.999   .     S
O655   Zn659   1.962   .     S
O656   Zn660   1.962   .     S
O657   Zn660   1.980   .     S
O658   Zn659   1.980   .     S
O661   C662    1.420   .     S
C662   H663    1.107   .     S
C662   H1132   1.116   .     S
C662   C1133   1.523   .     S
C665   H666    1.110   .     S
C665   H719    1.111   .     S
H667   C769    1.111   1_455 S
H668   C1133   1.111   .     S
O669   C670    1.416   .     S
C670   H672    1.117   .     S
C670   H671    1.111   .     S
C673   H674    1.110   .     S
C673   H675    1.110   .     S
C673   C1138   1.523   .     S
C673   H1248   1.111   1_455 S
C677   O705    1.284   .     A
C677   C688    1.419   .     S
C677   O703    1.284   .     A
C678   O706    1.284   .     A
C678   C687    1.419   .     S
C678   O704    1.284   .     A
C679   O707    1.277   .     A
C679   C681    1.403   .     S
C679   O709    1.283   .     A
C680   O710    1.284   .     A
C680   O708    1.275   .     A
C680   C682    1.403   .     S
C682   C733    1.333   .     S
C682   H746    1.086   .     S
C683   H695    1.084   .     S
C683   C688    1.397   .     A
C684   H696    1.084   .     S
C684   C687    1.397   .     A
C684   C842    1.370   .     S
C685   C687    1.397   .     A
C685   H697    1.084   .     S
C685   C839    1.370   .     S
C686   H698    1.084   .     S
C686   C688    1.397   .     A
C689   H699    1.081   .     S
C689   N702    1.361   .     A
C690   N701    1.364   .     A
C690   H700    1.081   .     S
C690   C1160   1.426   .     S
C691   N701    1.373   .     A
C691   O713    1.386   .     S
C691   C1157   1.426   .     S
C692   O721    1.384   .     S
C692   N702    1.370   .     A
H693   C733    1.088   .     S
N701   Zn711   2.012   .     S
N702   Zn712   2.012   .     S
O703   Zn711   1.999   .     S
O704   Zn712   1.999   .     S
O705   Zn712   1.999   .     S
O706   Zn711   1.999   .     S
O707   Zn711   1.962   .     S
O708   Zn712   1.962   .     S
O709   Zn712   1.980   .     S
O710   Zn711   1.980   .     S
O713   C714    1.420   .     S
C714   H715    1.107   .     S
C714   H1184   1.116   .     S
C714   C1185   1.523   .     S
C717   H718    1.110   .     S
C717   H771    1.111   .     S
H720   C1185   1.111   .     S
O721   C722    1.416   .     S
C722   H724    1.117   .     S
C722   H723    1.111   .     S
C725   H726    1.110   .     S
C725   H727    1.110   .     S
C725   C1190   1.523   .     S
C725   H1144   1.111   .     S
C729   O757    1.284   .     A
C729   C740    1.419   .     S
C729   O755    1.284   .     A
C730   O758    1.284   .     A
C730   C739    1.419   .     S
C730   O756    1.284   .     A
C731   O759    1.277   .     A
C731   C733    1.403   .     S
C731   O761    1.283   .     A
C732   O762    1.284   .     A
C732   O760    1.275   .     A
C732   C734    1.403   .     S
C734   C629    1.333   1_655 S
C734   H642    1.086   1_655 S
C735   H747    1.084   .     S
C735   C740    1.397   .     A
C736   H748    1.084   .     S
C736   C739    1.397   .     A
C736   C894    1.370   .     S
C737   C739    1.397   .     A
C737   H749    1.084   .     S
C737   C891    1.370   .     S
C738   H750    1.084   .     S
C738   C740    1.397   .     A
C741   H751    1.081   .     S
C741   N754    1.361   .     A
C742   N753    1.364   .     A
C742   H752    1.081   .     S
C742   C1212   1.426   .     S
C743   N753    1.373   .     A
C743   O765    1.386   .     S
C743   C1209   1.426   .     S
C744   O773    1.384   .     S
C744   N754    1.370   .     A
H745   C629    1.088   1_655 S
N753   Zn763   2.012   .     S
N754   Zn764   2.012   .     S
O755   Zn763   1.999   .     S
O756   Zn764   1.999   .     S
O757   Zn764   1.999   .     S
O758   Zn763   1.999   .     S
O759   Zn763   1.962   .     S
O760   Zn764   1.962   .     S
O761   Zn764   1.980   .     S
O762   Zn763   1.980   .     S
O765   C766    1.420   .     S
C766   H767    1.107   .     S
C766   H1236   1.116   .     S
C766   C1237   1.523   .     S
C769   H770    1.110   .     S
C769   H667    1.111   1_655 S
H772   C1237   1.111   .     S
O773   C774    1.416   .     S
C774   H776    1.117   .     S
C774   H775    1.111   .     S
C777   H778    1.110   .     S
C777   H779    1.110   .     S
C777   C1242   1.523   .     S
C777   H1196   1.111   .     S
H780   C205    1.111   1_655 S
C781   O809    1.284   .     A
C781   C792    1.419   .     S
C781   O807    1.284   .     A
C782   O810    1.284   .     A
C782   C791    1.419   .     S
C782   O808    1.284   .     A
C783   O811    1.277   .     A
C783   C785    1.403   .     S
C783   O813    1.283   .     A
C784   O814    1.284   .     A
C784   O812    1.275   .     A
C784   C786    1.403   .     S
C785   C890    1.333   1_455 S
C785   H901    1.088   1_455 S
C786   C837    1.333   .     S
C786   H850    1.086   .     S
C787   H799    1.084   .     S
C787   C792    1.397   .     A
C788   H800    1.084   .     S
C788   C791    1.397   .     A
C788   C478    1.370   1_565 S
C789   C791    1.397   .     A
C789   H801    1.084   .     S
C789   C475    1.370   1_565 S
C790   H802    1.084   .     S
C790   C792    1.397   .     A
C793   H803    1.081   .     S
C793   N806    1.361   .     A
C794   N805    1.364   .     A
C794   H804    1.081   .     S
C794   C1264   1.426   .     S
C795   N805    1.373   .     A
C795   O817    1.386   .     S
C795   C1261   1.426   .     S
C796   O825    1.384   .     S
C796   N806    1.370   .     A
H797   C837    1.088   .     S
H798   C890    1.086   1_455 S
N805   Zn815   2.012   .     S
N806   Zn816   2.012   .     S
O807   Zn815   1.999   .     S
O808   Zn816   1.999   .     S
O809   Zn816   1.999   .     S
O810   Zn815   1.999   .     S
O811   Zn815   1.962   .     S
O812   Zn816   1.962   .     S
O813   Zn816   1.980   .     S
O814   Zn815   1.980   .     S
O817   C818    1.420   .     S
C818   H819    1.107   .     S
C818   H1288   1.116   .     S
C818   C1289   1.523   .     S
C821   H822    1.110   .     S
C821   H875    1.111   .     S
H823   C925    1.111   1_455 S
H824   C1289   1.111   .     S
O825   C826    1.416   .     S
C826   H828    1.117   .     S
C826   H827    1.111   .     S
C829   H830    1.110   .     S
C829   H831    1.110   .     S
C829   C1294   1.523   .     S
C829   H1404   1.111   1_455 S
C833   O861    1.284   .     A
C833   C844    1.419   .     S
C833   O859    1.284   .     A
C834   O862    1.284   .     A
C834   C843    1.419   .     S
C834   O860    1.284   .     A
C835   O863    1.277   .     A
C835   C837    1.403   .     S
C835   O865    1.283   .     A
C836   O866    1.284   .     A
C836   O864    1.275   .     A
C836   C838    1.403   .     S
C838   C889    1.333   .     S
C838   H902    1.086   .     S
C839   H851    1.084   .     S
C839   C844    1.397   .     A
C840   H852    1.084   .     S
C840   C843    1.397   .     A
C840   C530    1.370   1_565 S
C841   C843    1.397   .     A
C841   H853    1.084   .     S
C841   C527    1.370   1_565 S
C842   H854    1.084   .     S
C842   C844    1.397   .     A
C845   H855    1.081   .     S
C845   N858    1.361   .     A
C846   N857    1.364   .     A
C846   H856    1.081   .     S
C846   C1316   1.426   .     S
C847   N857    1.373   .     A
C847   O869    1.386   .     S
C847   C1313   1.426   .     S
C848   O877    1.384   .     S
C848   N858    1.370   .     A
H849   C889    1.088   .     S
N857   Zn867   2.012   .     S
N858   Zn868   2.012   .     S
O859   Zn867   1.999   .     S
O860   Zn868   1.999   .     S
O861   Zn868   1.999   .     S
O862   Zn867   1.999   .     S
O863   Zn867   1.962   .     S
O864   Zn868   1.962   .     S
O865   Zn868   1.980   .     S
O866   Zn867   1.980   .     S
O869   C870    1.420   .     S
C870   H871    1.107   .     S
C870   H1340   1.116   .     S
C870   C1341   1.523   .     S
C873   H874    1.110   .     S
C873   H927    1.111   .     S
H876   C1341   1.111   .     S
O877   C878    1.416   .     S
C878   H880    1.117   .     S
C878   H879    1.111   .     S
C881   H882    1.110   .     S
C881   H883    1.110   .     S
C881   C1346   1.523   .     S
C881   H1300   1.111   .     S
C885   O913    1.284   .     A
C885   C896    1.419   .     S
C885   O911    1.284   .     A
C886   O914    1.284   .     A
C886   C895    1.419   .     S
C886   O912    1.284   .     A
C887   O915    1.277   .     A
C887   C889    1.403   .     S
C887   O917    1.283   .     A
C888   O918    1.284   .     A
C888   O916    1.275   .     A
C888   C890    1.403   .     S
C890   C785    1.333   1_655 S
C890   H798    1.086   1_655 S
C891   H903    1.084   .     S
C891   C896    1.397   .     A
C892   H904    1.084   .     S
C892   C895    1.397   .     A
C892   C582    1.370   1_565 S
C893   C895    1.397   .     A
C893   H905    1.084   .     S
C893   C579    1.370   1_565 S
C894   H906    1.084   .     S
C894   C896    1.397   .     A
C897   H907    1.081   .     S
C897   N910    1.361   .     A
C898   N909    1.364   .     A
C898   H908    1.081   .     S
C898   C1368   1.426   .     S
C899   N909    1.373   .     A
C899   O921    1.386   .     S
C899   C1365   1.426   .     S
C900   O929    1.384   .     S
C900   N910    1.370   .     A
H901   C785    1.088   1_655 S
N909   Zn919   2.012   .     S
N910   Zn920   2.012   .     S
O911   Zn919   1.999   .     S
O912   Zn920   1.999   .     S
O913   Zn920   1.999   .     S
O914   Zn919   1.999   .     S
O915   Zn919   1.962   .     S
O916   Zn920   1.962   .     S
O917   Zn920   1.980   .     S
O918   Zn919   1.980   .     S
O921   C922    1.420   .     S
C922   H923    1.107   .     S
C922   H1392   1.116   .     S
C922   C1393   1.523   .     S
C925   H926    1.110   .     S
C925   H823    1.111   1_655 S
H928   C1393   1.111   .     S
O929   C930    1.416   .     S
C930   H932    1.117   .     S
C930   H931    1.111   .     S
C933   H934    1.110   .     S
C933   H935    1.110   .     S
C933   C1398   1.523   .     S
C933   H1352   1.111   .     S
H936   C361    1.111   1_655 S
C937   O965    1.284   .     A
C937   C948    1.419   .     S
C937   O963    1.284   .     A
C938   O966    1.284   .     A
C938   C947    1.419   .     S
C938   O964    1.284   .     A
C939   O967    1.277   .     A
C939   C941    1.403   .     S
C939   O969    1.283   .     A
C940   O970    1.284   .     A
C940   O968    1.275   .     A
C940   C942    1.403   .     S
C941   C1046   1.333   1_455 S
C941   H1057   1.088   1_455 S
C942   C993    1.333   .     S
C942   H1006   1.086   .     S
C943   H955    1.084   .     S
C943   C948    1.397   .     A
C943   C1257   1.370   1_545 S
C944   H956    1.084   .     S
C944   C947    1.397   .     A
C944   C1102   1.370   .     S
C945   C947    1.397   .     A
C945   H957    1.084   .     S
C945   C1099   1.370   .     S
C946   H958    1.084   .     S
C946   C948    1.397   .     A
C946   C1256   1.370   1_545 S
C949   H959    1.081   .     S
C949   N962    1.361   .     A
C950   N961    1.364   .     A
C950   H960    1.081   .     S
C950   C16     1.426   1_556 S
C951   N961    1.373   .     A
C951   O973    1.386   .     S
C951   C13     1.426   1_556 S
C952   O981    1.384   .     S
C952   N962    1.370   .     A
H953   C993    1.088   .     S
H954   C1046   1.086   1_455 S
N961   Zn971   2.012   .     S
N962   Zn972   2.012   .     S
O963   Zn971   1.999   .     S
O964   Zn972   1.999   .     S
O965   Zn972   1.999   .     S
O966   Zn971   1.999   .     S
O967   Zn971   1.962   .     S
O968   Zn972   1.962   .     S
O969   Zn972   1.980   .     S
O970   Zn971   1.980   .     S
O973   C974    1.420   .     S
C974   H975    1.107   .     S
C974   H40     1.116   1_556 S
C974   C41     1.523   1_556 S
C977   H978    1.110   .     S
C977   H1031   1.111   .     S
H979   C1081   1.111   1_455 S
H980   C41     1.111   1_556 S
O981   C982    1.416   .     S
C982   H984    1.117   .     S
C982   H983    1.111   .     S
C985   H986    1.110   .     S
C985   H987    1.110   .     S
C985   C46     1.523   1_556 S
C985   H156    1.111   1_456 S
C989   O1017   1.284   .     A
C989   C1000   1.419   .     S
C989   O1015   1.284   .     A
C990   O1018   1.284   .     A
C990   C999    1.419   .     S
C990   O1016   1.284   .     A
C991   O1019   1.277   .     A
C991   C993    1.403   .     S
C991   O1021   1.283   .     A
C992   O1022   1.284   .     A
C992   O1020   1.275   .     A
C992   C994    1.403   .     S
C994   C1045   1.333   .     S
C994   H1058   1.086   .     S
C995   H1007   1.084   .     S
C995   C1000   1.397   .     A
C995   C1309   1.370   1_545 S
C996   H1008   1.084   .     S
C996   C999    1.397   .     A
C996   C1154   1.370   .     S
C997   C999    1.397   .     A
C997   H1009   1.084   .     S
C997   C1151   1.370   .     S
C998   H1010   1.084   .     S
C998   C1000   1.397   .     A
C998   C1308   1.370   1_545 S
C1001  H1011   1.081   .     S
C1001  N1014   1.361   .     A
C1002  N1013   1.364   .     A
C1002  H1012   1.081   .     S
C1002  C68     1.426   1_556 S
C1003  N1013   1.373   .     A
C1003  O1025   1.386   .     S
C1003  C65     1.426   1_556 S
C1004  O1033   1.384   .     S
C1004  N1014   1.370   .     A
H1005  C1045   1.088   .     S
N1013  Zn1023  2.012   .     S
N1014  Zn1024  2.012   .     S
O1015  Zn1023  1.999   .     S
O1016  Zn1024  1.999   .     S
O1017  Zn1024  1.999   .     S
O1018  Zn1023  1.999   .     S
O1019  Zn1023  1.962   .     S
O1020  Zn1024  1.962   .     S
O1021  Zn1024  1.980   .     S
O1022  Zn1023  1.980   .     S
O1025  C1026   1.420   .     S
C1026  H1027   1.107   .     S
C1026  H92     1.116   1_556 S
C1026  C93     1.523   1_556 S
C1029  H1030   1.110   .     S
C1029  H1083   1.111   .     S
H1032  C93     1.111   1_556 S
O1033  C1034   1.416   .     S
C1034  H1036   1.117   .     S
C1034  H1035   1.111   .     S
C1037  H1038   1.110   .     S
C1037  H1039   1.110   .     S
C1037  C98     1.523   1_556 S
C1037  H52     1.111   1_556 S
C1041  O1069   1.284   .     A
C1041  C1052   1.419   .     S
C1041  O1067   1.284   .     A
C1042  O1070   1.284   .     A
C1042  C1051   1.419   .     S
C1042  O1068   1.284   .     A
C1043  O1071   1.277   .     A
C1043  C1045   1.403   .     S
C1043  O1073   1.283   .     A
C1044  O1074   1.284   .     A
C1044  O1072   1.275   .     A
C1044  C1046   1.403   .     S
C1046  C941    1.333   1_655 S
C1046  H954    1.086   1_655 S
C1047  H1059   1.084   .     S
C1047  C1052   1.397   .     A
C1047  C1361   1.370   1_545 S
C1048  H1060   1.084   .     S
C1048  C1051   1.397   .     A
C1048  C1206   1.370   .     S
C1049  C1051   1.397   .     A
C1049  H1061   1.084   .     S
C1049  C1203   1.370   .     S
C1050  H1062   1.084   .     S
C1050  C1052   1.397   .     A
C1050  C1360   1.370   1_545 S
C1053  H1063   1.081   .     S
C1053  N1066   1.361   .     A
C1054  N1065   1.364   .     A
C1054  H1064   1.081   .     S
C1054  C120    1.426   1_556 S
C1055  N1065   1.373   .     A
C1055  O1077   1.386   .     S
C1055  C117    1.426   1_556 S
C1056  O1085   1.384   .     S
C1056  N1066   1.370   .     A
H1057  C941    1.088   1_655 S
N1065  Zn1075  2.012   .     S
N1066  Zn1076  2.012   .     S
O1067  Zn1075  1.999   .     S
O1068  Zn1076  1.999   .     S
O1069  Zn1076  1.999   .     S
O1070  Zn1075  1.999   .     S
O1071  Zn1075  1.962   .     S
O1072  Zn1076  1.962   .     S
O1073  Zn1076  1.980   .     S
O1074  Zn1075  1.980   .     S
O1077  C1078   1.420   .     S
C1078  H1079   1.107   .     S
C1078  H144    1.116   1_556 S
C1078  C145    1.523   1_556 S
C1081  H1082   1.110   .     S
C1081  H979    1.111   1_655 S
H1084  C145    1.111   1_556 S
O1085  C1086   1.416   .     S
C1086  H1088   1.117   .     S
C1086  H1087   1.111   .     S
C1089  H1090   1.110   .     S
C1089  H1091   1.110   .     S
C1089  C150    1.523   1_556 S
C1089  H104    1.111   1_556 S
H1092  C517    1.111   1_655 S
C1093  O1121   1.284   .     A
C1093  C1104   1.419   .     S
C1093  O1119   1.284   .     A
C1094  O1122   1.284   .     A
C1094  C1103   1.419   .     S
C1094  O1120   1.284   .     A
C1095  O1123   1.277   .     A
C1095  C1097   1.403   .     S
C1095  O1125   1.283   .     A
C1096  O1126   1.284   .     A
C1096  O1124   1.275   .     A
C1096  C1098   1.403   .     S
C1097  C1202   1.333   1_455 S
C1097  H1213   1.088   1_455 S
C1098  C1149   1.333   .     S
C1098  H1162   1.086   .     S
C1099  H1111   1.084   .     S
C1099  C1104   1.397   .     A
C1100  H1112   1.084   .     S
C1100  C1103   1.397   .     A
C1100  C1258   1.370   .     S
C1101  C1103   1.397   .     A
C1101  H1113   1.084   .     S
C1101  C1255   1.370   .     S
C1102  H1114   1.084   .     S
C1102  C1104   1.397   .     A
C1105  H1115   1.081   .     S
C1105  N1118   1.361   .     A
C1106  N1117   1.364   .     A
C1106  H1116   1.081   .     S
C1106  C172    1.426   1_556 S
C1107  N1117   1.373   .     A
C1107  O1129   1.386   .     S
C1107  C169    1.426   1_556 S
C1108  O1137   1.384   .     S
C1108  N1118   1.370   .     A
H1109  C1149   1.088   .     S
H1110  C1202   1.086   1_455 S
N1117  Zn1127  2.012   .     S
N1118  Zn1128  2.012   .     S
O1119  Zn1127  1.999   .     S
O1120  Zn1128  1.999   .     S
O1121  Zn1128  1.999   .     S
O1122  Zn1127  1.999   .     S
O1123  Zn1127  1.962   .     S
O1124  Zn1128  1.962   .     S
O1125  Zn1128  1.980   .     S
O1126  Zn1127  1.980   .     S
O1129  C1130   1.420   .     S
C1130  H1131   1.107   .     S
C1130  H196    1.116   1_556 S
C1130  C197    1.523   1_556 S
C1133  H1134   1.110   .     S
C1133  H1187   1.111   .     S
H1135  C1237   1.111   1_455 S
H1136  C197    1.111   1_556 S
O1137  C1138   1.416   .     S
C1138  H1140   1.117   .     S
C1138  H1139   1.111   .     S
C1141  H1142   1.110   .     S
C1141  H1143   1.110   .     S
C1141  C202    1.523   1_556 S
C1141  H312    1.111   1_456 S
C1145  O1173   1.284   .     A
C1145  C1156   1.419   .     S
C1145  O1171   1.284   .     A
C1146  O1174   1.284   .     A
C1146  C1155   1.419   .     S
C1146  O1172   1.284   .     A
C1147  O1175   1.277   .     A
C1147  C1149   1.403   .     S
C1147  O1177   1.283   .     A
C1148  O1178   1.284   .     A
C1148  O1176   1.275   .     A
C1148  C1150   1.403   .     S
C1150  C1201   1.333   .     S
C1150  H1214   1.086   .     S
C1151  H1163   1.084   .     S
C1151  C1156   1.397   .     A
C1152  H1164   1.084   .     S
C1152  C1155   1.397   .     A
C1152  C1310   1.370   .     S
C1153  C1155   1.397   .     A
C1153  H1165   1.084   .     S
C1153  C1307   1.370   .     S
C1154  H1166   1.084   .     S
C1154  C1156   1.397   .     A
C1157  H1167   1.081   .     S
C1157  N1170   1.361   .     A
C1158  N1169   1.364   .     A
C1158  H1168   1.081   .     S
C1158  C224    1.426   1_556 S
C1159  N1169   1.373   .     A
C1159  O1181   1.386   .     S
C1159  C221    1.426   1_556 S
C1160  O1189   1.384   .     S
C1160  N1170   1.370   .     A
H1161  C1201   1.088   .     S
N1169  Zn1179  2.012   .     S
N1170  Zn1180  2.012   .     S
O1171  Zn1179  1.999   .     S
O1172  Zn1180  1.999   .     S
O1173  Zn1180  1.999   .     S
O1174  Zn1179  1.999   .     S
O1175  Zn1179  1.962   .     S
O1176  Zn1180  1.962   .     S
O1177  Zn1180  1.980   .     S
O1178  Zn1179  1.980   .     S
O1181  C1182   1.420   .     S
C1182  H1183   1.107   .     S
C1182  H248    1.116   1_556 S
C1182  C249    1.523   1_556 S
C1185  H1186   1.110   .     S
C1185  H1239   1.111   .     S
H1188  C249    1.111   1_556 S
O1189  C1190   1.416   .     S
C1190  H1192   1.117   .     S
C1190  H1191   1.111   .     S
C1193  H1194   1.110   .     S
C1193  H1195   1.110   .     S
C1193  C254    1.523   1_556 S
C1193  H208    1.111   1_556 S
C1197  O1225   1.284   .     A
C1197  C1208   1.419   .     S
C1197  O1223   1.284   .     A
C1198  O1226   1.284   .     A
C1198  C1207   1.419   .     S
C1198  O1224   1.284   .     A
C1199  O1227   1.277   .     A
C1199  C1201   1.403   .     S
C1199  O1229   1.283   .     A
C1200  O1230   1.284   .     A
C1200  O1228   1.275   .     A
C1200  C1202   1.403   .     S
C1202  C1097   1.333   1_655 S
C1202  H1110   1.086   1_655 S
C1203  H1215   1.084   .     S
C1203  C1208   1.397   .     A
C1204  H1216   1.084   .     S
C1204  C1207   1.397   .     A
C1204  C1362   1.370   .     S
C1205  C1207   1.397   .     A
C1205  H1217   1.084   .     S
C1205  C1359   1.370   .     S
C1206  H1218   1.084   .     S
C1206  C1208   1.397   .     A
C1209  H1219   1.081   .     S
C1209  N1222   1.361   .     A
C1210  N1221   1.364   .     A
C1210  H1220   1.081   .     S
C1210  C276    1.426   1_556 S
C1211  N1221   1.373   .     A
C1211  O1233   1.386   .     S
C1211  C273    1.426   1_556 S
C1212  O1241   1.384   .     S
C1212  N1222   1.370   .     A
H1213  C1097   1.088   1_655 S
N1221  Zn1231  2.012   .     S
N1222  Zn1232  2.012   .     S
O1223  Zn1231  1.999   .     S
O1224  Zn1232  1.999   .     S
O1225  Zn1232  1.999   .     S
O1226  Zn1231  1.999   .     S
O1227  Zn1231  1.962   .     S
O1228  Zn1232  1.962   .     S
O1229  Zn1232  1.980   .     S
O1230  Zn1231  1.980   .     S
O1233  C1234   1.420   .     S
C1234  H1235   1.107   .     S
C1234  H300    1.116   1_556 S
C1234  C301    1.523   1_556 S
C1237  H1238   1.110   .     S
C1237  H1135   1.111   1_655 S
H1240  C301    1.111   1_556 S
O1241  C1242   1.416   .     S
C1242  H1244   1.117   .     S
C1242  H1243   1.111   .     S
C1245  H1246   1.110   .     S
C1245  H1247   1.110   .     S
C1245  C306    1.523   1_556 S
C1245  H260    1.111   1_556 S
H1248  C673    1.111   1_655 S
C1249  O1277   1.284   .     A
C1249  C1260   1.419   .     S
C1249  O1275   1.284   .     A
C1250  O1278   1.284   .     A
C1250  C1259   1.419   .     S
C1250  O1276   1.284   .     A
C1251  O1279   1.277   .     A
C1251  C1253   1.403   .     S
C1251  O1281   1.283   .     A
C1252  O1282   1.284   .     A
C1252  O1280   1.275   .     A
C1252  C1254   1.403   .     S
C1253  C1358   1.333   1_455 S
C1253  H1369   1.088   1_455 S
C1254  C1305   1.333   .     S
C1254  H1318   1.086   .     S
C1255  H1267   1.084   .     S
C1255  C1260   1.397   .     A
C1256  H1268   1.084   .     S
C1256  C1259   1.397   .     A
C1256  C946    1.370   1_565 S
C1257  C1259   1.397   .     A
C1257  H1269   1.084   .     S
C1257  C943    1.370   1_565 S
C1258  H1270   1.084   .     S
C1258  C1260   1.397   .     A
C1261  H1271   1.081   .     S
C1261  N1274   1.361   .     A
C1262  N1273   1.364   .     A
C1262  H1272   1.081   .     S
C1262  C328    1.426   1_556 S
C1263  N1273   1.373   .     A
C1263  O1285   1.386   .     S
C1263  C325    1.426   1_556 S
C1264  O1293   1.384   .     S
C1264  N1274   1.370   .     A
H1265  C1305   1.088   .     S
H1266  C1358   1.086   1_455 S
N1273  Zn1283  2.012   .     S
N1274  Zn1284  2.012   .     S
O1275  Zn1283  1.999   .     S
O1276  Zn1284  1.999   .     S
O1277  Zn1284  1.999   .     S
O1278  Zn1283  1.999   .     S
O1279  Zn1283  1.962   .     S
O1280  Zn1284  1.962   .     S
O1281  Zn1284  1.980   .     S
O1282  Zn1283  1.980   .     S
O1285  C1286   1.420   .     S
C1286  H1287   1.107   .     S
C1286  H352    1.116   1_556 S
C1286  C353    1.523   1_556 S
C1289  H1290   1.110   .     S
C1289  H1343   1.111   .     S
H1291  C1393   1.111   1_455 S
H1292  C353    1.111   1_556 S
O1293  C1294   1.416   .     S
C1294  H1296   1.117   .     S
C1294  H1295   1.111   .     S
C1297  H1298   1.110   .     S
C1297  H1299   1.110   .     S
C1297  C358    1.523   1_556 S
C1297  H468    1.111   1_456 S
C1301  O1329   1.284   .     A
C1301  C1312   1.419   .     S
C1301  O1327   1.284   .     A
C1302  O1330   1.284   .     A
C1302  C1311   1.419   .     S
C1302  O1328   1.284   .     A
C1303  O1331   1.277   .     A
C1303  C1305   1.403   .     S
C1303  O1333   1.283   .     A
C1304  O1334   1.284   .     A
C1304  O1332   1.275   .     A
C1304  C1306   1.403   .     S
C1306  C1357   1.333   .     S
C1306  H1370   1.086   .     S
C1307  H1319   1.084   .     S
C1307  C1312   1.397   .     A
C1308  H1320   1.084   .     S
C1308  C1311   1.397   .     A
C1308  C998    1.370   1_565 S
C1309  C1311   1.397   .     A
C1309  H1321   1.084   .     S
C1309  C995    1.370   1_565 S
C1310  H1322   1.084   .     S
C1310  C1312   1.397   .     A
C1313  H1323   1.081   .     S
C1313  N1326   1.361   .     A
C1314  N1325   1.364   .     A
C1314  H1324   1.081   .     S
C1314  C380    1.426   1_556 S
C1315  N1325   1.373   .     A
C1315  O1337   1.386   .     S
C1315  C377    1.426   1_556 S
C1316  O1345   1.384   .     S
C1316  N1326   1.370   .     A
H1317  C1357   1.088   .     S
N1325  Zn1335  2.012   .     S
N1326  Zn1336  2.012   .     S
O1327  Zn1335  1.999   .     S
O1328  Zn1336  1.999   .     S
O1329  Zn1336  1.999   .     S
O1330  Zn1335  1.999   .     S
O1331  Zn1335  1.962   .     S
O1332  Zn1336  1.962   .     S
O1333  Zn1336  1.980   .     S
O1334  Zn1335  1.980   .     S
O1337  C1338   1.420   .     S
C1338  H1339   1.107   .     S
C1338  H404    1.116   1_556 S
C1338  C405    1.523   1_556 S
C1341  H1342   1.110   .     S
C1341  H1395   1.111   .     S
H1344  C405    1.111   1_556 S
O1345  C1346   1.416   .     S
C1346  H1348   1.117   .     S
C1346  H1347   1.111   .     S
C1349  H1350   1.110   .     S
C1349  H1351   1.110   .     S
C1349  C410    1.523   1_556 S
C1349  H364    1.111   1_556 S
C1353  O1381   1.284   .     A
C1353  C1364   1.419   .     S
C1353  O1379   1.284   .     A
C1354  O1382   1.284   .     A
C1354  C1363   1.419   .     S
C1354  O1380   1.284   .     A
C1355  O1383   1.277   .     A
C1355  C1357   1.403   .     S
C1355  O1385   1.283   .     A
C1356  O1386   1.284   .     A
C1356  O1384   1.275   .     A
C1356  C1358   1.403   .     S
C1358  C1253   1.333   1_655 S
C1358  H1266   1.086   1_655 S
C1359  H1371   1.084   .     S
C1359  C1364   1.397   .     A
C1360  H1372   1.084   .     S
C1360  C1363   1.397   .     A
C1360  C1050   1.370   1_565 S
C1361  C1363   1.397   .     A
C1361  H1373   1.084   .     S
C1361  C1047   1.370   1_565 S
C1362  H1374   1.084   .     S
C1362  C1364   1.397   .     A
C1365  H1375   1.081   .     S
C1365  N1378   1.361   .     A
C1366  N1377   1.364   .     A
C1366  H1376   1.081   .     S
C1366  C432    1.426   1_556 S
C1367  N1377   1.373   .     A
C1367  O1389   1.386   .     S
C1367  C429    1.426   1_556 S
C1368  O1397   1.384   .     S
C1368  N1378   1.370   .     A
H1369  C1253   1.088   1_655 S
N1377  Zn1387  2.012   .     S
N1378  Zn1388  2.012   .     S
O1379  Zn1387  1.999   .     S
O1380  Zn1388  1.999   .     S
O1381  Zn1388  1.999   .     S
O1382  Zn1387  1.999   .     S
O1383  Zn1387  1.962   .     S
O1384  Zn1388  1.962   .     S
O1385  Zn1388  1.980   .     S
O1386  Zn1387  1.980   .     S
O1389  C1390   1.420   .     S
C1390  H1391   1.107   .     S
C1390  H456    1.116   1_556 S
C1390  C457    1.523   1_556 S
C1393  H1394   1.110   .     S
C1393  H1291   1.111   1_655 S
H1396  C457    1.111   1_556 S
O1397  C1398   1.416   .     S
C1398  H1400   1.117   .     S
C1398  H1399   1.111   .     S
C1401  H1402   1.110   .     S
C1401  H1403   1.110   .     S
C1401  C462    1.523   1_556 S
C1401  H416    1.111   1_556 S
H1404  C829    1.111   1_655 S
