data_str_m3_o1_o2_pcu_sym.108
_audit_creation_date              2020-01-03
_audit_creation_method            'Materials Studio'
_symmetry_space_group_name_H-M    'P1'
_symmetry_Int_Tables_number       1
_symmetry_cell_setting            triclinic
loop_
_symmetry_equiv_pos_as_xyz
  x,y,z
_cell_length_a                    32.1074
_cell_length_b                    29.3427
_cell_length_c                    29.6088
_cell_angle_alpha                 90.3796
_cell_angle_beta                  90.1909
_cell_angle_gamma                 90.6631
loop_
_atom_site_label
_atom_site_type_symbol
_atom_site_fract_x
_atom_site_fract_y
_atom_site_fract_z
_atom_site_U_iso_or_equiv
_atom_site_adp_type
_atom_site_occupancy
C1     C     0.08622   0.16633   0.24897   0.00000  Uiso   1.00
C2     C     0.24627   0.16693   0.24366   0.00000  Uiso   1.00
C3     C     0.16528   0.16661   0.16317   0.00000  Uiso   1.00
C4     C     0.16407   0.16684   0.33649   0.00000  Uiso   1.00
C5     C     0.15773   0.02406   0.28843   0.00000  Uiso   1.00
C6     C     0.17606   0.30919   0.21165   0.00000  Uiso   1.00
C7     C     0.17572   0.02386   0.21159   0.00000  Uiso   1.00
C8     C     0.15728   0.30940   0.28833   0.00000  Uiso   1.00
C9     C     0.02135   0.12832   0.21988   0.00000  Uiso   1.00
C10    C     0.31231   0.20890   0.23835   0.00000  Uiso   1.00
C11    C     0.31087   0.12819   0.21777   0.00000  Uiso   1.00
C12    C     0.01922   0.20567   0.25465   0.00000  Uiso   1.00
C13    C     0.12429   0.20514   0.05076   0.00000  Uiso   1.00
C14    C     0.11893   0.13302   0.44846   0.00000  Uiso   1.00
C15    C     0.15095   0.20794   0.45549   0.00000  Uiso   1.00
C16    C     0.14677   0.12713   0.04353   0.00000  Uiso   1.00
C17    C     0.13513   0.20535   0.09630   0.00000  Uiso   1.00
C18    C     0.12882   0.13164   0.40289   0.00000  Uiso   1.00
C19    C     0.16205   0.20689   0.41032   0.00000  Uiso   1.00
C20    C     0.16039   0.12729   0.08802   0.00000  Uiso   1.00
C21    C     0.15502   0.16680   0.11492   0.00000  Uiso   1.00
C22    C     0.15256   0.16780   0.38405   0.00000  Uiso   1.00
C23    C     0.13120   0.16667   0.02412   0.00000  Uiso   1.00
C24    C     0.13114   0.17031   0.47511   0.00000  Uiso   1.00
C25    C     0.29004   0.16791   0.23219   0.00000  Uiso   1.00
C26    C     0.04160   0.16583   0.24283   0.00000  Uiso   1.00
H27    H     0.15108   0.04212   0.31928   0.00000  Uiso   1.00
H28    H     0.18390   0.29098   0.18106   0.00000  Uiso   1.00
H29    H     0.18306   0.04188   0.18101   0.00000  Uiso   1.00
H30    H     0.14955   0.29134   0.31891   0.00000  Uiso   1.00
H31    H     0.11193   0.23581   0.03584   0.00000  Uiso   1.00
H32    H     0.10313   0.10402   0.46343   0.00000  Uiso   1.00
H33    H     0.16037   0.23722   0.47570   0.00000  Uiso   1.00
H34    H     0.15174   0.09687   0.02321   0.00000  Uiso   1.00
N35    N     0.16667   0.28573   0.25000   0.00000  Uiso   1.00
N36    N     0.16667   0.04760   0.25000   0.00000  Uiso   1.00
O37    O     0.10559   0.20487   0.25000   0.00000  Uiso   1.00
O38    O     0.22774   0.12846   0.25001   0.00000  Uiso   1.00
O39    O     0.22774   0.20487   0.25001   0.00000  Uiso   1.00
O40    O     0.10559   0.12846   0.25000   0.00000  Uiso   1.00
O41    O     0.16666   0.20489   0.18453   0.00000  Uiso   1.00
O42    O     0.16667   0.12845   0.31547   0.00000  Uiso   1.00
O43    O     0.16667   0.20489   0.31547   0.00000  Uiso   1.00
O44    O     0.16666   0.12845   0.18453   0.00000  Uiso   1.00
Zn45   Zn    0.16667   0.21771   0.25000   0.00000  Uiso   1.00
Zn46   Zn    0.16667   0.11563   0.25000   0.00000  Uiso   1.00
O47    O     0.12992   0.24488   0.12146   0.00000  Uiso   1.00
C48    C     0.08712   0.25435   0.12765   0.00000  Uiso   1.00
H49    H     0.07962   0.24961   0.16396   0.00000  Uiso   1.00
H50    H     0.06535   0.23172   0.10800   0.00000  Uiso   1.00
C51    C     0.07936   0.30399   0.11500   0.00000  Uiso   1.00
H52    H     0.09886   0.32680   0.13674   0.00000  Uiso   1.00
H53    H     0.08849   0.30945   0.07925   0.00000  Uiso   1.00
C54    C     0.03368   0.31645   0.12065   0.00000  Uiso   1.00
H55    H     0.01355   0.29408   0.09921   0.00000  Uiso   1.00
H56    H     0.02907   0.01897   0.11019   0.00000  Uiso   1.00
H57    H     0.02433   0.31298   0.15652   0.00000  Uiso   1.00
O58    O     0.11813   0.09282   0.37846   0.00000  Uiso   1.00
C59    C     0.08101   0.09992   0.35363   0.00000  Uiso   1.00
H60    H     0.08283   0.07914   0.32224   0.00000  Uiso   1.00
H61    H     0.07709   0.13577   0.34273   0.00000  Uiso   1.00
C62    C     0.04275   0.08397   0.38018   0.00000  Uiso   1.00
H63    H     0.04740   0.04845   0.39182   0.00000  Uiso   1.00
H64    H     0.03854   0.10627   0.41024   0.00000  Uiso   1.00
C65    C     0.00345   0.08558   0.35101   0.00000  Uiso   1.00
H66    H     0.33137   0.12082   0.33902   0.00000  Uiso   1.00
H67    H     0.30946   0.07437   0.37117   0.00000  Uiso   1.00
H68    H     0.00639   0.06248   0.32134   0.00000  Uiso   1.00
O69    O     0.18011   0.24528   0.39144   0.00000  Uiso   1.00
C70    C     0.22346   0.24484   0.39926   0.00000  Uiso   1.00
H71    H     0.23719   0.21166   0.38875   0.00000  Uiso   1.00
H72    H     0.23013   0.25114   0.43572   0.00000  Uiso   1.00
C73    C     0.24376   0.28272   0.37141   0.00000  Uiso   1.00
H74    H     0.23848   0.27560   0.33488   0.00000  Uiso   1.00
H75    H     0.22922   0.31589   0.37989   0.00000  Uiso   1.00
C76    C     0.29046   0.28618   0.38043   0.00000  Uiso   1.00
H77    H     0.29646   0.29566   0.41626   0.00000  Uiso   1.00
H78    H     0.30451   0.31269   0.35844   0.00000  Uiso   1.00
H79    H     0.30535   0.25306   0.37298   0.00000  Uiso   1.00
O80    O     0.17671   0.08752   0.10507   0.00000  Uiso   1.00
C81    C     0.22055   0.08778   0.10009   0.00000  Uiso   1.00
H82    H     0.23260   0.06149   0.12328   0.00000  Uiso   1.00
H83    H     0.23503   0.12106   0.11024   0.00000  Uiso   1.00
C84    C     0.23410   0.07423   0.05221   0.00000  Uiso   1.00
H85    H     0.21634   0.04343   0.04096   0.00000  Uiso   1.00
H86    H     0.22777   0.10247   0.02846   0.00000  Uiso   1.00
C87    C     0.28063   0.06408   0.05071   0.00000  Uiso   1.00
H88    H     0.29905   0.09432   0.06218   0.00000  Uiso   1.00
H89    H     0.28979   0.05548   0.01557   0.00000  Uiso   1.00
H90    H     0.28789   0.03469   0.07272   0.00000  Uiso   1.00
C91    C     0.04568   0.09066   0.19537   0.00000  Uiso   1.00
C92    C     0.06573   0.10892   0.15241   0.00000  Uiso   1.00
H93    H     0.04133   0.11532   0.12659   0.00000  Uiso   1.00
H94    H     0.08253   0.14137   0.15914   0.00000  Uiso   1.00
H95    H     0.08786   0.08359   0.13871   0.00000  Uiso   1.00
H96    H     0.06825   0.07335   0.21737   0.00000  Uiso   1.00
H97    H     0.02669   0.06105   0.18491   0.00000  Uiso   1.00
C98    C     0.29609   0.25488   0.22226   0.00000  Uiso   1.00
C99    C     0.27991   0.25215   0.17358   0.00000  Uiso   1.00
H100   H     0.30433   0.23818   0.15106   0.00000  Uiso   1.00
H101   H     0.25168   0.23019   0.17093   0.00000  Uiso   1.00
H102   H     0.27178   0.28670   0.16162   0.00000  Uiso   1.00
H103   H     0.27210   0.26871   0.24527   0.00000  Uiso   1.00
H104   H     0.32164   0.28068   0.22191   0.00000  Uiso   1.00
C105   C     0.28684   0.08842   0.19616   0.00000  Uiso   1.00
C106   C     0.28403   0.04729   0.22766   0.00000  Uiso   1.00
H107   H     0.31528   0.03449   0.23674   0.00000  Uiso   1.00
H108   H     0.26772   0.05623   0.25941   0.00000  Uiso   1.00
H109   H     0.26631   0.01946   0.21062   0.00000  Uiso   1.00
H110   H     0.25517   0.09835   0.18610   0.00000  Uiso   1.00
H111   H     0.30033   0.07877   0.16308   0.00000  Uiso   1.00
C112   C     0.03581   0.24452   0.28502   0.00000  Uiso   1.00
C113   C     0.05047   0.22824   0.33135   0.00000  Uiso   1.00
H114   H     0.02804   0.20307   0.34548   0.00000  Uiso   1.00
H115   H     0.08173   0.21304   0.32950   0.00000  Uiso   1.00
H116   H     0.05285   0.25777   0.35493   0.00000  Uiso   1.00
H117   H     0.06047   0.26479   0.26799   0.00000  Uiso   1.00
H118   H     0.01070   0.26916   0.29245   0.00000  Uiso   1.00
C119   C     0.41956   0.16633   0.24897   0.00000  Uiso   1.00
C120   C     0.57960   0.16693   0.24366   0.00000  Uiso   1.00
C121   C     0.49861   0.16661   0.16317   0.00000  Uiso   1.00
C122   C     0.49740   0.16684   0.33649   0.00000  Uiso   1.00
C123   C     0.49107   0.02406   0.28843   0.00000  Uiso   1.00
C124   C     0.50939   0.30919   0.21165   0.00000  Uiso   1.00
C125   C     0.50905   0.02386   0.21159   0.00000  Uiso   1.00
C126   C     0.49062   0.30940   0.28833   0.00000  Uiso   1.00
C127   C     0.35469   0.12832   0.21988   0.00000  Uiso   1.00
C128   C     0.64565   0.20890   0.23835   0.00000  Uiso   1.00
C129   C     0.64420   0.12819   0.21777   0.00000  Uiso   1.00
C130   C     0.35255   0.20567   0.25465   0.00000  Uiso   1.00
C131   C     0.45762   0.20514   0.05076   0.00000  Uiso   1.00
C132   C     0.45226   0.13302   0.44846   0.00000  Uiso   1.00
C133   C     0.48428   0.20794   0.45549   0.00000  Uiso   1.00
C134   C     0.48011   0.12713   0.04353   0.00000  Uiso   1.00
C135   C     0.46846   0.20535   0.09630   0.00000  Uiso   1.00
C136   C     0.46215   0.13164   0.40289   0.00000  Uiso   1.00
C137   C     0.49538   0.20689   0.41032   0.00000  Uiso   1.00
C138   C     0.49372   0.12729   0.08802   0.00000  Uiso   1.00
C139   C     0.48835   0.16680   0.11492   0.00000  Uiso   1.00
C140   C     0.48590   0.16780   0.38405   0.00000  Uiso   1.00
C141   C     0.46454   0.16667   0.02412   0.00000  Uiso   1.00
C142   C     0.46447   0.17031   0.47511   0.00000  Uiso   1.00
C143   C     0.62338   0.16791   0.23219   0.00000  Uiso   1.00
C144   C     0.37493   0.16583   0.24283   0.00000  Uiso   1.00
H145   H     0.48442   0.04212   0.31928   0.00000  Uiso   1.00
H146   H     0.51723   0.29098   0.18106   0.00000  Uiso   1.00
H147   H     0.51639   0.04188   0.18101   0.00000  Uiso   1.00
H148   H     0.48288   0.29134   0.31891   0.00000  Uiso   1.00
H149   H     0.44527   0.23581   0.03584   0.00000  Uiso   1.00
H150   H     0.43646   0.10402   0.46343   0.00000  Uiso   1.00
H151   H     0.49370   0.23722   0.47570   0.00000  Uiso   1.00
H152   H     0.48507   0.09687   0.02321   0.00000  Uiso   1.00
N153   N     0.50000   0.28573   0.25000   0.00000  Uiso   1.00
N154   N     0.50000   0.04760   0.25000   0.00000  Uiso   1.00
O155   O     0.43892   0.20487   0.25000   0.00000  Uiso   1.00
O156   O     0.56108   0.12846   0.25001   0.00000  Uiso   1.00
O157   O     0.56108   0.20487   0.25001   0.00000  Uiso   1.00
O158   O     0.43892   0.12846   0.25000   0.00000  Uiso   1.00
O159   O     0.50000   0.20489   0.18453   0.00000  Uiso   1.00
O160   O     0.50000   0.12845   0.31547   0.00000  Uiso   1.00
O161   O     0.50000   0.20489   0.31547   0.00000  Uiso   1.00
O162   O     0.50000   0.12845   0.18453   0.00000  Uiso   1.00
Zn163  Zn    0.50000   0.21771   0.25000   0.00000  Uiso   1.00
Zn164  Zn    0.50000   0.11563   0.25000   0.00000  Uiso   1.00
O165   O     0.46325   0.24488   0.12146   0.00000  Uiso   1.00
C166   C     0.42046   0.25435   0.12765   0.00000  Uiso   1.00
H167   H     0.41295   0.24961   0.16396   0.00000  Uiso   1.00
H168   H     0.39869   0.23172   0.10800   0.00000  Uiso   1.00
C169   C     0.41269   0.30399   0.11500   0.00000  Uiso   1.00
H170   H     0.43219   0.32680   0.13674   0.00000  Uiso   1.00
H171   H     0.42183   0.30945   0.07925   0.00000  Uiso   1.00
C172   C     0.36701   0.31645   0.12065   0.00000  Uiso   1.00
H173   H     0.34689   0.29408   0.09921   0.00000  Uiso   1.00
H174   H     0.36240   0.01897   0.11019   0.00000  Uiso   1.00
H175   H     0.35766   0.31298   0.15652   0.00000  Uiso   1.00
O176   O     0.45147   0.09282   0.37846   0.00000  Uiso   1.00
C177   C     0.41434   0.09992   0.35363   0.00000  Uiso   1.00
H178   H     0.41616   0.07914   0.32224   0.00000  Uiso   1.00
H179   H     0.41042   0.13577   0.34273   0.00000  Uiso   1.00
C180   C     0.37608   0.08397   0.38018   0.00000  Uiso   1.00
H181   H     0.38074   0.04845   0.39182   0.00000  Uiso   1.00
H182   H     0.37188   0.10627   0.41024   0.00000  Uiso   1.00
C183   C     0.33678   0.08558   0.35101   0.00000  Uiso   1.00
H184   H     0.66470   0.12082   0.33902   0.00000  Uiso   1.00
H185   H     0.64280   0.07437   0.37117   0.00000  Uiso   1.00
H186   H     0.33972   0.06248   0.32134   0.00000  Uiso   1.00
O187   O     0.51344   0.24528   0.39144   0.00000  Uiso   1.00
C188   C     0.55679   0.24484   0.39926   0.00000  Uiso   1.00
H189   H     0.57052   0.21166   0.38875   0.00000  Uiso   1.00
H190   H     0.56346   0.25114   0.43572   0.00000  Uiso   1.00
C191   C     0.57709   0.28272   0.37141   0.00000  Uiso   1.00
H192   H     0.57182   0.27560   0.33488   0.00000  Uiso   1.00
H193   H     0.56255   0.31589   0.37989   0.00000  Uiso   1.00
C194   C     0.62380   0.28618   0.38043   0.00000  Uiso   1.00
H195   H     0.62979   0.29566   0.41626   0.00000  Uiso   1.00
H196   H     0.63784   0.31269   0.35844   0.00000  Uiso   1.00
H197   H     0.63869   0.25306   0.37298   0.00000  Uiso   1.00
O198   O     0.51004   0.08752   0.10507   0.00000  Uiso   1.00
C199   C     0.55389   0.08778   0.10009   0.00000  Uiso   1.00
H200   H     0.56593   0.06149   0.12328   0.00000  Uiso   1.00
H201   H     0.56837   0.12106   0.11024   0.00000  Uiso   1.00
C202   C     0.56744   0.07423   0.05221   0.00000  Uiso   1.00
H203   H     0.54967   0.04343   0.04096   0.00000  Uiso   1.00
H204   H     0.56111   0.10247   0.02846   0.00000  Uiso   1.00
C205   C     0.61396   0.06408   0.05071   0.00000  Uiso   1.00
H206   H     0.63238   0.09432   0.06218   0.00000  Uiso   1.00
H207   H     0.62312   0.05548   0.01557   0.00000  Uiso   1.00
H208   H     0.62122   0.03469   0.07272   0.00000  Uiso   1.00
C209   C     0.37901   0.09066   0.19537   0.00000  Uiso   1.00
C210   C     0.39906   0.10892   0.15241   0.00000  Uiso   1.00
H211   H     0.37467   0.11532   0.12659   0.00000  Uiso   1.00
H212   H     0.41587   0.14137   0.15914   0.00000  Uiso   1.00
H213   H     0.42120   0.08359   0.13871   0.00000  Uiso   1.00
H214   H     0.40159   0.07335   0.21737   0.00000  Uiso   1.00
H215   H     0.36002   0.06105   0.18491   0.00000  Uiso   1.00
C216   C     0.62943   0.25488   0.22226   0.00000  Uiso   1.00
C217   C     0.61325   0.25215   0.17358   0.00000  Uiso   1.00
H218   H     0.63766   0.23818   0.15106   0.00000  Uiso   1.00
H219   H     0.58501   0.23019   0.17093   0.00000  Uiso   1.00
H220   H     0.60511   0.28670   0.16162   0.00000  Uiso   1.00
H221   H     0.60543   0.26871   0.24527   0.00000  Uiso   1.00
H222   H     0.65498   0.28068   0.22191   0.00000  Uiso   1.00
C223   C     0.62017   0.08842   0.19616   0.00000  Uiso   1.00
C224   C     0.61736   0.04729   0.22766   0.00000  Uiso   1.00
H225   H     0.64861   0.03449   0.23674   0.00000  Uiso   1.00
H226   H     0.60105   0.05623   0.25941   0.00000  Uiso   1.00
H227   H     0.59964   0.01946   0.21062   0.00000  Uiso   1.00
H228   H     0.58850   0.09835   0.18610   0.00000  Uiso   1.00
H229   H     0.63366   0.07877   0.16308   0.00000  Uiso   1.00
C230   C     0.36914   0.24452   0.28502   0.00000  Uiso   1.00
C231   C     0.38380   0.22824   0.33135   0.00000  Uiso   1.00
H232   H     0.36137   0.20307   0.34548   0.00000  Uiso   1.00
H233   H     0.41506   0.21304   0.32950   0.00000  Uiso   1.00
H234   H     0.38619   0.25777   0.35493   0.00000  Uiso   1.00
H235   H     0.39380   0.26479   0.26799   0.00000  Uiso   1.00
H236   H     0.34403   0.26916   0.29245   0.00000  Uiso   1.00
C237   C     0.75289   0.16633   0.24897   0.00000  Uiso   1.00
C238   C     0.91294   0.16693   0.24366   0.00000  Uiso   1.00
C239   C     0.83195   0.16661   0.16317   0.00000  Uiso   1.00
C240   C     0.83073   0.16684   0.33649   0.00000  Uiso   1.00
C241   C     0.82440   0.02406   0.28843   0.00000  Uiso   1.00
C242   C     0.84273   0.30919   0.21165   0.00000  Uiso   1.00
C243   C     0.84238   0.02386   0.21159   0.00000  Uiso   1.00
C244   C     0.82395   0.30940   0.28833   0.00000  Uiso   1.00
C245   C     0.68802   0.12832   0.21988   0.00000  Uiso   1.00
C246   C     0.97898   0.20890   0.23835   0.00000  Uiso   1.00
C247   C     0.97754   0.12819   0.21777   0.00000  Uiso   1.00
C248   C     0.68589   0.20567   0.25465   0.00000  Uiso   1.00
C249   C     0.79095   0.20514   0.05076   0.00000  Uiso   1.00
C250   C     0.78560   0.13302   0.44846   0.00000  Uiso   1.00
C251   C     0.81762   0.20794   0.45549   0.00000  Uiso   1.00
C252   C     0.81344   0.12713   0.04353   0.00000  Uiso   1.00
C253   C     0.80179   0.20535   0.09630   0.00000  Uiso   1.00
C254   C     0.79549   0.13164   0.40289   0.00000  Uiso   1.00
C255   C     0.82872   0.20689   0.41032   0.00000  Uiso   1.00
C256   C     0.82706   0.12729   0.08802   0.00000  Uiso   1.00
C257   C     0.82169   0.16680   0.11492   0.00000  Uiso   1.00
C258   C     0.81923   0.16780   0.38405   0.00000  Uiso   1.00
C259   C     0.79787   0.16667   0.02412   0.00000  Uiso   1.00
C260   C     0.79780   0.17031   0.47511   0.00000  Uiso   1.00
C261   C     0.95671   0.16791   0.23219   0.00000  Uiso   1.00
C262   C     0.70826   0.16583   0.24283   0.00000  Uiso   1.00
H263   H     0.81775   0.04212   0.31928   0.00000  Uiso   1.00
H264   H     0.85057   0.29098   0.18106   0.00000  Uiso   1.00
H265   H     0.84973   0.04188   0.18101   0.00000  Uiso   1.00
H266   H     0.81622   0.29134   0.31891   0.00000  Uiso   1.00
H267   H     0.77860   0.23581   0.03584   0.00000  Uiso   1.00
H268   H     0.76979   0.10402   0.46343   0.00000  Uiso   1.00
H269   H     0.82703   0.23722   0.47570   0.00000  Uiso   1.00
H270   H     0.81841   0.09687   0.02321   0.00000  Uiso   1.00
N271   N     0.83333   0.28573   0.25000   0.00000  Uiso   1.00
N272   N     0.83333   0.04760   0.25000   0.00000  Uiso   1.00
O273   O     0.77226   0.20487   0.25000   0.00000  Uiso   1.00
O274   O     0.89441   0.12846   0.25001   0.00000  Uiso   1.00
O275   O     0.89441   0.20487   0.25001   0.00000  Uiso   1.00
O276   O     0.77226   0.12846   0.25000   0.00000  Uiso   1.00
O277   O     0.83333   0.20489   0.18453   0.00000  Uiso   1.00
O278   O     0.83334   0.12845   0.31547   0.00000  Uiso   1.00
O279   O     0.83334   0.20489   0.31547   0.00000  Uiso   1.00
O280   O     0.83333   0.12845   0.18453   0.00000  Uiso   1.00
Zn281  Zn    0.83333   0.21771   0.25000   0.00000  Uiso   1.00
Zn282  Zn    0.83333   0.11563   0.25000   0.00000  Uiso   1.00
O283   O     0.79659   0.24488   0.12146   0.00000  Uiso   1.00
C284   C     0.75379   0.25435   0.12765   0.00000  Uiso   1.00
H285   H     0.74629   0.24961   0.16396   0.00000  Uiso   1.00
H286   H     0.73202   0.23172   0.10800   0.00000  Uiso   1.00
C287   C     0.74603   0.30399   0.11500   0.00000  Uiso   1.00
H288   H     0.76552   0.32680   0.13674   0.00000  Uiso   1.00
H289   H     0.75516   0.30945   0.07925   0.00000  Uiso   1.00
C290   C     0.70034   0.31645   0.12065   0.00000  Uiso   1.00
H291   H     0.68022   0.29408   0.09921   0.00000  Uiso   1.00
H292   H     0.69574   0.01897   0.11019   0.00000  Uiso   1.00
H293   H     0.69100   0.31298   0.15652   0.00000  Uiso   1.00
O294   O     0.78480   0.09282   0.37846   0.00000  Uiso   1.00
C295   C     0.74767   0.09992   0.35363   0.00000  Uiso   1.00
H296   H     0.74949   0.07914   0.32224   0.00000  Uiso   1.00
H297   H     0.74375   0.13577   0.34273   0.00000  Uiso   1.00
C298   C     0.70942   0.08397   0.38018   0.00000  Uiso   1.00
H299   H     0.71407   0.04845   0.39182   0.00000  Uiso   1.00
H300   H     0.70521   0.10627   0.41024   0.00000  Uiso   1.00
C301   C     0.67011   0.08558   0.35101   0.00000  Uiso   1.00
H302   H     0.99804   0.12082   0.33902   0.00000  Uiso   1.00
H303   H     0.97613   0.07437   0.37117   0.00000  Uiso   1.00
H304   H     0.67305   0.06248   0.32134   0.00000  Uiso   1.00
O305   O     0.84677   0.24528   0.39144   0.00000  Uiso   1.00
C306   C     0.89012   0.24484   0.39926   0.00000  Uiso   1.00
H307   H     0.90386   0.21166   0.38875   0.00000  Uiso   1.00
H308   H     0.89679   0.25114   0.43572   0.00000  Uiso   1.00
C309   C     0.91042   0.28272   0.37141   0.00000  Uiso   1.00
H310   H     0.90515   0.27560   0.33488   0.00000  Uiso   1.00
H311   H     0.89588   0.31589   0.37989   0.00000  Uiso   1.00
C312   C     0.95713   0.28618   0.38043   0.00000  Uiso   1.00
H313   H     0.96313   0.29566   0.41626   0.00000  Uiso   1.00
H314   H     0.97118   0.31269   0.35844   0.00000  Uiso   1.00
H315   H     0.97202   0.25306   0.37298   0.00000  Uiso   1.00
O316   O     0.84338   0.08752   0.10507   0.00000  Uiso   1.00
C317   C     0.88722   0.08778   0.10009   0.00000  Uiso   1.00
H318   H     0.89927   0.06149   0.12328   0.00000  Uiso   1.00
H319   H     0.90170   0.12106   0.11024   0.00000  Uiso   1.00
C320   C     0.90077   0.07423   0.05221   0.00000  Uiso   1.00
H321   H     0.88301   0.04343   0.04096   0.00000  Uiso   1.00
H322   H     0.89444   0.10247   0.02846   0.00000  Uiso   1.00
C323   C     0.94729   0.06408   0.05071   0.00000  Uiso   1.00
H324   H     0.96571   0.09432   0.06218   0.00000  Uiso   1.00
H325   H     0.95645   0.05548   0.01557   0.00000  Uiso   1.00
H326   H     0.95456   0.03469   0.07272   0.00000  Uiso   1.00
C327   C     0.71234   0.09066   0.19537   0.00000  Uiso   1.00
C328   C     0.73239   0.10892   0.15241   0.00000  Uiso   1.00
H329   H     0.70800   0.11532   0.12659   0.00000  Uiso   1.00
H330   H     0.74920   0.14137   0.15914   0.00000  Uiso   1.00
H331   H     0.75453   0.08359   0.13871   0.00000  Uiso   1.00
H332   H     0.73492   0.07335   0.21737   0.00000  Uiso   1.00
H333   H     0.69335   0.06105   0.18491   0.00000  Uiso   1.00
C334   C     0.96276   0.25488   0.22226   0.00000  Uiso   1.00
C335   C     0.94658   0.25215   0.17358   0.00000  Uiso   1.00
H336   H     0.97099   0.23818   0.15106   0.00000  Uiso   1.00
H337   H     0.91834   0.23019   0.17093   0.00000  Uiso   1.00
H338   H     0.93844   0.28670   0.16162   0.00000  Uiso   1.00
H339   H     0.93877   0.26871   0.24527   0.00000  Uiso   1.00
H340   H     0.98831   0.28068   0.22191   0.00000  Uiso   1.00
C341   C     0.95351   0.08842   0.19616   0.00000  Uiso   1.00
C342   C     0.95070   0.04729   0.22766   0.00000  Uiso   1.00
H343   H     0.98194   0.03449   0.23674   0.00000  Uiso   1.00
H344   H     0.93438   0.05623   0.25941   0.00000  Uiso   1.00
H345   H     0.93298   0.01946   0.21062   0.00000  Uiso   1.00
H346   H     0.92183   0.09835   0.18610   0.00000  Uiso   1.00
H347   H     0.96699   0.07877   0.16308   0.00000  Uiso   1.00
C348   C     0.70248   0.24452   0.28502   0.00000  Uiso   1.00
C349   C     0.71713   0.22824   0.33135   0.00000  Uiso   1.00
H350   H     0.69470   0.20307   0.34548   0.00000  Uiso   1.00
H351   H     0.74840   0.21304   0.32950   0.00000  Uiso   1.00
H352   H     0.71952   0.25777   0.35493   0.00000  Uiso   1.00
H353   H     0.72713   0.26479   0.26799   0.00000  Uiso   1.00
H354   H     0.67737   0.26916   0.29245   0.00000  Uiso   1.00
C355   C     0.08622   0.49966   0.24897   0.00000  Uiso   1.00
C356   C     0.24627   0.50027   0.24366   0.00000  Uiso   1.00
C357   C     0.16528   0.49994   0.16317   0.00000  Uiso   1.00
C358   C     0.16407   0.50017   0.33649   0.00000  Uiso   1.00
C359   C     0.15773   0.35739   0.28843   0.00000  Uiso   1.00
C360   C     0.17606   0.64252   0.21165   0.00000  Uiso   1.00
C361   C     0.17572   0.35720   0.21159   0.00000  Uiso   1.00
C362   C     0.15728   0.64273   0.28833   0.00000  Uiso   1.00
C363   C     0.02135   0.46165   0.21988   0.00000  Uiso   1.00
C364   C     0.31231   0.54224   0.23835   0.00000  Uiso   1.00
C365   C     0.31087   0.46152   0.21777   0.00000  Uiso   1.00
C366   C     0.01922   0.53900   0.25465   0.00000  Uiso   1.00
C367   C     0.12429   0.53848   0.05076   0.00000  Uiso   1.00
C368   C     0.11893   0.46636   0.44846   0.00000  Uiso   1.00
C369   C     0.15095   0.54128   0.45549   0.00000  Uiso   1.00
C370   C     0.14677   0.46046   0.04353   0.00000  Uiso   1.00
C371   C     0.13513   0.53868   0.09630   0.00000  Uiso   1.00
C372   C     0.12882   0.46497   0.40289   0.00000  Uiso   1.00
C373   C     0.16205   0.54023   0.41032   0.00000  Uiso   1.00
C374   C     0.16039   0.46063   0.08802   0.00000  Uiso   1.00
C375   C     0.15502   0.50014   0.11492   0.00000  Uiso   1.00
C376   C     0.15256   0.50114   0.38405   0.00000  Uiso   1.00
C377   C     0.13120   0.50000   0.02412   0.00000  Uiso   1.00
C378   C     0.13114   0.50365   0.47511   0.00000  Uiso   1.00
C379   C     0.29004   0.50124   0.23219   0.00000  Uiso   1.00
C380   C     0.04160   0.49916   0.24283   0.00000  Uiso   1.00
H381   H     0.15108   0.37545   0.31928   0.00000  Uiso   1.00
H382   H     0.18390   0.62431   0.18106   0.00000  Uiso   1.00
H383   H     0.18306   0.37522   0.18101   0.00000  Uiso   1.00
H384   H     0.14955   0.62467   0.31891   0.00000  Uiso   1.00
H385   H     0.11193   0.56914   0.03584   0.00000  Uiso   1.00
H386   H     0.10313   0.43736   0.46343   0.00000  Uiso   1.00
H387   H     0.16037   0.57055   0.47570   0.00000  Uiso   1.00
H388   H     0.15174   0.43021   0.02321   0.00000  Uiso   1.00
N389   N     0.16667   0.61907   0.25000   0.00000  Uiso   1.00
N390   N     0.16667   0.38093   0.25000   0.00000  Uiso   1.00
O391   O     0.10559   0.53821   0.25000   0.00000  Uiso   1.00
O392   O     0.22774   0.46179   0.25001   0.00000  Uiso   1.00
O393   O     0.22774   0.53821   0.25001   0.00000  Uiso   1.00
O394   O     0.10559   0.46179   0.25000   0.00000  Uiso   1.00
O395   O     0.16666   0.53822   0.18453   0.00000  Uiso   1.00
O396   O     0.16667   0.46178   0.31547   0.00000  Uiso   1.00
O397   O     0.16667   0.53822   0.31547   0.00000  Uiso   1.00
O398   O     0.16666   0.46178   0.18453   0.00000  Uiso   1.00
Zn399  Zn    0.16667   0.55104   0.25000   0.00000  Uiso   1.00
Zn400  Zn    0.16667   0.44896   0.25000   0.00000  Uiso   1.00
O401   O     0.12992   0.57821   0.12146   0.00000  Uiso   1.00
C402   C     0.08712   0.58768   0.12765   0.00000  Uiso   1.00
H403   H     0.07962   0.58294   0.16396   0.00000  Uiso   1.00
H404   H     0.06535   0.56506   0.10800   0.00000  Uiso   1.00
C405   C     0.07936   0.63732   0.11500   0.00000  Uiso   1.00
H406   H     0.09886   0.66014   0.13674   0.00000  Uiso   1.00
H407   H     0.08849   0.64279   0.07925   0.00000  Uiso   1.00
C408   C     0.03368   0.64979   0.12065   0.00000  Uiso   1.00
H409   H     0.01355   0.62741   0.09921   0.00000  Uiso   1.00
H410   H     0.02907   0.35230   0.11019   0.00000  Uiso   1.00
H411   H     0.02433   0.64631   0.15652   0.00000  Uiso   1.00
O412   O     0.11813   0.42616   0.37846   0.00000  Uiso   1.00
C413   C     0.08101   0.43325   0.35363   0.00000  Uiso   1.00
H414   H     0.08283   0.41247   0.32224   0.00000  Uiso   1.00
H415   H     0.07709   0.46910   0.34273   0.00000  Uiso   1.00
C416   C     0.04275   0.41731   0.38018   0.00000  Uiso   1.00
H417   H     0.04740   0.38178   0.39182   0.00000  Uiso   1.00
H418   H     0.03854   0.43961   0.41024   0.00000  Uiso   1.00
C419   C     0.00345   0.41891   0.35101   0.00000  Uiso   1.00
H420   H     0.33137   0.45416   0.33902   0.00000  Uiso   1.00
H421   H     0.30946   0.40770   0.37117   0.00000  Uiso   1.00
H422   H     0.00639   0.39581   0.32134   0.00000  Uiso   1.00
O423   O     0.18011   0.57861   0.39144   0.00000  Uiso   1.00
C424   C     0.22346   0.57818   0.39926   0.00000  Uiso   1.00
H425   H     0.23719   0.54499   0.38875   0.00000  Uiso   1.00
H426   H     0.23013   0.58447   0.43572   0.00000  Uiso   1.00
C427   C     0.24376   0.61605   0.37141   0.00000  Uiso   1.00
H428   H     0.23848   0.60894   0.33488   0.00000  Uiso   1.00
H429   H     0.22922   0.64922   0.37989   0.00000  Uiso   1.00
C430   C     0.29046   0.61951   0.38043   0.00000  Uiso   1.00
H431   H     0.29646   0.62899   0.41626   0.00000  Uiso   1.00
H432   H     0.30451   0.64603   0.35844   0.00000  Uiso   1.00
H433   H     0.30535   0.58639   0.37298   0.00000  Uiso   1.00
O434   O     0.17671   0.42086   0.10507   0.00000  Uiso   1.00
C435   C     0.22055   0.42111   0.10009   0.00000  Uiso   1.00
H436   H     0.23260   0.39482   0.12328   0.00000  Uiso   1.00
H437   H     0.23503   0.45440   0.11024   0.00000  Uiso   1.00
C438   C     0.23410   0.40757   0.05221   0.00000  Uiso   1.00
H439   H     0.21634   0.37677   0.04096   0.00000  Uiso   1.00
H440   H     0.22777   0.43580   0.02846   0.00000  Uiso   1.00
C441   C     0.28063   0.39742   0.05071   0.00000  Uiso   1.00
H442   H     0.29905   0.42765   0.06218   0.00000  Uiso   1.00
H443   H     0.28979   0.38881   0.01557   0.00000  Uiso   1.00
H444   H     0.28789   0.36802   0.07272   0.00000  Uiso   1.00
C445   C     0.04568   0.42399   0.19537   0.00000  Uiso   1.00
C446   C     0.06573   0.44226   0.15241   0.00000  Uiso   1.00
H447   H     0.04133   0.44865   0.12659   0.00000  Uiso   1.00
H448   H     0.08253   0.47471   0.15914   0.00000  Uiso   1.00
H449   H     0.08786   0.41692   0.13871   0.00000  Uiso   1.00
H450   H     0.06825   0.40669   0.21737   0.00000  Uiso   1.00
H451   H     0.02669   0.39439   0.18491   0.00000  Uiso   1.00
C452   C     0.29609   0.58821   0.22226   0.00000  Uiso   1.00
C453   C     0.27991   0.58548   0.17358   0.00000  Uiso   1.00
H454   H     0.30433   0.57151   0.15106   0.00000  Uiso   1.00
H455   H     0.25168   0.56352   0.17093   0.00000  Uiso   1.00
H456   H     0.27178   0.62003   0.16162   0.00000  Uiso   1.00
H457   H     0.27210   0.60205   0.24527   0.00000  Uiso   1.00
H458   H     0.32164   0.61401   0.22191   0.00000  Uiso   1.00
C459   C     0.28684   0.42176   0.19616   0.00000  Uiso   1.00
C460   C     0.28403   0.38063   0.22766   0.00000  Uiso   1.00
H461   H     0.31528   0.36782   0.23674   0.00000  Uiso   1.00
H462   H     0.26772   0.38956   0.25941   0.00000  Uiso   1.00
H463   H     0.26631   0.35279   0.21062   0.00000  Uiso   1.00
H464   H     0.25517   0.43168   0.18610   0.00000  Uiso   1.00
H465   H     0.30033   0.41210   0.16308   0.00000  Uiso   1.00
C466   C     0.03581   0.57785   0.28502   0.00000  Uiso   1.00
C467   C     0.05047   0.56157   0.33135   0.00000  Uiso   1.00
H468   H     0.02804   0.53640   0.34548   0.00000  Uiso   1.00
H469   H     0.08173   0.54637   0.32950   0.00000  Uiso   1.00
H470   H     0.05285   0.59110   0.35493   0.00000  Uiso   1.00
H471   H     0.06047   0.59812   0.26799   0.00000  Uiso   1.00
H472   H     0.01070   0.60249   0.29245   0.00000  Uiso   1.00
C473   C     0.41956   0.49966   0.24897   0.00000  Uiso   1.00
C474   C     0.57960   0.50027   0.24366   0.00000  Uiso   1.00
C475   C     0.49861   0.49994   0.16317   0.00000  Uiso   1.00
C476   C     0.49740   0.50017   0.33649   0.00000  Uiso   1.00
C477   C     0.49107   0.35739   0.28843   0.00000  Uiso   1.00
C478   C     0.50939   0.64252   0.21165   0.00000  Uiso   1.00
C479   C     0.50905   0.35720   0.21159   0.00000  Uiso   1.00
C480   C     0.49062   0.64273   0.28833   0.00000  Uiso   1.00
C481   C     0.35469   0.46165   0.21988   0.00000  Uiso   1.00
C482   C     0.64565   0.54224   0.23835   0.00000  Uiso   1.00
C483   C     0.64420   0.46152   0.21777   0.00000  Uiso   1.00
C484   C     0.35255   0.53900   0.25465   0.00000  Uiso   1.00
C485   C     0.45762   0.53848   0.05076   0.00000  Uiso   1.00
C486   C     0.45226   0.46636   0.44846   0.00000  Uiso   1.00
C487   C     0.48428   0.54128   0.45549   0.00000  Uiso   1.00
C488   C     0.48011   0.46046   0.04353   0.00000  Uiso   1.00
C489   C     0.46846   0.53868   0.09630   0.00000  Uiso   1.00
C490   C     0.46215   0.46497   0.40289   0.00000  Uiso   1.00
C491   C     0.49538   0.54023   0.41032   0.00000  Uiso   1.00
C492   C     0.49372   0.46063   0.08802   0.00000  Uiso   1.00
C493   C     0.48835   0.50014   0.11492   0.00000  Uiso   1.00
C494   C     0.48590   0.50114   0.38405   0.00000  Uiso   1.00
C495   C     0.46454   0.50000   0.02412   0.00000  Uiso   1.00
C496   C     0.46447   0.50365   0.47511   0.00000  Uiso   1.00
C497   C     0.62338   0.50124   0.23219   0.00000  Uiso   1.00
C498   C     0.37493   0.49916   0.24283   0.00000  Uiso   1.00
H499   H     0.48442   0.37545   0.31928   0.00000  Uiso   1.00
H500   H     0.51723   0.62431   0.18106   0.00000  Uiso   1.00
H501   H     0.51639   0.37522   0.18101   0.00000  Uiso   1.00
H502   H     0.48288   0.62467   0.31891   0.00000  Uiso   1.00
H503   H     0.44527   0.56914   0.03584   0.00000  Uiso   1.00
H504   H     0.43646   0.43736   0.46343   0.00000  Uiso   1.00
H505   H     0.49370   0.57055   0.47570   0.00000  Uiso   1.00
H506   H     0.48507   0.43021   0.02321   0.00000  Uiso   1.00
N507   N     0.50000   0.61907   0.25000   0.00000  Uiso   1.00
N508   N     0.50000   0.38093   0.25000   0.00000  Uiso   1.00
O509   O     0.43892   0.53821   0.25000   0.00000  Uiso   1.00
O510   O     0.56108   0.46179   0.25001   0.00000  Uiso   1.00
O511   O     0.56108   0.53821   0.25001   0.00000  Uiso   1.00
O512   O     0.43892   0.46179   0.25000   0.00000  Uiso   1.00
O513   O     0.50000   0.53822   0.18453   0.00000  Uiso   1.00
O514   O     0.50000   0.46178   0.31547   0.00000  Uiso   1.00
O515   O     0.50000   0.53822   0.31547   0.00000  Uiso   1.00
O516   O     0.50000   0.46178   0.18453   0.00000  Uiso   1.00
Zn517  Zn    0.50000   0.55104   0.25000   0.00000  Uiso   1.00
Zn518  Zn    0.50000   0.44896   0.25000   0.00000  Uiso   1.00
O519   O     0.46325   0.57821   0.12146   0.00000  Uiso   1.00
C520   C     0.42046   0.58768   0.12765   0.00000  Uiso   1.00
H521   H     0.41295   0.58294   0.16396   0.00000  Uiso   1.00
H522   H     0.39869   0.56506   0.10800   0.00000  Uiso   1.00
C523   C     0.41269   0.63732   0.11500   0.00000  Uiso   1.00
H524   H     0.43219   0.66014   0.13674   0.00000  Uiso   1.00
H525   H     0.42183   0.64279   0.07925   0.00000  Uiso   1.00
C526   C     0.36701   0.64979   0.12065   0.00000  Uiso   1.00
H527   H     0.34689   0.62741   0.09921   0.00000  Uiso   1.00
H528   H     0.36240   0.35230   0.11019   0.00000  Uiso   1.00
H529   H     0.35766   0.64631   0.15652   0.00000  Uiso   1.00
O530   O     0.45147   0.42616   0.37846   0.00000  Uiso   1.00
C531   C     0.41434   0.43325   0.35363   0.00000  Uiso   1.00
H532   H     0.41616   0.41247   0.32224   0.00000  Uiso   1.00
H533   H     0.41042   0.46910   0.34273   0.00000  Uiso   1.00
C534   C     0.37608   0.41731   0.38018   0.00000  Uiso   1.00
H535   H     0.38074   0.38178   0.39182   0.00000  Uiso   1.00
H536   H     0.37188   0.43961   0.41024   0.00000  Uiso   1.00
C537   C     0.33678   0.41891   0.35101   0.00000  Uiso   1.00
H538   H     0.66470   0.45416   0.33902   0.00000  Uiso   1.00
H539   H     0.64280   0.40770   0.37117   0.00000  Uiso   1.00
H540   H     0.33972   0.39581   0.32134   0.00000  Uiso   1.00
O541   O     0.51344   0.57861   0.39144   0.00000  Uiso   1.00
C542   C     0.55679   0.57818   0.39926   0.00000  Uiso   1.00
H543   H     0.57052   0.54499   0.38875   0.00000  Uiso   1.00
H544   H     0.56346   0.58447   0.43572   0.00000  Uiso   1.00
C545   C     0.57709   0.61605   0.37141   0.00000  Uiso   1.00
H546   H     0.57182   0.60894   0.33488   0.00000  Uiso   1.00
H547   H     0.56255   0.64922   0.37989   0.00000  Uiso   1.00
C548   C     0.62380   0.61951   0.38043   0.00000  Uiso   1.00
H549   H     0.62979   0.62899   0.41626   0.00000  Uiso   1.00
H550   H     0.63784   0.64603   0.35844   0.00000  Uiso   1.00
H551   H     0.63869   0.58639   0.37298   0.00000  Uiso   1.00
O552   O     0.51004   0.42086   0.10507   0.00000  Uiso   1.00
C553   C     0.55389   0.42111   0.10009   0.00000  Uiso   1.00
H554   H     0.56593   0.39482   0.12328   0.00000  Uiso   1.00
H555   H     0.56837   0.45440   0.11024   0.00000  Uiso   1.00
C556   C     0.56744   0.40757   0.05221   0.00000  Uiso   1.00
H557   H     0.54967   0.37677   0.04096   0.00000  Uiso   1.00
H558   H     0.56111   0.43580   0.02846   0.00000  Uiso   1.00
C559   C     0.61396   0.39742   0.05071   0.00000  Uiso   1.00
H560   H     0.63238   0.42765   0.06218   0.00000  Uiso   1.00
H561   H     0.62312   0.38881   0.01557   0.00000  Uiso   1.00
H562   H     0.62122   0.36802   0.07272   0.00000  Uiso   1.00
C563   C     0.37901   0.42399   0.19537   0.00000  Uiso   1.00
C564   C     0.39906   0.44226   0.15241   0.00000  Uiso   1.00
H565   H     0.37467   0.44865   0.12659   0.00000  Uiso   1.00
H566   H     0.41587   0.47471   0.15914   0.00000  Uiso   1.00
H567   H     0.42120   0.41692   0.13871   0.00000  Uiso   1.00
H568   H     0.40159   0.40669   0.21737   0.00000  Uiso   1.00
H569   H     0.36002   0.39439   0.18491   0.00000  Uiso   1.00
C570   C     0.62943   0.58821   0.22226   0.00000  Uiso   1.00
C571   C     0.61325   0.58548   0.17358   0.00000  Uiso   1.00
H572   H     0.63766   0.57151   0.15106   0.00000  Uiso   1.00
H573   H     0.58501   0.56352   0.17093   0.00000  Uiso   1.00
H574   H     0.60511   0.62003   0.16162   0.00000  Uiso   1.00
H575   H     0.60543   0.60205   0.24527   0.00000  Uiso   1.00
H576   H     0.65498   0.61401   0.22191   0.00000  Uiso   1.00
C577   C     0.62017   0.42176   0.19616   0.00000  Uiso   1.00
C578   C     0.61736   0.38063   0.22766   0.00000  Uiso   1.00
H579   H     0.64861   0.36782   0.23674   0.00000  Uiso   1.00
H580   H     0.60105   0.38956   0.25941   0.00000  Uiso   1.00
H581   H     0.59964   0.35279   0.21062   0.00000  Uiso   1.00
H582   H     0.58850   0.43168   0.18610   0.00000  Uiso   1.00
H583   H     0.63366   0.41210   0.16308   0.00000  Uiso   1.00
C584   C     0.36914   0.57785   0.28502   0.00000  Uiso   1.00
C585   C     0.38380   0.56157   0.33135   0.00000  Uiso   1.00
H586   H     0.36137   0.53640   0.34548   0.00000  Uiso   1.00
H587   H     0.41506   0.54637   0.32950   0.00000  Uiso   1.00
H588   H     0.38619   0.59110   0.35493   0.00000  Uiso   1.00
H589   H     0.39380   0.59812   0.26799   0.00000  Uiso   1.00
H590   H     0.34403   0.60249   0.29245   0.00000  Uiso   1.00
C591   C     0.75289   0.49966   0.24897   0.00000  Uiso   1.00
C592   C     0.91294   0.50027   0.24366   0.00000  Uiso   1.00
C593   C     0.83195   0.49994   0.16317   0.00000  Uiso   1.00
C594   C     0.83073   0.50017   0.33649   0.00000  Uiso   1.00
C595   C     0.82440   0.35739   0.28843   0.00000  Uiso   1.00
C596   C     0.84273   0.64252   0.21165   0.00000  Uiso   1.00
C597   C     0.84238   0.35720   0.21159   0.00000  Uiso   1.00
C598   C     0.82395   0.64273   0.28833   0.00000  Uiso   1.00
C599   C     0.68802   0.46165   0.21988   0.00000  Uiso   1.00
C600   C     0.97898   0.54224   0.23835   0.00000  Uiso   1.00
C601   C     0.97754   0.46152   0.21777   0.00000  Uiso   1.00
C602   C     0.68589   0.53900   0.25465   0.00000  Uiso   1.00
C603   C     0.79095   0.53848   0.05076   0.00000  Uiso   1.00
C604   C     0.78560   0.46636   0.44846   0.00000  Uiso   1.00
C605   C     0.81762   0.54128   0.45549   0.00000  Uiso   1.00
C606   C     0.81344   0.46046   0.04353   0.00000  Uiso   1.00
C607   C     0.80179   0.53868   0.09630   0.00000  Uiso   1.00
C608   C     0.79549   0.46497   0.40289   0.00000  Uiso   1.00
C609   C     0.82872   0.54023   0.41032   0.00000  Uiso   1.00
C610   C     0.82706   0.46063   0.08802   0.00000  Uiso   1.00
C611   C     0.82169   0.50014   0.11492   0.00000  Uiso   1.00
C612   C     0.81923   0.50114   0.38405   0.00000  Uiso   1.00
C613   C     0.79787   0.50000   0.02412   0.00000  Uiso   1.00
C614   C     0.79780   0.50365   0.47511   0.00000  Uiso   1.00
C615   C     0.95671   0.50124   0.23219   0.00000  Uiso   1.00
C616   C     0.70826   0.49916   0.24283   0.00000  Uiso   1.00
H617   H     0.81775   0.37545   0.31928   0.00000  Uiso   1.00
H618   H     0.85057   0.62431   0.18106   0.00000  Uiso   1.00
H619   H     0.84973   0.37522   0.18101   0.00000  Uiso   1.00
H620   H     0.81622   0.62467   0.31891   0.00000  Uiso   1.00
H621   H     0.77860   0.56914   0.03584   0.00000  Uiso   1.00
H622   H     0.76979   0.43736   0.46343   0.00000  Uiso   1.00
H623   H     0.82703   0.57055   0.47570   0.00000  Uiso   1.00
H624   H     0.81841   0.43021   0.02321   0.00000  Uiso   1.00
N625   N     0.83333   0.61907   0.25000   0.00000  Uiso   1.00
N626   N     0.83333   0.38093   0.25000   0.00000  Uiso   1.00
O627   O     0.77226   0.53821   0.25000   0.00000  Uiso   1.00
O628   O     0.89441   0.46179   0.25001   0.00000  Uiso   1.00
O629   O     0.89441   0.53821   0.25001   0.00000  Uiso   1.00
O630   O     0.77226   0.46179   0.25000   0.00000  Uiso   1.00
O631   O     0.83333   0.53822   0.18453   0.00000  Uiso   1.00
O632   O     0.83334   0.46178   0.31547   0.00000  Uiso   1.00
O633   O     0.83334   0.53822   0.31547   0.00000  Uiso   1.00
O634   O     0.83333   0.46178   0.18453   0.00000  Uiso   1.00
Zn635  Zn    0.83333   0.55104   0.25000   0.00000  Uiso   1.00
Zn636  Zn    0.83333   0.44896   0.25000   0.00000  Uiso   1.00
O637   O     0.79659   0.57821   0.12146   0.00000  Uiso   1.00
C638   C     0.75379   0.58768   0.12765   0.00000  Uiso   1.00
H639   H     0.74629   0.58294   0.16396   0.00000  Uiso   1.00
H640   H     0.73202   0.56506   0.10800   0.00000  Uiso   1.00
C641   C     0.74603   0.63732   0.11500   0.00000  Uiso   1.00
H642   H     0.76552   0.66014   0.13674   0.00000  Uiso   1.00
H643   H     0.75516   0.64279   0.07925   0.00000  Uiso   1.00
C644   C     0.70034   0.64979   0.12065   0.00000  Uiso   1.00
H645   H     0.68022   0.62741   0.09921   0.00000  Uiso   1.00
H646   H     0.69574   0.35230   0.11019   0.00000  Uiso   1.00
H647   H     0.69100   0.64631   0.15652   0.00000  Uiso   1.00
O648   O     0.78480   0.42616   0.37846   0.00000  Uiso   1.00
C649   C     0.74767   0.43325   0.35363   0.00000  Uiso   1.00
H650   H     0.74949   0.41247   0.32224   0.00000  Uiso   1.00
H651   H     0.74375   0.46910   0.34273   0.00000  Uiso   1.00
C652   C     0.70942   0.41731   0.38018   0.00000  Uiso   1.00
H653   H     0.71407   0.38178   0.39182   0.00000  Uiso   1.00
H654   H     0.70521   0.43961   0.41024   0.00000  Uiso   1.00
C655   C     0.67011   0.41891   0.35101   0.00000  Uiso   1.00
H656   H     0.99804   0.45416   0.33902   0.00000  Uiso   1.00
H657   H     0.97613   0.40770   0.37117   0.00000  Uiso   1.00
H658   H     0.67305   0.39581   0.32134   0.00000  Uiso   1.00
O659   O     0.84677   0.57861   0.39144   0.00000  Uiso   1.00
C660   C     0.89012   0.57818   0.39926   0.00000  Uiso   1.00
H661   H     0.90386   0.54499   0.38875   0.00000  Uiso   1.00
H662   H     0.89679   0.58447   0.43572   0.00000  Uiso   1.00
C663   C     0.91042   0.61605   0.37141   0.00000  Uiso   1.00
H664   H     0.90515   0.60894   0.33488   0.00000  Uiso   1.00
H665   H     0.89588   0.64922   0.37989   0.00000  Uiso   1.00
C666   C     0.95713   0.61951   0.38043   0.00000  Uiso   1.00
H667   H     0.96313   0.62899   0.41626   0.00000  Uiso   1.00
H668   H     0.97118   0.64603   0.35844   0.00000  Uiso   1.00
H669   H     0.97202   0.58639   0.37298   0.00000  Uiso   1.00
O670   O     0.84338   0.42086   0.10507   0.00000  Uiso   1.00
C671   C     0.88722   0.42111   0.10009   0.00000  Uiso   1.00
H672   H     0.89927   0.39482   0.12328   0.00000  Uiso   1.00
H673   H     0.90170   0.45440   0.11024   0.00000  Uiso   1.00
C674   C     0.90077   0.40757   0.05221   0.00000  Uiso   1.00
H675   H     0.88301   0.37677   0.04096   0.00000  Uiso   1.00
H676   H     0.89444   0.43580   0.02846   0.00000  Uiso   1.00
C677   C     0.94729   0.39742   0.05071   0.00000  Uiso   1.00
H678   H     0.96571   0.42765   0.06218   0.00000  Uiso   1.00
H679   H     0.95645   0.38881   0.01557   0.00000  Uiso   1.00
H680   H     0.95456   0.36802   0.07272   0.00000  Uiso   1.00
C681   C     0.71234   0.42399   0.19537   0.00000  Uiso   1.00
C682   C     0.73239   0.44226   0.15241   0.00000  Uiso   1.00
H683   H     0.70800   0.44865   0.12659   0.00000  Uiso   1.00
H684   H     0.74920   0.47471   0.15914   0.00000  Uiso   1.00
H685   H     0.75453   0.41692   0.13871   0.00000  Uiso   1.00
H686   H     0.73492   0.40669   0.21737   0.00000  Uiso   1.00
H687   H     0.69335   0.39439   0.18491   0.00000  Uiso   1.00
C688   C     0.96276   0.58821   0.22226   0.00000  Uiso   1.00
C689   C     0.94658   0.58548   0.17358   0.00000  Uiso   1.00
H690   H     0.97099   0.57151   0.15106   0.00000  Uiso   1.00
H691   H     0.91834   0.56352   0.17093   0.00000  Uiso   1.00
H692   H     0.93844   0.62003   0.16162   0.00000  Uiso   1.00
H693   H     0.93877   0.60205   0.24527   0.00000  Uiso   1.00
H694   H     0.98831   0.61401   0.22191   0.00000  Uiso   1.00
C695   C     0.95351   0.42176   0.19616   0.00000  Uiso   1.00
C696   C     0.95070   0.38063   0.22766   0.00000  Uiso   1.00
H697   H     0.98194   0.36782   0.23674   0.00000  Uiso   1.00
H698   H     0.93438   0.38956   0.25941   0.00000  Uiso   1.00
H699   H     0.93298   0.35279   0.21062   0.00000  Uiso   1.00
H700   H     0.92183   0.43168   0.18610   0.00000  Uiso   1.00
H701   H     0.96699   0.41210   0.16308   0.00000  Uiso   1.00
C702   C     0.70248   0.57785   0.28502   0.00000  Uiso   1.00
C703   C     0.71713   0.56157   0.33135   0.00000  Uiso   1.00
H704   H     0.69470   0.53640   0.34548   0.00000  Uiso   1.00
H705   H     0.74840   0.54637   0.32950   0.00000  Uiso   1.00
H706   H     0.71952   0.59110   0.35493   0.00000  Uiso   1.00
H707   H     0.72713   0.59812   0.26799   0.00000  Uiso   1.00
H708   H     0.67737   0.60249   0.29245   0.00000  Uiso   1.00
C709   C     0.08622   0.83300   0.24897   0.00000  Uiso   1.00
C710   C     0.24627   0.83360   0.24366   0.00000  Uiso   1.00
C711   C     0.16528   0.83327   0.16317   0.00000  Uiso   1.00
C712   C     0.16407   0.83351   0.33649   0.00000  Uiso   1.00
C713   C     0.15773   0.69073   0.28843   0.00000  Uiso   1.00
C714   C     0.17606   0.97585   0.21165   0.00000  Uiso   1.00
C715   C     0.17572   0.69053   0.21159   0.00000  Uiso   1.00
C716   C     0.15728   0.97607   0.28833   0.00000  Uiso   1.00
C717   C     0.02135   0.79498   0.21988   0.00000  Uiso   1.00
C718   C     0.31231   0.87557   0.23835   0.00000  Uiso   1.00
C719   C     0.31087   0.79485   0.21777   0.00000  Uiso   1.00
C720   C     0.01922   0.87234   0.25465   0.00000  Uiso   1.00
C721   C     0.12429   0.87181   0.05076   0.00000  Uiso   1.00
C722   C     0.11893   0.79969   0.44846   0.00000  Uiso   1.00
C723   C     0.15095   0.87461   0.45549   0.00000  Uiso   1.00
C724   C     0.14677   0.79380   0.04353   0.00000  Uiso   1.00
C725   C     0.13513   0.87202   0.09630   0.00000  Uiso   1.00
C726   C     0.12882   0.79830   0.40289   0.00000  Uiso   1.00
C727   C     0.16205   0.87356   0.41032   0.00000  Uiso   1.00
C728   C     0.16039   0.79396   0.08802   0.00000  Uiso   1.00
C729   C     0.15502   0.83347   0.11492   0.00000  Uiso   1.00
C730   C     0.15256   0.83447   0.38405   0.00000  Uiso   1.00
C731   C     0.13120   0.83334   0.02412   0.00000  Uiso   1.00
C732   C     0.13114   0.83698   0.47511   0.00000  Uiso   1.00
C733   C     0.29004   0.83458   0.23219   0.00000  Uiso   1.00
C734   C     0.04160   0.83249   0.24283   0.00000  Uiso   1.00
H735   H     0.15108   0.70878   0.31928   0.00000  Uiso   1.00
H736   H     0.18390   0.95764   0.18106   0.00000  Uiso   1.00
H737   H     0.18306   0.70855   0.18101   0.00000  Uiso   1.00
H738   H     0.14955   0.95801   0.31891   0.00000  Uiso   1.00
H739   H     0.11193   0.90247   0.03584   0.00000  Uiso   1.00
H740   H     0.10313   0.77069   0.46343   0.00000  Uiso   1.00
H741   H     0.16037   0.90389   0.47570   0.00000  Uiso   1.00
H742   H     0.15174   0.76354   0.02321   0.00000  Uiso   1.00
N743   N     0.16667   0.95240   0.25000   0.00000  Uiso   1.00
N744   N     0.16667   0.71427   0.25000   0.00000  Uiso   1.00
O745   O     0.10559   0.87154   0.25000   0.00000  Uiso   1.00
O746   O     0.22774   0.79513   0.25001   0.00000  Uiso   1.00
O747   O     0.22774   0.87154   0.25001   0.00000  Uiso   1.00
O748   O     0.10559   0.79513   0.25000   0.00000  Uiso   1.00
O749   O     0.16666   0.87155   0.18453   0.00000  Uiso   1.00
O750   O     0.16667   0.79511   0.31547   0.00000  Uiso   1.00
O751   O     0.16667   0.87155   0.31547   0.00000  Uiso   1.00
O752   O     0.16666   0.79511   0.18453   0.00000  Uiso   1.00
Zn753  Zn    0.16667   0.88437   0.25000   0.00000  Uiso   1.00
Zn754  Zn    0.16667   0.78229   0.25000   0.00000  Uiso   1.00
O755   O     0.12992   0.91154   0.12146   0.00000  Uiso   1.00
C756   C     0.08712   0.92101   0.12765   0.00000  Uiso   1.00
H757   H     0.07962   0.91627   0.16396   0.00000  Uiso   1.00
H758   H     0.06535   0.89839   0.10800   0.00000  Uiso   1.00
C759   C     0.07936   0.97065   0.11500   0.00000  Uiso   1.00
H760   H     0.09886   0.99347   0.13674   0.00000  Uiso   1.00
H761   H     0.08849   0.97612   0.07925   0.00000  Uiso   1.00
C762   C     0.03368   0.98312   0.12065   0.00000  Uiso   1.00
H763   H     0.01355   0.96074   0.09921   0.00000  Uiso   1.00
H764   H     0.02907   0.68564   0.11019   0.00000  Uiso   1.00
H765   H     0.02433   0.97964   0.15652   0.00000  Uiso   1.00
O766   O     0.11813   0.75949   0.37846   0.00000  Uiso   1.00
C767   C     0.08101   0.76658   0.35363   0.00000  Uiso   1.00
H768   H     0.08283   0.74581   0.32224   0.00000  Uiso   1.00
H769   H     0.07709   0.80244   0.34273   0.00000  Uiso   1.00
C770   C     0.04275   0.75064   0.38018   0.00000  Uiso   1.00
H771   H     0.04740   0.71511   0.39182   0.00000  Uiso   1.00
H772   H     0.03854   0.77294   0.41024   0.00000  Uiso   1.00
C773   C     0.00345   0.75225   0.35101   0.00000  Uiso   1.00
H774   H     0.33137   0.78749   0.33902   0.00000  Uiso   1.00
H775   H     0.30946   0.74104   0.37117   0.00000  Uiso   1.00
H776   H     0.00639   0.72915   0.32134   0.00000  Uiso   1.00
O777   O     0.18011   0.91194   0.39144   0.00000  Uiso   1.00
C778   C     0.22346   0.91151   0.39926   0.00000  Uiso   1.00
H779   H     0.23719   0.87832   0.38875   0.00000  Uiso   1.00
H780   H     0.23013   0.91780   0.43572   0.00000  Uiso   1.00
C781   C     0.24376   0.94938   0.37141   0.00000  Uiso   1.00
H782   H     0.23848   0.94227   0.33488   0.00000  Uiso   1.00
H783   H     0.22922   0.98255   0.37989   0.00000  Uiso   1.00
C784   C     0.29046   0.95284   0.38043   0.00000  Uiso   1.00
H785   H     0.29646   0.96233   0.41626   0.00000  Uiso   1.00
H786   H     0.30451   0.97936   0.35844   0.00000  Uiso   1.00
H787   H     0.30535   0.91973   0.37298   0.00000  Uiso   1.00
O788   O     0.17671   0.75419   0.10507   0.00000  Uiso   1.00
C789   C     0.22055   0.75444   0.10009   0.00000  Uiso   1.00
H790   H     0.23260   0.72815   0.12328   0.00000  Uiso   1.00
H791   H     0.23503   0.78773   0.11024   0.00000  Uiso   1.00
C792   C     0.23410   0.74090   0.05221   0.00000  Uiso   1.00
H793   H     0.21634   0.71010   0.04096   0.00000  Uiso   1.00
H794   H     0.22777   0.76914   0.02846   0.00000  Uiso   1.00
C795   C     0.28063   0.73075   0.05071   0.00000  Uiso   1.00
H796   H     0.29905   0.76098   0.06218   0.00000  Uiso   1.00
H797   H     0.28979   0.72214   0.01557   0.00000  Uiso   1.00
H798   H     0.28789   0.70135   0.07272   0.00000  Uiso   1.00
C799   C     0.04568   0.75733   0.19537   0.00000  Uiso   1.00
C800   C     0.06573   0.77559   0.15241   0.00000  Uiso   1.00
H801   H     0.04133   0.78199   0.12659   0.00000  Uiso   1.00
H802   H     0.08253   0.80804   0.15914   0.00000  Uiso   1.00
H803   H     0.08786   0.75026   0.13871   0.00000  Uiso   1.00
H804   H     0.06825   0.74002   0.21737   0.00000  Uiso   1.00
H805   H     0.02669   0.72772   0.18491   0.00000  Uiso   1.00
C806   C     0.29609   0.92155   0.22226   0.00000  Uiso   1.00
C807   C     0.27991   0.91882   0.17358   0.00000  Uiso   1.00
H808   H     0.30433   0.90484   0.15106   0.00000  Uiso   1.00
H809   H     0.25168   0.89686   0.17093   0.00000  Uiso   1.00
H810   H     0.27178   0.95336   0.16162   0.00000  Uiso   1.00
H811   H     0.27210   0.93538   0.24527   0.00000  Uiso   1.00
H812   H     0.32164   0.94734   0.22191   0.00000  Uiso   1.00
C813   C     0.28684   0.75509   0.19616   0.00000  Uiso   1.00
C814   C     0.28403   0.71396   0.22766   0.00000  Uiso   1.00
H815   H     0.31528   0.70115   0.23674   0.00000  Uiso   1.00
H816   H     0.26772   0.72289   0.25941   0.00000  Uiso   1.00
H817   H     0.26631   0.68612   0.21062   0.00000  Uiso   1.00
H818   H     0.25517   0.76501   0.18610   0.00000  Uiso   1.00
H819   H     0.30033   0.74543   0.16308   0.00000  Uiso   1.00
C820   C     0.03581   0.91119   0.28502   0.00000  Uiso   1.00
C821   C     0.05047   0.89491   0.33135   0.00000  Uiso   1.00
H822   H     0.02804   0.86974   0.34548   0.00000  Uiso   1.00
H823   H     0.08173   0.87970   0.32950   0.00000  Uiso   1.00
H824   H     0.05285   0.92444   0.35493   0.00000  Uiso   1.00
H825   H     0.06047   0.93145   0.26799   0.00000  Uiso   1.00
H826   H     0.01070   0.93582   0.29245   0.00000  Uiso   1.00
C827   C     0.41956   0.83300   0.24897   0.00000  Uiso   1.00
C828   C     0.57960   0.83360   0.24366   0.00000  Uiso   1.00
C829   C     0.49861   0.83327   0.16317   0.00000  Uiso   1.00
C830   C     0.49740   0.83351   0.33649   0.00000  Uiso   1.00
C831   C     0.49107   0.69073   0.28843   0.00000  Uiso   1.00
C832   C     0.50939   0.97585   0.21165   0.00000  Uiso   1.00
C833   C     0.50905   0.69053   0.21159   0.00000  Uiso   1.00
C834   C     0.49062   0.97607   0.28833   0.00000  Uiso   1.00
C835   C     0.35469   0.79498   0.21988   0.00000  Uiso   1.00
C836   C     0.64565   0.87557   0.23835   0.00000  Uiso   1.00
C837   C     0.64420   0.79485   0.21777   0.00000  Uiso   1.00
C838   C     0.35255   0.87234   0.25465   0.00000  Uiso   1.00
C839   C     0.45762   0.87181   0.05076   0.00000  Uiso   1.00
C840   C     0.45226   0.79969   0.44846   0.00000  Uiso   1.00
C841   C     0.48428   0.87461   0.45549   0.00000  Uiso   1.00
C842   C     0.48011   0.79380   0.04353   0.00000  Uiso   1.00
C843   C     0.46846   0.87202   0.09630   0.00000  Uiso   1.00
C844   C     0.46215   0.79830   0.40289   0.00000  Uiso   1.00
C845   C     0.49538   0.87356   0.41032   0.00000  Uiso   1.00
C846   C     0.49372   0.79396   0.08802   0.00000  Uiso   1.00
C847   C     0.48835   0.83347   0.11492   0.00000  Uiso   1.00
C848   C     0.48590   0.83447   0.38405   0.00000  Uiso   1.00
C849   C     0.46454   0.83334   0.02412   0.00000  Uiso   1.00
C850   C     0.46447   0.83698   0.47511   0.00000  Uiso   1.00
C851   C     0.62338   0.83458   0.23219   0.00000  Uiso   1.00
C852   C     0.37493   0.83249   0.24283   0.00000  Uiso   1.00
H853   H     0.48442   0.70878   0.31928   0.00000  Uiso   1.00
H854   H     0.51723   0.95764   0.18106   0.00000  Uiso   1.00
H855   H     0.51639   0.70855   0.18101   0.00000  Uiso   1.00
H856   H     0.48288   0.95801   0.31891   0.00000  Uiso   1.00
H857   H     0.44527   0.90247   0.03584   0.00000  Uiso   1.00
H858   H     0.43646   0.77069   0.46343   0.00000  Uiso   1.00
H859   H     0.49370   0.90389   0.47570   0.00000  Uiso   1.00
H860   H     0.48507   0.76354   0.02321   0.00000  Uiso   1.00
N861   N     0.50000   0.95240   0.25000   0.00000  Uiso   1.00
N862   N     0.50000   0.71427   0.25000   0.00000  Uiso   1.00
O863   O     0.43892   0.87154   0.25000   0.00000  Uiso   1.00
O864   O     0.56108   0.79513   0.25001   0.00000  Uiso   1.00
O865   O     0.56108   0.87154   0.25001   0.00000  Uiso   1.00
O866   O     0.43892   0.79513   0.25000   0.00000  Uiso   1.00
O867   O     0.50000   0.87155   0.18453   0.00000  Uiso   1.00
O868   O     0.50000   0.79511   0.31547   0.00000  Uiso   1.00
O869   O     0.50000   0.87155   0.31547   0.00000  Uiso   1.00
O870   O     0.50000   0.79511   0.18453   0.00000  Uiso   1.00
Zn871  Zn    0.50000   0.88437   0.25000   0.00000  Uiso   1.00
Zn872  Zn    0.50000   0.78229   0.25000   0.00000  Uiso   1.00
O873   O     0.46325   0.91154   0.12146   0.00000  Uiso   1.00
C874   C     0.42046   0.92101   0.12765   0.00000  Uiso   1.00
H875   H     0.41295   0.91627   0.16396   0.00000  Uiso   1.00
H876   H     0.39869   0.89839   0.10800   0.00000  Uiso   1.00
C877   C     0.41269   0.97065   0.11500   0.00000  Uiso   1.00
H878   H     0.43219   0.99347   0.13674   0.00000  Uiso   1.00
H879   H     0.42183   0.97612   0.07925   0.00000  Uiso   1.00
C880   C     0.36701   0.98312   0.12065   0.00000  Uiso   1.00
H881   H     0.34689   0.96074   0.09921   0.00000  Uiso   1.00
H882   H     0.36240   0.68564   0.11019   0.00000  Uiso   1.00
H883   H     0.35766   0.97964   0.15652   0.00000  Uiso   1.00
O884   O     0.45147   0.75949   0.37846   0.00000  Uiso   1.00
C885   C     0.41434   0.76658   0.35363   0.00000  Uiso   1.00
H886   H     0.41616   0.74581   0.32224   0.00000  Uiso   1.00
H887   H     0.41042   0.80244   0.34273   0.00000  Uiso   1.00
C888   C     0.37608   0.75064   0.38018   0.00000  Uiso   1.00
H889   H     0.38074   0.71511   0.39182   0.00000  Uiso   1.00
H890   H     0.37188   0.77294   0.41024   0.00000  Uiso   1.00
C891   C     0.33678   0.75225   0.35101   0.00000  Uiso   1.00
H892   H     0.66470   0.78749   0.33902   0.00000  Uiso   1.00
H893   H     0.64280   0.74104   0.37117   0.00000  Uiso   1.00
H894   H     0.33972   0.72915   0.32134   0.00000  Uiso   1.00
O895   O     0.51344   0.91194   0.39144   0.00000  Uiso   1.00
C896   C     0.55679   0.91151   0.39926   0.00000  Uiso   1.00
H897   H     0.57052   0.87832   0.38875   0.00000  Uiso   1.00
H898   H     0.56346   0.91780   0.43572   0.00000  Uiso   1.00
C899   C     0.57709   0.94938   0.37141   0.00000  Uiso   1.00
H900   H     0.57182   0.94227   0.33488   0.00000  Uiso   1.00
H901   H     0.56255   0.98255   0.37989   0.00000  Uiso   1.00
C902   C     0.62380   0.95284   0.38043   0.00000  Uiso   1.00
H903   H     0.62979   0.96233   0.41626   0.00000  Uiso   1.00
H904   H     0.63784   0.97936   0.35844   0.00000  Uiso   1.00
H905   H     0.63869   0.91973   0.37298   0.00000  Uiso   1.00
O906   O     0.51004   0.75419   0.10507   0.00000  Uiso   1.00
C907   C     0.55389   0.75444   0.10009   0.00000  Uiso   1.00
H908   H     0.56593   0.72815   0.12328   0.00000  Uiso   1.00
H909   H     0.56837   0.78773   0.11024   0.00000  Uiso   1.00
C910   C     0.56744   0.74090   0.05221   0.00000  Uiso   1.00
H911   H     0.54967   0.71010   0.04096   0.00000  Uiso   1.00
H912   H     0.56111   0.76914   0.02846   0.00000  Uiso   1.00
C913   C     0.61396   0.73075   0.05071   0.00000  Uiso   1.00
H914   H     0.63238   0.76098   0.06218   0.00000  Uiso   1.00
H915   H     0.62312   0.72214   0.01557   0.00000  Uiso   1.00
H916   H     0.62122   0.70135   0.07272   0.00000  Uiso   1.00
C917   C     0.37901   0.75733   0.19537   0.00000  Uiso   1.00
C918   C     0.39906   0.77559   0.15241   0.00000  Uiso   1.00
H919   H     0.37467   0.78199   0.12659   0.00000  Uiso   1.00
H920   H     0.41587   0.80804   0.15914   0.00000  Uiso   1.00
H921   H     0.42120   0.75026   0.13871   0.00000  Uiso   1.00
H922   H     0.40159   0.74002   0.21737   0.00000  Uiso   1.00
H923   H     0.36002   0.72772   0.18491   0.00000  Uiso   1.00
C924   C     0.62943   0.92155   0.22226   0.00000  Uiso   1.00
C925   C     0.61325   0.91882   0.17358   0.00000  Uiso   1.00
H926   H     0.63766   0.90484   0.15106   0.00000  Uiso   1.00
H927   H     0.58501   0.89686   0.17093   0.00000  Uiso   1.00
H928   H     0.60511   0.95336   0.16162   0.00000  Uiso   1.00
H929   H     0.60543   0.93538   0.24527   0.00000  Uiso   1.00
H930   H     0.65498   0.94734   0.22191   0.00000  Uiso   1.00
C931   C     0.62017   0.75509   0.19616   0.00000  Uiso   1.00
C932   C     0.61736   0.71396   0.22766   0.00000  Uiso   1.00
H933   H     0.64861   0.70115   0.23674   0.00000  Uiso   1.00
H934   H     0.60105   0.72289   0.25941   0.00000  Uiso   1.00
H935   H     0.59964   0.68612   0.21062   0.00000  Uiso   1.00
H936   H     0.58850   0.76501   0.18610   0.00000  Uiso   1.00
H937   H     0.63366   0.74543   0.16308   0.00000  Uiso   1.00
C938   C     0.36914   0.91119   0.28502   0.00000  Uiso   1.00
C939   C     0.38380   0.89491   0.33135   0.00000  Uiso   1.00
H940   H     0.36137   0.86974   0.34548   0.00000  Uiso   1.00
H941   H     0.41506   0.87970   0.32950   0.00000  Uiso   1.00
H942   H     0.38619   0.92444   0.35493   0.00000  Uiso   1.00
H943   H     0.39380   0.93145   0.26799   0.00000  Uiso   1.00
H944   H     0.34403   0.93582   0.29245   0.00000  Uiso   1.00
C945   C     0.75289   0.83300   0.24897   0.00000  Uiso   1.00
C946   C     0.91294   0.83360   0.24366   0.00000  Uiso   1.00
C947   C     0.83195   0.83327   0.16317   0.00000  Uiso   1.00
C948   C     0.83073   0.83351   0.33649   0.00000  Uiso   1.00
C949   C     0.82440   0.69073   0.28843   0.00000  Uiso   1.00
C950   C     0.84273   0.97585   0.21165   0.00000  Uiso   1.00
C951   C     0.84238   0.69053   0.21159   0.00000  Uiso   1.00
C952   C     0.82395   0.97607   0.28833   0.00000  Uiso   1.00
C953   C     0.68802   0.79498   0.21988   0.00000  Uiso   1.00
C954   C     0.97898   0.87557   0.23835   0.00000  Uiso   1.00
C955   C     0.97754   0.79485   0.21777   0.00000  Uiso   1.00
C956   C     0.68589   0.87234   0.25465   0.00000  Uiso   1.00
C957   C     0.79095   0.87181   0.05076   0.00000  Uiso   1.00
C958   C     0.78560   0.79969   0.44846   0.00000  Uiso   1.00
C959   C     0.81762   0.87461   0.45549   0.00000  Uiso   1.00
C960   C     0.81344   0.79380   0.04353   0.00000  Uiso   1.00
C961   C     0.80179   0.87202   0.09630   0.00000  Uiso   1.00
C962   C     0.79549   0.79830   0.40289   0.00000  Uiso   1.00
C963   C     0.82872   0.87356   0.41032   0.00000  Uiso   1.00
C964   C     0.82706   0.79396   0.08802   0.00000  Uiso   1.00
C965   C     0.82169   0.83347   0.11492   0.00000  Uiso   1.00
C966   C     0.81923   0.83447   0.38405   0.00000  Uiso   1.00
C967   C     0.79787   0.83334   0.02412   0.00000  Uiso   1.00
C968   C     0.79780   0.83698   0.47511   0.00000  Uiso   1.00
C969   C     0.95671   0.83458   0.23219   0.00000  Uiso   1.00
C970   C     0.70826   0.83249   0.24283   0.00000  Uiso   1.00
H971   H     0.81775   0.70878   0.31928   0.00000  Uiso   1.00
H972   H     0.85057   0.95764   0.18106   0.00000  Uiso   1.00
H973   H     0.84973   0.70855   0.18101   0.00000  Uiso   1.00
H974   H     0.81622   0.95801   0.31891   0.00000  Uiso   1.00
H975   H     0.77860   0.90247   0.03584   0.00000  Uiso   1.00
H976   H     0.76979   0.77069   0.46343   0.00000  Uiso   1.00
H977   H     0.82703   0.90389   0.47570   0.00000  Uiso   1.00
H978   H     0.81841   0.76354   0.02321   0.00000  Uiso   1.00
N979   N     0.83333   0.95240   0.25000   0.00000  Uiso   1.00
N980   N     0.83333   0.71427   0.25000   0.00000  Uiso   1.00
O981   O     0.77226   0.87154   0.25000   0.00000  Uiso   1.00
O982   O     0.89441   0.79513   0.25001   0.00000  Uiso   1.00
O983   O     0.89441   0.87154   0.25001   0.00000  Uiso   1.00
O984   O     0.77226   0.79513   0.25000   0.00000  Uiso   1.00
O985   O     0.83333   0.87155   0.18453   0.00000  Uiso   1.00
O986   O     0.83334   0.79511   0.31547   0.00000  Uiso   1.00
O987   O     0.83334   0.87155   0.31547   0.00000  Uiso   1.00
O988   O     0.83333   0.79511   0.18453   0.00000  Uiso   1.00
Zn989  Zn    0.83333   0.88437   0.25000   0.00000  Uiso   1.00
Zn990  Zn    0.83333   0.78229   0.25000   0.00000  Uiso   1.00
O991   O     0.79659   0.91154   0.12146   0.00000  Uiso   1.00
C992   C     0.75379   0.92101   0.12765   0.00000  Uiso   1.00
H993   H     0.74629   0.91627   0.16396   0.00000  Uiso   1.00
H994   H     0.73202   0.89839   0.10800   0.00000  Uiso   1.00
C995   C     0.74603   0.97065   0.11500   0.00000  Uiso   1.00
H996   H     0.76552   0.99347   0.13674   0.00000  Uiso   1.00
H997   H     0.75516   0.97612   0.07925   0.00000  Uiso   1.00
C998   C     0.70034   0.98312   0.12065   0.00000  Uiso   1.00
H999   H     0.68022   0.96074   0.09921   0.00000  Uiso   1.00
H1000  H     0.69574   0.68564   0.11019   0.00000  Uiso   1.00
H1001  H     0.69100   0.97964   0.15652   0.00000  Uiso   1.00
O1002  O     0.78480   0.75949   0.37846   0.00000  Uiso   1.00
C1003  C     0.74767   0.76658   0.35363   0.00000  Uiso   1.00
H1004  H     0.74949   0.74581   0.32224   0.00000  Uiso   1.00
H1005  H     0.74375   0.80244   0.34273   0.00000  Uiso   1.00
C1006  C     0.70942   0.75064   0.38018   0.00000  Uiso   1.00
H1007  H     0.71407   0.71511   0.39182   0.00000  Uiso   1.00
H1008  H     0.70521   0.77294   0.41024   0.00000  Uiso   1.00
C1009  C     0.67011   0.75225   0.35101   0.00000  Uiso   1.00
H1010  H     0.99804   0.78749   0.33902   0.00000  Uiso   1.00
H1011  H     0.97613   0.74104   0.37117   0.00000  Uiso   1.00
H1012  H     0.67305   0.72915   0.32134   0.00000  Uiso   1.00
O1013  O     0.84677   0.91194   0.39144   0.00000  Uiso   1.00
C1014  C     0.89012   0.91151   0.39926   0.00000  Uiso   1.00
H1015  H     0.90386   0.87832   0.38875   0.00000  Uiso   1.00
H1016  H     0.89679   0.91780   0.43572   0.00000  Uiso   1.00
C1017  C     0.91042   0.94938   0.37141   0.00000  Uiso   1.00
H1018  H     0.90515   0.94227   0.33488   0.00000  Uiso   1.00
H1019  H     0.89588   0.98255   0.37989   0.00000  Uiso   1.00
C1020  C     0.95713   0.95284   0.38043   0.00000  Uiso   1.00
H1021  H     0.96313   0.96233   0.41626   0.00000  Uiso   1.00
H1022  H     0.97118   0.97936   0.35844   0.00000  Uiso   1.00
H1023  H     0.97202   0.91973   0.37298   0.00000  Uiso   1.00
O1024  O     0.84338   0.75419   0.10507   0.00000  Uiso   1.00
C1025  C     0.88722   0.75444   0.10009   0.00000  Uiso   1.00
H1026  H     0.89927   0.72815   0.12328   0.00000  Uiso   1.00
H1027  H     0.90170   0.78773   0.11024   0.00000  Uiso   1.00
C1028  C     0.90077   0.74090   0.05221   0.00000  Uiso   1.00
H1029  H     0.88301   0.71010   0.04096   0.00000  Uiso   1.00
H1030  H     0.89444   0.76914   0.02846   0.00000  Uiso   1.00
C1031  C     0.94729   0.73075   0.05071   0.00000  Uiso   1.00
H1032  H     0.96571   0.76098   0.06218   0.00000  Uiso   1.00
H1033  H     0.95645   0.72214   0.01557   0.00000  Uiso   1.00
H1034  H     0.95456   0.70135   0.07272   0.00000  Uiso   1.00
C1035  C     0.71234   0.75733   0.19537   0.00000  Uiso   1.00
C1036  C     0.73239   0.77559   0.15241   0.00000  Uiso   1.00
H1037  H     0.70800   0.78199   0.12659   0.00000  Uiso   1.00
H1038  H     0.74920   0.80804   0.15914   0.00000  Uiso   1.00
H1039  H     0.75453   0.75026   0.13871   0.00000  Uiso   1.00
H1040  H     0.73492   0.74002   0.21737   0.00000  Uiso   1.00
H1041  H     0.69335   0.72772   0.18491   0.00000  Uiso   1.00
C1042  C     0.96276   0.92155   0.22226   0.00000  Uiso   1.00
C1043  C     0.94658   0.91882   0.17358   0.00000  Uiso   1.00
H1044  H     0.97099   0.90484   0.15106   0.00000  Uiso   1.00
H1045  H     0.91834   0.89686   0.17093   0.00000  Uiso   1.00
H1046  H     0.93844   0.95336   0.16162   0.00000  Uiso   1.00
H1047  H     0.93877   0.93538   0.24527   0.00000  Uiso   1.00
H1048  H     0.98831   0.94734   0.22191   0.00000  Uiso   1.00
C1049  C     0.95351   0.75509   0.19616   0.00000  Uiso   1.00
C1050  C     0.95070   0.71396   0.22766   0.00000  Uiso   1.00
H1051  H     0.98194   0.70115   0.23674   0.00000  Uiso   1.00
H1052  H     0.93438   0.72289   0.25941   0.00000  Uiso   1.00
H1053  H     0.93298   0.68612   0.21062   0.00000  Uiso   1.00
H1054  H     0.92183   0.76501   0.18610   0.00000  Uiso   1.00
H1055  H     0.96699   0.74543   0.16308   0.00000  Uiso   1.00
C1056  C     0.70248   0.91119   0.28502   0.00000  Uiso   1.00
C1057  C     0.71713   0.89491   0.33135   0.00000  Uiso   1.00
H1058  H     0.69470   0.86974   0.34548   0.00000  Uiso   1.00
H1059  H     0.74840   0.87970   0.32950   0.00000  Uiso   1.00
H1060  H     0.71952   0.92444   0.35493   0.00000  Uiso   1.00
H1061  H     0.72713   0.93145   0.26799   0.00000  Uiso   1.00
H1062  H     0.67737   0.93582   0.29245   0.00000  Uiso   1.00
C1063  C     0.08622   0.16633   0.74897   0.00000  Uiso   1.00
C1064  C     0.24627   0.16693   0.74366   0.00000  Uiso   1.00
C1065  C     0.16528   0.16661   0.66317   0.00000  Uiso   1.00
C1066  C     0.16407   0.16684   0.83649   0.00000  Uiso   1.00
C1067  C     0.15773   0.02406   0.78843   0.00000  Uiso   1.00
C1068  C     0.17606   0.30919   0.71165   0.00000  Uiso   1.00
C1069  C     0.17572   0.02386   0.71159   0.00000  Uiso   1.00
C1070  C     0.15728   0.30940   0.78833   0.00000  Uiso   1.00
C1071  C     0.02135   0.12832   0.71988   0.00000  Uiso   1.00
C1072  C     0.31231   0.20890   0.73835   0.00000  Uiso   1.00
C1073  C     0.31087   0.12819   0.71777   0.00000  Uiso   1.00
C1074  C     0.01922   0.20567   0.75465   0.00000  Uiso   1.00
C1075  C     0.12429   0.20514   0.55076   0.00000  Uiso   1.00
C1076  C     0.11893   0.13302   0.94846   0.00000  Uiso   1.00
C1077  C     0.15095   0.20794   0.95549   0.00000  Uiso   1.00
C1078  C     0.14677   0.12713   0.54353   0.00000  Uiso   1.00
C1079  C     0.13513   0.20535   0.59630   0.00000  Uiso   1.00
C1080  C     0.12882   0.13164   0.90289   0.00000  Uiso   1.00
C1081  C     0.16205   0.20689   0.91032   0.00000  Uiso   1.00
C1082  C     0.16039   0.12729   0.58802   0.00000  Uiso   1.00
C1083  C     0.15502   0.16680   0.61492   0.00000  Uiso   1.00
C1084  C     0.15256   0.16780   0.88405   0.00000  Uiso   1.00
C1085  C     0.13120   0.16667   0.52412   0.00000  Uiso   1.00
C1086  C     0.13114   0.17031   0.97511   0.00000  Uiso   1.00
C1087  C     0.29004   0.16791   0.73219   0.00000  Uiso   1.00
C1088  C     0.04160   0.16583   0.74283   0.00000  Uiso   1.00
H1089  H     0.15108   0.04212   0.81928   0.00000  Uiso   1.00
H1090  H     0.18390   0.29098   0.68106   0.00000  Uiso   1.00
H1091  H     0.18306   0.04188   0.68101   0.00000  Uiso   1.00
H1092  H     0.14955   0.29134   0.81891   0.00000  Uiso   1.00
H1093  H     0.11193   0.23581   0.53584   0.00000  Uiso   1.00
H1094  H     0.10313   0.10402   0.96343   0.00000  Uiso   1.00
H1095  H     0.16037   0.23722   0.97570   0.00000  Uiso   1.00
H1096  H     0.15174   0.09687   0.52321   0.00000  Uiso   1.00
N1097  N     0.16667   0.28573   0.75000   0.00000  Uiso   1.00
N1098  N     0.16667   0.04760   0.75000   0.00000  Uiso   1.00
O1099  O     0.10559   0.20487   0.75000   0.00000  Uiso   1.00
O1100  O     0.22774   0.12846   0.75001   0.00000  Uiso   1.00
O1101  O     0.22774   0.20487   0.75001   0.00000  Uiso   1.00
O1102  O     0.10559   0.12846   0.75000   0.00000  Uiso   1.00
O1103  O     0.16666   0.20489   0.68453   0.00000  Uiso   1.00
O1104  O     0.16667   0.12845   0.81547   0.00000  Uiso   1.00
O1105  O     0.16667   0.20489   0.81547   0.00000  Uiso   1.00
O1106  O     0.16666   0.12845   0.68453   0.00000  Uiso   1.00
Zn1107 Zn    0.16667   0.21771   0.75000   0.00000  Uiso   1.00
Zn1108 Zn    0.16667   0.11563   0.75000   0.00000  Uiso   1.00
O1109  O     0.12992   0.24488   0.62146   0.00000  Uiso   1.00
C1110  C     0.08712   0.25435   0.62765   0.00000  Uiso   1.00
H1111  H     0.07962   0.24961   0.66396   0.00000  Uiso   1.00
H1112  H     0.06535   0.23172   0.60800   0.00000  Uiso   1.00
C1113  C     0.07936   0.30399   0.61500   0.00000  Uiso   1.00
H1114  H     0.09886   0.32680   0.63674   0.00000  Uiso   1.00
H1115  H     0.08849   0.30945   0.57925   0.00000  Uiso   1.00
C1116  C     0.03368   0.31645   0.62065   0.00000  Uiso   1.00
H1117  H     0.01355   0.29408   0.59921   0.00000  Uiso   1.00
H1118  H     0.02907   0.01897   0.61019   0.00000  Uiso   1.00
H1119  H     0.02433   0.31298   0.65652   0.00000  Uiso   1.00
O1120  O     0.11813   0.09282   0.87846   0.00000  Uiso   1.00
C1121  C     0.08101   0.09992   0.85363   0.00000  Uiso   1.00
H1122  H     0.08283   0.07914   0.82224   0.00000  Uiso   1.00
H1123  H     0.07709   0.13577   0.84273   0.00000  Uiso   1.00
C1124  C     0.04275   0.08397   0.88018   0.00000  Uiso   1.00
H1125  H     0.04740   0.04845   0.89182   0.00000  Uiso   1.00
H1126  H     0.03854   0.10627   0.91024   0.00000  Uiso   1.00
C1127  C     0.00345   0.08558   0.85101   0.00000  Uiso   1.00
H1128  H     0.33137   0.12082   0.83902   0.00000  Uiso   1.00
H1129  H     0.30946   0.07437   0.87117   0.00000  Uiso   1.00
H1130  H     0.00639   0.06248   0.82134   0.00000  Uiso   1.00
O1131  O     0.18011   0.24528   0.89144   0.00000  Uiso   1.00
C1132  C     0.22346   0.24484   0.89926   0.00000  Uiso   1.00
H1133  H     0.23719   0.21166   0.88875   0.00000  Uiso   1.00
H1134  H     0.23013   0.25114   0.93572   0.00000  Uiso   1.00
C1135  C     0.24376   0.28272   0.87141   0.00000  Uiso   1.00
H1136  H     0.23848   0.27560   0.83488   0.00000  Uiso   1.00
H1137  H     0.22922   0.31589   0.87989   0.00000  Uiso   1.00
C1138  C     0.29046   0.28618   0.88043   0.00000  Uiso   1.00
H1139  H     0.29646   0.29566   0.91626   0.00000  Uiso   1.00
H1140  H     0.30451   0.31269   0.85844   0.00000  Uiso   1.00
H1141  H     0.30535   0.25306   0.87298   0.00000  Uiso   1.00
O1142  O     0.17671   0.08752   0.60507   0.00000  Uiso   1.00
C1143  C     0.22055   0.08778   0.60009   0.00000  Uiso   1.00
H1144  H     0.23260   0.06149   0.62328   0.00000  Uiso   1.00
H1145  H     0.23503   0.12106   0.61024   0.00000  Uiso   1.00
C1146  C     0.23410   0.07423   0.55221   0.00000  Uiso   1.00
H1147  H     0.21634   0.04343   0.54096   0.00000  Uiso   1.00
H1148  H     0.22777   0.10247   0.52846   0.00000  Uiso   1.00
C1149  C     0.28063   0.06408   0.55071   0.00000  Uiso   1.00
H1150  H     0.29905   0.09432   0.56218   0.00000  Uiso   1.00
H1151  H     0.28979   0.05548   0.51557   0.00000  Uiso   1.00
H1152  H     0.28789   0.03469   0.57272   0.00000  Uiso   1.00
C1153  C     0.04568   0.09066   0.69537   0.00000  Uiso   1.00
C1154  C     0.06573   0.10892   0.65241   0.00000  Uiso   1.00
H1155  H     0.04133   0.11532   0.62659   0.00000  Uiso   1.00
H1156  H     0.08253   0.14137   0.65914   0.00000  Uiso   1.00
H1157  H     0.08786   0.08359   0.63871   0.00000  Uiso   1.00
H1158  H     0.06825   0.07335   0.71737   0.00000  Uiso   1.00
H1159  H     0.02669   0.06105   0.68491   0.00000  Uiso   1.00
C1160  C     0.29609   0.25488   0.72226   0.00000  Uiso   1.00
C1161  C     0.27991   0.25215   0.67358   0.00000  Uiso   1.00
H1162  H     0.30433   0.23818   0.65106   0.00000  Uiso   1.00
H1163  H     0.25168   0.23019   0.67093   0.00000  Uiso   1.00
H1164  H     0.27178   0.28670   0.66162   0.00000  Uiso   1.00
H1165  H     0.27210   0.26871   0.74527   0.00000  Uiso   1.00
H1166  H     0.32164   0.28068   0.72191   0.00000  Uiso   1.00
C1167  C     0.28684   0.08842   0.69616   0.00000  Uiso   1.00
C1168  C     0.28403   0.04729   0.72766   0.00000  Uiso   1.00
H1169  H     0.31528   0.03449   0.73674   0.00000  Uiso   1.00
H1170  H     0.26772   0.05623   0.75941   0.00000  Uiso   1.00
H1171  H     0.26631   0.01946   0.71062   0.00000  Uiso   1.00
H1172  H     0.25517   0.09835   0.68610   0.00000  Uiso   1.00
H1173  H     0.30033   0.07877   0.66308   0.00000  Uiso   1.00
C1174  C     0.03581   0.24452   0.78502   0.00000  Uiso   1.00
C1175  C     0.05047   0.22824   0.83135   0.00000  Uiso   1.00
H1176  H     0.02804   0.20307   0.84548   0.00000  Uiso   1.00
H1177  H     0.08173   0.21304   0.82950   0.00000  Uiso   1.00
H1178  H     0.05285   0.25777   0.85493   0.00000  Uiso   1.00
H1179  H     0.06047   0.26479   0.76799   0.00000  Uiso   1.00
H1180  H     0.01070   0.26916   0.79245   0.00000  Uiso   1.00
C1181  C     0.41956   0.16633   0.74897   0.00000  Uiso   1.00
C1182  C     0.57960   0.16693   0.74366   0.00000  Uiso   1.00
C1183  C     0.49861   0.16661   0.66317   0.00000  Uiso   1.00
C1184  C     0.49740   0.16684   0.83649   0.00000  Uiso   1.00
C1185  C     0.49107   0.02406   0.78843   0.00000  Uiso   1.00
C1186  C     0.50939   0.30919   0.71165   0.00000  Uiso   1.00
C1187  C     0.50905   0.02386   0.71159   0.00000  Uiso   1.00
C1188  C     0.49062   0.30940   0.78833   0.00000  Uiso   1.00
C1189  C     0.35469   0.12832   0.71988   0.00000  Uiso   1.00
C1190  C     0.64565   0.20890   0.73835   0.00000  Uiso   1.00
C1191  C     0.64420   0.12819   0.71777   0.00000  Uiso   1.00
C1192  C     0.35255   0.20567   0.75465   0.00000  Uiso   1.00
C1193  C     0.45762   0.20514   0.55076   0.00000  Uiso   1.00
C1194  C     0.45226   0.13302   0.94846   0.00000  Uiso   1.00
C1195  C     0.48428   0.20794   0.95549   0.00000  Uiso   1.00
C1196  C     0.48011   0.12713   0.54353   0.00000  Uiso   1.00
C1197  C     0.46846   0.20535   0.59630   0.00000  Uiso   1.00
C1198  C     0.46215   0.13164   0.90289   0.00000  Uiso   1.00
C1199  C     0.49538   0.20689   0.91032   0.00000  Uiso   1.00
C1200  C     0.49372   0.12729   0.58802   0.00000  Uiso   1.00
C1201  C     0.48835   0.16680   0.61492   0.00000  Uiso   1.00
C1202  C     0.48590   0.16780   0.88405   0.00000  Uiso   1.00
C1203  C     0.46454   0.16667   0.52412   0.00000  Uiso   1.00
C1204  C     0.46447   0.17031   0.97511   0.00000  Uiso   1.00
C1205  C     0.62338   0.16791   0.73219   0.00000  Uiso   1.00
C1206  C     0.37493   0.16583   0.74283   0.00000  Uiso   1.00
H1207  H     0.48442   0.04212   0.81928   0.00000  Uiso   1.00
H1208  H     0.51723   0.29098   0.68106   0.00000  Uiso   1.00
H1209  H     0.51639   0.04188   0.68101   0.00000  Uiso   1.00
H1210  H     0.48288   0.29134   0.81891   0.00000  Uiso   1.00
H1211  H     0.44527   0.23581   0.53584   0.00000  Uiso   1.00
H1212  H     0.43646   0.10402   0.96343   0.00000  Uiso   1.00
H1213  H     0.49370   0.23722   0.97570   0.00000  Uiso   1.00
H1214  H     0.48507   0.09687   0.52321   0.00000  Uiso   1.00
N1215  N     0.50000   0.28573   0.75000   0.00000  Uiso   1.00
N1216  N     0.50000   0.04760   0.75000   0.00000  Uiso   1.00
O1217  O     0.43892   0.20487   0.75000   0.00000  Uiso   1.00
O1218  O     0.56108   0.12846   0.75001   0.00000  Uiso   1.00
O1219  O     0.56108   0.20487   0.75001   0.00000  Uiso   1.00
O1220  O     0.43892   0.12846   0.75000   0.00000  Uiso   1.00
O1221  O     0.50000   0.20489   0.68453   0.00000  Uiso   1.00
O1222  O     0.50000   0.12845   0.81547   0.00000  Uiso   1.00
O1223  O     0.50000   0.20489   0.81547   0.00000  Uiso   1.00
O1224  O     0.50000   0.12845   0.68453   0.00000  Uiso   1.00
Zn1225 Zn    0.50000   0.21771   0.75000   0.00000  Uiso   1.00
Zn1226 Zn    0.50000   0.11563   0.75000   0.00000  Uiso   1.00
O1227  O     0.46325   0.24488   0.62146   0.00000  Uiso   1.00
C1228  C     0.42046   0.25435   0.62765   0.00000  Uiso   1.00
H1229  H     0.41295   0.24961   0.66396   0.00000  Uiso   1.00
H1230  H     0.39869   0.23172   0.60800   0.00000  Uiso   1.00
C1231  C     0.41269   0.30399   0.61500   0.00000  Uiso   1.00
H1232  H     0.43219   0.32680   0.63674   0.00000  Uiso   1.00
H1233  H     0.42183   0.30945   0.57925   0.00000  Uiso   1.00
C1234  C     0.36701   0.31645   0.62065   0.00000  Uiso   1.00
H1235  H     0.34689   0.29408   0.59921   0.00000  Uiso   1.00
H1236  H     0.36240   0.01897   0.61019   0.00000  Uiso   1.00
H1237  H     0.35766   0.31298   0.65652   0.00000  Uiso   1.00
O1238  O     0.45147   0.09282   0.87846   0.00000  Uiso   1.00
C1239  C     0.41434   0.09992   0.85363   0.00000  Uiso   1.00
H1240  H     0.41616   0.07914   0.82224   0.00000  Uiso   1.00
H1241  H     0.41042   0.13577   0.84273   0.00000  Uiso   1.00
C1242  C     0.37608   0.08397   0.88018   0.00000  Uiso   1.00
H1243  H     0.38074   0.04845   0.89182   0.00000  Uiso   1.00
H1244  H     0.37188   0.10627   0.91024   0.00000  Uiso   1.00
C1245  C     0.33678   0.08558   0.85101   0.00000  Uiso   1.00
H1246  H     0.66470   0.12082   0.83902   0.00000  Uiso   1.00
H1247  H     0.64280   0.07437   0.87117   0.00000  Uiso   1.00
H1248  H     0.33972   0.06248   0.82134   0.00000  Uiso   1.00
O1249  O     0.51344   0.24528   0.89144   0.00000  Uiso   1.00
C1250  C     0.55679   0.24484   0.89926   0.00000  Uiso   1.00
H1251  H     0.57052   0.21166   0.88875   0.00000  Uiso   1.00
H1252  H     0.56346   0.25114   0.93572   0.00000  Uiso   1.00
C1253  C     0.57709   0.28272   0.87141   0.00000  Uiso   1.00
H1254  H     0.57182   0.27560   0.83488   0.00000  Uiso   1.00
H1255  H     0.56255   0.31589   0.87989   0.00000  Uiso   1.00
C1256  C     0.62380   0.28618   0.88043   0.00000  Uiso   1.00
H1257  H     0.62979   0.29566   0.91626   0.00000  Uiso   1.00
H1258  H     0.63784   0.31269   0.85844   0.00000  Uiso   1.00
H1259  H     0.63869   0.25306   0.87298   0.00000  Uiso   1.00
O1260  O     0.51004   0.08752   0.60507   0.00000  Uiso   1.00
C1261  C     0.55389   0.08778   0.60009   0.00000  Uiso   1.00
H1262  H     0.56593   0.06149   0.62328   0.00000  Uiso   1.00
H1263  H     0.56837   0.12106   0.61024   0.00000  Uiso   1.00
C1264  C     0.56744   0.07423   0.55221   0.00000  Uiso   1.00
H1265  H     0.54967   0.04343   0.54096   0.00000  Uiso   1.00
H1266  H     0.56111   0.10247   0.52846   0.00000  Uiso   1.00
C1267  C     0.61396   0.06408   0.55071   0.00000  Uiso   1.00
H1268  H     0.63238   0.09432   0.56218   0.00000  Uiso   1.00
H1269  H     0.62312   0.05548   0.51557   0.00000  Uiso   1.00
H1270  H     0.62122   0.03469   0.57272   0.00000  Uiso   1.00
C1271  C     0.37901   0.09066   0.69537   0.00000  Uiso   1.00
C1272  C     0.39906   0.10892   0.65241   0.00000  Uiso   1.00
H1273  H     0.37467   0.11532   0.62659   0.00000  Uiso   1.00
H1274  H     0.41587   0.14137   0.65914   0.00000  Uiso   1.00
H1275  H     0.42120   0.08359   0.63871   0.00000  Uiso   1.00
H1276  H     0.40159   0.07335   0.71737   0.00000  Uiso   1.00
H1277  H     0.36002   0.06105   0.68491   0.00000  Uiso   1.00
C1278  C     0.62943   0.25488   0.72226   0.00000  Uiso   1.00
C1279  C     0.61325   0.25215   0.67358   0.00000  Uiso   1.00
H1280  H     0.63766   0.23818   0.65106   0.00000  Uiso   1.00
H1281  H     0.58501   0.23019   0.67093   0.00000  Uiso   1.00
H1282  H     0.60511   0.28670   0.66162   0.00000  Uiso   1.00
H1283  H     0.60543   0.26871   0.74527   0.00000  Uiso   1.00
H1284  H     0.65498   0.28068   0.72191   0.00000  Uiso   1.00
C1285  C     0.62017   0.08842   0.69616   0.00000  Uiso   1.00
C1286  C     0.61736   0.04729   0.72766   0.00000  Uiso   1.00
H1287  H     0.64861   0.03449   0.73674   0.00000  Uiso   1.00
H1288  H     0.60105   0.05623   0.75941   0.00000  Uiso   1.00
H1289  H     0.59964   0.01946   0.71062   0.00000  Uiso   1.00
H1290  H     0.58850   0.09835   0.68610   0.00000  Uiso   1.00
H1291  H     0.63366   0.07877   0.66308   0.00000  Uiso   1.00
C1292  C     0.36914   0.24452   0.78502   0.00000  Uiso   1.00
C1293  C     0.38380   0.22824   0.83135   0.00000  Uiso   1.00
H1294  H     0.36137   0.20307   0.84548   0.00000  Uiso   1.00
H1295  H     0.41506   0.21304   0.82950   0.00000  Uiso   1.00
H1296  H     0.38619   0.25777   0.85493   0.00000  Uiso   1.00
H1297  H     0.39380   0.26479   0.76799   0.00000  Uiso   1.00
H1298  H     0.34403   0.26916   0.79245   0.00000  Uiso   1.00
C1299  C     0.75289   0.16633   0.74897   0.00000  Uiso   1.00
C1300  C     0.91294   0.16693   0.74366   0.00000  Uiso   1.00
C1301  C     0.83195   0.16661   0.66317   0.00000  Uiso   1.00
C1302  C     0.83073   0.16684   0.83649   0.00000  Uiso   1.00
C1303  C     0.82440   0.02406   0.78843   0.00000  Uiso   1.00
C1304  C     0.84273   0.30919   0.71165   0.00000  Uiso   1.00
C1305  C     0.84238   0.02386   0.71159   0.00000  Uiso   1.00
C1306  C     0.82395   0.30940   0.78833   0.00000  Uiso   1.00
C1307  C     0.68802   0.12832   0.71988   0.00000  Uiso   1.00
C1308  C     0.97898   0.20890   0.73835   0.00000  Uiso   1.00
C1309  C     0.97754   0.12819   0.71777   0.00000  Uiso   1.00
C1310  C     0.68589   0.20567   0.75465   0.00000  Uiso   1.00
C1311  C     0.79095   0.20514   0.55076   0.00000  Uiso   1.00
C1312  C     0.78560   0.13302   0.94846   0.00000  Uiso   1.00
C1313  C     0.81762   0.20794   0.95549   0.00000  Uiso   1.00
C1314  C     0.81344   0.12713   0.54353   0.00000  Uiso   1.00
C1315  C     0.80179   0.20535   0.59630   0.00000  Uiso   1.00
C1316  C     0.79549   0.13164   0.90289   0.00000  Uiso   1.00
C1317  C     0.82872   0.20689   0.91032   0.00000  Uiso   1.00
C1318  C     0.82706   0.12729   0.58802   0.00000  Uiso   1.00
C1319  C     0.82169   0.16680   0.61492   0.00000  Uiso   1.00
C1320  C     0.81923   0.16780   0.88405   0.00000  Uiso   1.00
C1321  C     0.79787   0.16667   0.52412   0.00000  Uiso   1.00
C1322  C     0.79780   0.17031   0.97511   0.00000  Uiso   1.00
C1323  C     0.95671   0.16791   0.73219   0.00000  Uiso   1.00
C1324  C     0.70826   0.16583   0.74283   0.00000  Uiso   1.00
H1325  H     0.81775   0.04212   0.81928   0.00000  Uiso   1.00
H1326  H     0.85057   0.29098   0.68106   0.00000  Uiso   1.00
H1327  H     0.84973   0.04188   0.68101   0.00000  Uiso   1.00
H1328  H     0.81622   0.29134   0.81891   0.00000  Uiso   1.00
H1329  H     0.77860   0.23581   0.53584   0.00000  Uiso   1.00
H1330  H     0.76979   0.10402   0.96343   0.00000  Uiso   1.00
H1331  H     0.82703   0.23722   0.97570   0.00000  Uiso   1.00
H1332  H     0.81841   0.09687   0.52321   0.00000  Uiso   1.00
N1333  N     0.83333   0.28573   0.75000   0.00000  Uiso   1.00
N1334  N     0.83333   0.04760   0.75000   0.00000  Uiso   1.00
O1335  O     0.77226   0.20487   0.75000   0.00000  Uiso   1.00
O1336  O     0.89441   0.12846   0.75001   0.00000  Uiso   1.00
O1337  O     0.89441   0.20487   0.75001   0.00000  Uiso   1.00
O1338  O     0.77226   0.12846   0.75000   0.00000  Uiso   1.00
O1339  O     0.83333   0.20489   0.68453   0.00000  Uiso   1.00
O1340  O     0.83334   0.12845   0.81547   0.00000  Uiso   1.00
O1341  O     0.83334   0.20489   0.81547   0.00000  Uiso   1.00
O1342  O     0.83333   0.12845   0.68453   0.00000  Uiso   1.00
Zn1343 Zn    0.83333   0.21771   0.75000   0.00000  Uiso   1.00
Zn1344 Zn    0.83333   0.11563   0.75000   0.00000  Uiso   1.00
O1345  O     0.79659   0.24488   0.62146   0.00000  Uiso   1.00
C1346  C     0.75379   0.25435   0.62765   0.00000  Uiso   1.00
H1347  H     0.74629   0.24961   0.66396   0.00000  Uiso   1.00
H1348  H     0.73202   0.23172   0.60800   0.00000  Uiso   1.00
C1349  C     0.74603   0.30399   0.61500   0.00000  Uiso   1.00
H1350  H     0.76552   0.32680   0.63674   0.00000  Uiso   1.00
H1351  H     0.75516   0.30945   0.57925   0.00000  Uiso   1.00
C1352  C     0.70034   0.31645   0.62065   0.00000  Uiso   1.00
H1353  H     0.68022   0.29408   0.59921   0.00000  Uiso   1.00
H1354  H     0.69574   0.01897   0.61019   0.00000  Uiso   1.00
H1355  H     0.69100   0.31298   0.65652   0.00000  Uiso   1.00
O1356  O     0.78480   0.09282   0.87846   0.00000  Uiso   1.00
C1357  C     0.74767   0.09992   0.85363   0.00000  Uiso   1.00
H1358  H     0.74949   0.07914   0.82224   0.00000  Uiso   1.00
H1359  H     0.74375   0.13577   0.84273   0.00000  Uiso   1.00
C1360  C     0.70942   0.08397   0.88018   0.00000  Uiso   1.00
H1361  H     0.71407   0.04845   0.89182   0.00000  Uiso   1.00
H1362  H     0.70521   0.10627   0.91024   0.00000  Uiso   1.00
C1363  C     0.67011   0.08558   0.85101   0.00000  Uiso   1.00
H1364  H     0.99804   0.12082   0.83902   0.00000  Uiso   1.00
H1365  H     0.97613   0.07437   0.87117   0.00000  Uiso   1.00
H1366  H     0.67305   0.06248   0.82134   0.00000  Uiso   1.00
O1367  O     0.84677   0.24528   0.89144   0.00000  Uiso   1.00
C1368  C     0.89012   0.24484   0.89926   0.00000  Uiso   1.00
H1369  H     0.90386   0.21166   0.88875   0.00000  Uiso   1.00
H1370  H     0.89679   0.25114   0.93572   0.00000  Uiso   1.00
C1371  C     0.91042   0.28272   0.87141   0.00000  Uiso   1.00
H1372  H     0.90515   0.27560   0.83488   0.00000  Uiso   1.00
H1373  H     0.89588   0.31589   0.87989   0.00000  Uiso   1.00
C1374  C     0.95713   0.28618   0.88043   0.00000  Uiso   1.00
H1375  H     0.96313   0.29566   0.91626   0.00000  Uiso   1.00
H1376  H     0.97118   0.31269   0.85844   0.00000  Uiso   1.00
H1377  H     0.97202   0.25306   0.87298   0.00000  Uiso   1.00
O1378  O     0.84338   0.08752   0.60507   0.00000  Uiso   1.00
C1379  C     0.88722   0.08778   0.60009   0.00000  Uiso   1.00
H1380  H     0.89927   0.06149   0.62328   0.00000  Uiso   1.00
H1381  H     0.90170   0.12106   0.61024   0.00000  Uiso   1.00
C1382  C     0.90077   0.07423   0.55221   0.00000  Uiso   1.00
H1383  H     0.88301   0.04343   0.54096   0.00000  Uiso   1.00
H1384  H     0.89444   0.10247   0.52846   0.00000  Uiso   1.00
C1385  C     0.94729   0.06408   0.55071   0.00000  Uiso   1.00
H1386  H     0.96571   0.09432   0.56218   0.00000  Uiso   1.00
H1387  H     0.95645   0.05548   0.51557   0.00000  Uiso   1.00
H1388  H     0.95456   0.03469   0.57272   0.00000  Uiso   1.00
C1389  C     0.71234   0.09066   0.69537   0.00000  Uiso   1.00
C1390  C     0.73239   0.10892   0.65241   0.00000  Uiso   1.00
H1391  H     0.70800   0.11532   0.62659   0.00000  Uiso   1.00
H1392  H     0.74920   0.14137   0.65914   0.00000  Uiso   1.00
H1393  H     0.75453   0.08359   0.63871   0.00000  Uiso   1.00
H1394  H     0.73492   0.07335   0.71737   0.00000  Uiso   1.00
H1395  H     0.69335   0.06105   0.68491   0.00000  Uiso   1.00
C1396  C     0.96276   0.25488   0.72226   0.00000  Uiso   1.00
C1397  C     0.94658   0.25215   0.67358   0.00000  Uiso   1.00
H1398  H     0.97099   0.23818   0.65106   0.00000  Uiso   1.00
H1399  H     0.91834   0.23019   0.67093   0.00000  Uiso   1.00
H1400  H     0.93844   0.28670   0.66162   0.00000  Uiso   1.00
H1401  H     0.93877   0.26871   0.74527   0.00000  Uiso   1.00
H1402  H     0.98831   0.28068   0.72191   0.00000  Uiso   1.00
C1403  C     0.95351   0.08842   0.69616   0.00000  Uiso   1.00
C1404  C     0.95070   0.04729   0.72766   0.00000  Uiso   1.00
H1405  H     0.98194   0.03449   0.73674   0.00000  Uiso   1.00
H1406  H     0.93438   0.05623   0.75941   0.00000  Uiso   1.00
H1407  H     0.93298   0.01946   0.71062   0.00000  Uiso   1.00
H1408  H     0.92183   0.09835   0.68610   0.00000  Uiso   1.00
H1409  H     0.96699   0.07877   0.66308   0.00000  Uiso   1.00
C1410  C     0.70248   0.24452   0.78502   0.00000  Uiso   1.00
C1411  C     0.71713   0.22824   0.83135   0.00000  Uiso   1.00
H1412  H     0.69470   0.20307   0.84548   0.00000  Uiso   1.00
H1413  H     0.74840   0.21304   0.82950   0.00000  Uiso   1.00
H1414  H     0.71952   0.25777   0.85493   0.00000  Uiso   1.00
H1415  H     0.72713   0.26479   0.76799   0.00000  Uiso   1.00
H1416  H     0.67737   0.26916   0.79245   0.00000  Uiso   1.00
C1417  C     0.08622   0.49966   0.74897   0.00000  Uiso   1.00
C1418  C     0.24627   0.50027   0.74366   0.00000  Uiso   1.00
C1419  C     0.16528   0.49994   0.66317   0.00000  Uiso   1.00
C1420  C     0.16407   0.50017   0.83649   0.00000  Uiso   1.00
C1421  C     0.15773   0.35739   0.78843   0.00000  Uiso   1.00
C1422  C     0.17606   0.64252   0.71165   0.00000  Uiso   1.00
C1423  C     0.17572   0.35720   0.71159   0.00000  Uiso   1.00
C1424  C     0.15728   0.64273   0.78833   0.00000  Uiso   1.00
C1425  C     0.02135   0.46165   0.71988   0.00000  Uiso   1.00
C1426  C     0.31231   0.54224   0.73835   0.00000  Uiso   1.00
C1427  C     0.31087   0.46152   0.71777   0.00000  Uiso   1.00
C1428  C     0.01922   0.53900   0.75465   0.00000  Uiso   1.00
C1429  C     0.12429   0.53848   0.55076   0.00000  Uiso   1.00
C1430  C     0.11893   0.46636   0.94846   0.00000  Uiso   1.00
C1431  C     0.15095   0.54128   0.95549   0.00000  Uiso   1.00
C1432  C     0.14677   0.46046   0.54353   0.00000  Uiso   1.00
C1433  C     0.13513   0.53868   0.59630   0.00000  Uiso   1.00
C1434  C     0.12882   0.46497   0.90289   0.00000  Uiso   1.00
C1435  C     0.16205   0.54023   0.91032   0.00000  Uiso   1.00
C1436  C     0.16039   0.46063   0.58802   0.00000  Uiso   1.00
C1437  C     0.15502   0.50014   0.61492   0.00000  Uiso   1.00
C1438  C     0.15256   0.50114   0.88405   0.00000  Uiso   1.00
C1439  C     0.13120   0.50000   0.52412   0.00000  Uiso   1.00
C1440  C     0.13114   0.50365   0.97511   0.00000  Uiso   1.00
C1441  C     0.29004   0.50124   0.73219   0.00000  Uiso   1.00
C1442  C     0.04160   0.49916   0.74283   0.00000  Uiso   1.00
H1443  H     0.15108   0.37545   0.81928   0.00000  Uiso   1.00
H1444  H     0.18390   0.62431   0.68106   0.00000  Uiso   1.00
H1445  H     0.18306   0.37522   0.68101   0.00000  Uiso   1.00
H1446  H     0.14955   0.62467   0.81891   0.00000  Uiso   1.00
H1447  H     0.11193   0.56914   0.53584   0.00000  Uiso   1.00
H1448  H     0.10313   0.43736   0.96343   0.00000  Uiso   1.00
H1449  H     0.16037   0.57055   0.97570   0.00000  Uiso   1.00
H1450  H     0.15174   0.43021   0.52321   0.00000  Uiso   1.00
N1451  N     0.16667   0.61907   0.75000   0.00000  Uiso   1.00
N1452  N     0.16667   0.38093   0.75000   0.00000  Uiso   1.00
O1453  O     0.10559   0.53821   0.75000   0.00000  Uiso   1.00
O1454  O     0.22774   0.46179   0.75001   0.00000  Uiso   1.00
O1455  O     0.22774   0.53821   0.75001   0.00000  Uiso   1.00
O1456  O     0.10559   0.46179   0.75000   0.00000  Uiso   1.00
O1457  O     0.16666   0.53822   0.68453   0.00000  Uiso   1.00
O1458  O     0.16667   0.46178   0.81547   0.00000  Uiso   1.00
O1459  O     0.16667   0.53822   0.81547   0.00000  Uiso   1.00
O1460  O     0.16666   0.46178   0.68453   0.00000  Uiso   1.00
Zn1461 Zn    0.16667   0.55104   0.75000   0.00000  Uiso   1.00
Zn1462 Zn    0.16667   0.44896   0.75000   0.00000  Uiso   1.00
O1463  O     0.12992   0.57821   0.62146   0.00000  Uiso   1.00
C1464  C     0.08712   0.58768   0.62765   0.00000  Uiso   1.00
H1465  H     0.07962   0.58294   0.66396   0.00000  Uiso   1.00
H1466  H     0.06535   0.56506   0.60800   0.00000  Uiso   1.00
C1467  C     0.07936   0.63732   0.61500   0.00000  Uiso   1.00
H1468  H     0.09886   0.66014   0.63674   0.00000  Uiso   1.00
H1469  H     0.08849   0.64279   0.57925   0.00000  Uiso   1.00
C1470  C     0.03368   0.64979   0.62065   0.00000  Uiso   1.00
H1471  H     0.01355   0.62741   0.59921   0.00000  Uiso   1.00
H1472  H     0.02907   0.35230   0.61019   0.00000  Uiso   1.00
H1473  H     0.02433   0.64631   0.65652   0.00000  Uiso   1.00
O1474  O     0.11813   0.42616   0.87846   0.00000  Uiso   1.00
C1475  C     0.08101   0.43325   0.85363   0.00000  Uiso   1.00
H1476  H     0.08283   0.41247   0.82224   0.00000  Uiso   1.00
H1477  H     0.07709   0.46910   0.84273   0.00000  Uiso   1.00
C1478  C     0.04275   0.41731   0.88018   0.00000  Uiso   1.00
H1479  H     0.04740   0.38178   0.89182   0.00000  Uiso   1.00
H1480  H     0.03854   0.43961   0.91024   0.00000  Uiso   1.00
C1481  C     0.00345   0.41891   0.85101   0.00000  Uiso   1.00
H1482  H     0.33137   0.45416   0.83902   0.00000  Uiso   1.00
H1483  H     0.30946   0.40770   0.87117   0.00000  Uiso   1.00
H1484  H     0.00639   0.39581   0.82134   0.00000  Uiso   1.00
O1485  O     0.18011   0.57861   0.89144   0.00000  Uiso   1.00
C1486  C     0.22346   0.57818   0.89926   0.00000  Uiso   1.00
H1487  H     0.23719   0.54499   0.88875   0.00000  Uiso   1.00
H1488  H     0.23013   0.58447   0.93572   0.00000  Uiso   1.00
C1489  C     0.24376   0.61605   0.87141   0.00000  Uiso   1.00
H1490  H     0.23848   0.60894   0.83488   0.00000  Uiso   1.00
H1491  H     0.22922   0.64922   0.87989   0.00000  Uiso   1.00
C1492  C     0.29046   0.61951   0.88043   0.00000  Uiso   1.00
H1493  H     0.29646   0.62899   0.91626   0.00000  Uiso   1.00
H1494  H     0.30451   0.64603   0.85844   0.00000  Uiso   1.00
H1495  H     0.30535   0.58639   0.87298   0.00000  Uiso   1.00
O1496  O     0.17671   0.42086   0.60507   0.00000  Uiso   1.00
C1497  C     0.22055   0.42111   0.60009   0.00000  Uiso   1.00
H1498  H     0.23260   0.39482   0.62328   0.00000  Uiso   1.00
H1499  H     0.23503   0.45440   0.61024   0.00000  Uiso   1.00
C1500  C     0.23410   0.40757   0.55221   0.00000  Uiso   1.00
H1501  H     0.21634   0.37677   0.54096   0.00000  Uiso   1.00
H1502  H     0.22777   0.43580   0.52846   0.00000  Uiso   1.00
C1503  C     0.28063   0.39742   0.55071   0.00000  Uiso   1.00
H1504  H     0.29905   0.42765   0.56218   0.00000  Uiso   1.00
H1505  H     0.28979   0.38881   0.51557   0.00000  Uiso   1.00
H1506  H     0.28789   0.36802   0.57272   0.00000  Uiso   1.00
C1507  C     0.04568   0.42399   0.69537   0.00000  Uiso   1.00
C1508  C     0.06573   0.44226   0.65241   0.00000  Uiso   1.00
H1509  H     0.04133   0.44865   0.62659   0.00000  Uiso   1.00
H1510  H     0.08253   0.47471   0.65914   0.00000  Uiso   1.00
H1511  H     0.08786   0.41692   0.63871   0.00000  Uiso   1.00
H1512  H     0.06825   0.40669   0.71737   0.00000  Uiso   1.00
H1513  H     0.02669   0.39439   0.68491   0.00000  Uiso   1.00
C1514  C     0.29609   0.58821   0.72226   0.00000  Uiso   1.00
C1515  C     0.27991   0.58548   0.67358   0.00000  Uiso   1.00
H1516  H     0.30433   0.57151   0.65106   0.00000  Uiso   1.00
H1517  H     0.25168   0.56352   0.67093   0.00000  Uiso   1.00
H1518  H     0.27178   0.62003   0.66162   0.00000  Uiso   1.00
H1519  H     0.27210   0.60205   0.74527   0.00000  Uiso   1.00
H1520  H     0.32164   0.61401   0.72191   0.00000  Uiso   1.00
C1521  C     0.28684   0.42176   0.69616   0.00000  Uiso   1.00
C1522  C     0.28403   0.38063   0.72766   0.00000  Uiso   1.00
H1523  H     0.31528   0.36782   0.73674   0.00000  Uiso   1.00
H1524  H     0.26772   0.38956   0.75941   0.00000  Uiso   1.00
H1525  H     0.26631   0.35279   0.71062   0.00000  Uiso   1.00
H1526  H     0.25517   0.43168   0.68610   0.00000  Uiso   1.00
H1527  H     0.30033   0.41210   0.66308   0.00000  Uiso   1.00
C1528  C     0.03581   0.57785   0.78502   0.00000  Uiso   1.00
C1529  C     0.05047   0.56157   0.83135   0.00000  Uiso   1.00
H1530  H     0.02804   0.53640   0.84548   0.00000  Uiso   1.00
H1531  H     0.08173   0.54637   0.82950   0.00000  Uiso   1.00
H1532  H     0.05285   0.59110   0.85493   0.00000  Uiso   1.00
H1533  H     0.06047   0.59812   0.76799   0.00000  Uiso   1.00
H1534  H     0.01070   0.60249   0.79245   0.00000  Uiso   1.00
C1535  C     0.41956   0.49966   0.74897   0.00000  Uiso   1.00
C1536  C     0.57960   0.50027   0.74366   0.00000  Uiso   1.00
C1537  C     0.49861   0.49994   0.66317   0.00000  Uiso   1.00
C1538  C     0.49740   0.50017   0.83649   0.00000  Uiso   1.00
C1539  C     0.49107   0.35739   0.78843   0.00000  Uiso   1.00
C1540  C     0.50939   0.64252   0.71165   0.00000  Uiso   1.00
C1541  C     0.50905   0.35720   0.71159   0.00000  Uiso   1.00
C1542  C     0.49062   0.64273   0.78833   0.00000  Uiso   1.00
C1543  C     0.35469   0.46165   0.71988   0.00000  Uiso   1.00
C1544  C     0.64565   0.54224   0.73835   0.00000  Uiso   1.00
C1545  C     0.64420   0.46152   0.71777   0.00000  Uiso   1.00
C1546  C     0.35255   0.53900   0.75465   0.00000  Uiso   1.00
C1547  C     0.45762   0.53848   0.55076   0.00000  Uiso   1.00
C1548  C     0.45226   0.46636   0.94846   0.00000  Uiso   1.00
C1549  C     0.48428   0.54128   0.95549   0.00000  Uiso   1.00
C1550  C     0.48011   0.46046   0.54353   0.00000  Uiso   1.00
C1551  C     0.46846   0.53868   0.59630   0.00000  Uiso   1.00
C1552  C     0.46215   0.46497   0.90289   0.00000  Uiso   1.00
C1553  C     0.49538   0.54023   0.91032   0.00000  Uiso   1.00
C1554  C     0.49372   0.46063   0.58802   0.00000  Uiso   1.00
C1555  C     0.48835   0.50014   0.61492   0.00000  Uiso   1.00
C1556  C     0.48590   0.50114   0.88405   0.00000  Uiso   1.00
C1557  C     0.46454   0.50000   0.52412   0.00000  Uiso   1.00
C1558  C     0.46447   0.50365   0.97511   0.00000  Uiso   1.00
C1559  C     0.62338   0.50124   0.73219   0.00000  Uiso   1.00
C1560  C     0.37493   0.49916   0.74283   0.00000  Uiso   1.00
H1561  H     0.48442   0.37545   0.81928   0.00000  Uiso   1.00
H1562  H     0.51723   0.62431   0.68106   0.00000  Uiso   1.00
H1563  H     0.51639   0.37522   0.68101   0.00000  Uiso   1.00
H1564  H     0.48288   0.62467   0.81891   0.00000  Uiso   1.00
H1565  H     0.44527   0.56914   0.53584   0.00000  Uiso   1.00
H1566  H     0.43646   0.43736   0.96343   0.00000  Uiso   1.00
H1567  H     0.49370   0.57055   0.97570   0.00000  Uiso   1.00
H1568  H     0.48507   0.43021   0.52321   0.00000  Uiso   1.00
N1569  N     0.50000   0.61907   0.75000   0.00000  Uiso   1.00
N1570  N     0.50000   0.38093   0.75000   0.00000  Uiso   1.00
O1571  O     0.43892   0.53821   0.75000   0.00000  Uiso   1.00
O1572  O     0.56108   0.46179   0.75001   0.00000  Uiso   1.00
O1573  O     0.56108   0.53821   0.75001   0.00000  Uiso   1.00
O1574  O     0.43892   0.46179   0.75000   0.00000  Uiso   1.00
O1575  O     0.50000   0.53822   0.68453   0.00000  Uiso   1.00
O1576  O     0.50000   0.46178   0.81547   0.00000  Uiso   1.00
O1577  O     0.50000   0.53822   0.81547   0.00000  Uiso   1.00
O1578  O     0.50000   0.46178   0.68453   0.00000  Uiso   1.00
Zn1579 Zn    0.50000   0.55104   0.75000   0.00000  Uiso   1.00
Zn1580 Zn    0.50000   0.44896   0.75000   0.00000  Uiso   1.00
O1581  O     0.46325   0.57821   0.62146   0.00000  Uiso   1.00
C1582  C     0.42046   0.58768   0.62765   0.00000  Uiso   1.00
H1583  H     0.41295   0.58294   0.66396   0.00000  Uiso   1.00
H1584  H     0.39869   0.56506   0.60800   0.00000  Uiso   1.00
C1585  C     0.41269   0.63732   0.61500   0.00000  Uiso   1.00
H1586  H     0.43219   0.66014   0.63674   0.00000  Uiso   1.00
H1587  H     0.42183   0.64279   0.57925   0.00000  Uiso   1.00
C1588  C     0.36701   0.64979   0.62065   0.00000  Uiso   1.00
H1589  H     0.34689   0.62741   0.59921   0.00000  Uiso   1.00
H1590  H     0.36240   0.35230   0.61019   0.00000  Uiso   1.00
H1591  H     0.35766   0.64631   0.65652   0.00000  Uiso   1.00
O1592  O     0.45147   0.42616   0.87846   0.00000  Uiso   1.00
C1593  C     0.41434   0.43325   0.85363   0.00000  Uiso   1.00
H1594  H     0.41616   0.41247   0.82224   0.00000  Uiso   1.00
H1595  H     0.41042   0.46910   0.84273   0.00000  Uiso   1.00
C1596  C     0.37608   0.41731   0.88018   0.00000  Uiso   1.00
H1597  H     0.38074   0.38178   0.89182   0.00000  Uiso   1.00
H1598  H     0.37188   0.43961   0.91024   0.00000  Uiso   1.00
C1599  C     0.33678   0.41891   0.85101   0.00000  Uiso   1.00
H1600  H     0.66470   0.45416   0.83902   0.00000  Uiso   1.00
H1601  H     0.64280   0.40770   0.87117   0.00000  Uiso   1.00
H1602  H     0.33972   0.39581   0.82134   0.00000  Uiso   1.00
O1603  O     0.51344   0.57861   0.89144   0.00000  Uiso   1.00
C1604  C     0.55679   0.57818   0.89926   0.00000  Uiso   1.00
H1605  H     0.57052   0.54499   0.88875   0.00000  Uiso   1.00
H1606  H     0.56346   0.58447   0.93572   0.00000  Uiso   1.00
C1607  C     0.57709   0.61605   0.87141   0.00000  Uiso   1.00
H1608  H     0.57182   0.60894   0.83488   0.00000  Uiso   1.00
H1609  H     0.56255   0.64922   0.87989   0.00000  Uiso   1.00
C1610  C     0.62380   0.61951   0.88043   0.00000  Uiso   1.00
H1611  H     0.62979   0.62899   0.91626   0.00000  Uiso   1.00
H1612  H     0.63784   0.64603   0.85844   0.00000  Uiso   1.00
H1613  H     0.63869   0.58639   0.87298   0.00000  Uiso   1.00
O1614  O     0.51004   0.42086   0.60507   0.00000  Uiso   1.00
C1615  C     0.55389   0.42111   0.60009   0.00000  Uiso   1.00
H1616  H     0.56593   0.39482   0.62328   0.00000  Uiso   1.00
H1617  H     0.56837   0.45440   0.61024   0.00000  Uiso   1.00
C1618  C     0.56744   0.40757   0.55221   0.00000  Uiso   1.00
H1619  H     0.54967   0.37677   0.54096   0.00000  Uiso   1.00
H1620  H     0.56111   0.43580   0.52846   0.00000  Uiso   1.00
C1621  C     0.61396   0.39742   0.55071   0.00000  Uiso   1.00
H1622  H     0.63238   0.42765   0.56218   0.00000  Uiso   1.00
H1623  H     0.62312   0.38881   0.51557   0.00000  Uiso   1.00
H1624  H     0.62122   0.36802   0.57272   0.00000  Uiso   1.00
C1625  C     0.37901   0.42399   0.69537   0.00000  Uiso   1.00
C1626  C     0.39906   0.44226   0.65241   0.00000  Uiso   1.00
H1627  H     0.37467   0.44865   0.62659   0.00000  Uiso   1.00
H1628  H     0.41587   0.47471   0.65914   0.00000  Uiso   1.00
H1629  H     0.42120   0.41692   0.63871   0.00000  Uiso   1.00
H1630  H     0.40159   0.40669   0.71737   0.00000  Uiso   1.00
H1631  H     0.36002   0.39439   0.68491   0.00000  Uiso   1.00
C1632  C     0.62943   0.58821   0.72226   0.00000  Uiso   1.00
C1633  C     0.61325   0.58548   0.67358   0.00000  Uiso   1.00
H1634  H     0.63766   0.57151   0.65106   0.00000  Uiso   1.00
H1635  H     0.58501   0.56352   0.67093   0.00000  Uiso   1.00
H1636  H     0.60511   0.62003   0.66162   0.00000  Uiso   1.00
H1637  H     0.60543   0.60205   0.74527   0.00000  Uiso   1.00
H1638  H     0.65498   0.61401   0.72191   0.00000  Uiso   1.00
C1639  C     0.62017   0.42176   0.69616   0.00000  Uiso   1.00
C1640  C     0.61736   0.38063   0.72766   0.00000  Uiso   1.00
H1641  H     0.64861   0.36782   0.73674   0.00000  Uiso   1.00
H1642  H     0.60105   0.38956   0.75941   0.00000  Uiso   1.00
H1643  H     0.59964   0.35279   0.71062   0.00000  Uiso   1.00
H1644  H     0.58850   0.43168   0.68610   0.00000  Uiso   1.00
H1645  H     0.63366   0.41210   0.66308   0.00000  Uiso   1.00
C1646  C     0.36914   0.57785   0.78502   0.00000  Uiso   1.00
C1647  C     0.38380   0.56157   0.83135   0.00000  Uiso   1.00
H1648  H     0.36137   0.53640   0.84548   0.00000  Uiso   1.00
H1649  H     0.41506   0.54637   0.82950   0.00000  Uiso   1.00
H1650  H     0.38619   0.59110   0.85493   0.00000  Uiso   1.00
H1651  H     0.39380   0.59812   0.76799   0.00000  Uiso   1.00
H1652  H     0.34403   0.60249   0.79245   0.00000  Uiso   1.00
C1653  C     0.75289   0.49966   0.74897   0.00000  Uiso   1.00
C1654  C     0.91294   0.50027   0.74366   0.00000  Uiso   1.00
C1655  C     0.83195   0.49994   0.66317   0.00000  Uiso   1.00
C1656  C     0.83073   0.50017   0.83649   0.00000  Uiso   1.00
C1657  C     0.82440   0.35739   0.78843   0.00000  Uiso   1.00
C1658  C     0.84273   0.64252   0.71165   0.00000  Uiso   1.00
C1659  C     0.84238   0.35720   0.71159   0.00000  Uiso   1.00
C1660  C     0.82395   0.64273   0.78833   0.00000  Uiso   1.00
C1661  C     0.68802   0.46165   0.71988   0.00000  Uiso   1.00
C1662  C     0.97898   0.54224   0.73835   0.00000  Uiso   1.00
C1663  C     0.97754   0.46152   0.71777   0.00000  Uiso   1.00
C1664  C     0.68589   0.53900   0.75465   0.00000  Uiso   1.00
C1665  C     0.79095   0.53848   0.55076   0.00000  Uiso   1.00
C1666  C     0.78560   0.46636   0.94846   0.00000  Uiso   1.00
C1667  C     0.81762   0.54128   0.95549   0.00000  Uiso   1.00
C1668  C     0.81344   0.46046   0.54353   0.00000  Uiso   1.00
C1669  C     0.80179   0.53868   0.59630   0.00000  Uiso   1.00
C1670  C     0.79549   0.46497   0.90289   0.00000  Uiso   1.00
C1671  C     0.82872   0.54023   0.91032   0.00000  Uiso   1.00
C1672  C     0.82706   0.46063   0.58802   0.00000  Uiso   1.00
C1673  C     0.82169   0.50014   0.61492   0.00000  Uiso   1.00
C1674  C     0.81923   0.50114   0.88405   0.00000  Uiso   1.00
C1675  C     0.79787   0.50000   0.52412   0.00000  Uiso   1.00
C1676  C     0.79780   0.50365   0.97511   0.00000  Uiso   1.00
C1677  C     0.95671   0.50124   0.73219   0.00000  Uiso   1.00
C1678  C     0.70826   0.49916   0.74283   0.00000  Uiso   1.00
H1679  H     0.81775   0.37545   0.81928   0.00000  Uiso   1.00
H1680  H     0.85057   0.62431   0.68106   0.00000  Uiso   1.00
H1681  H     0.84973   0.37522   0.68101   0.00000  Uiso   1.00
H1682  H     0.81622   0.62467   0.81891   0.00000  Uiso   1.00
H1683  H     0.77860   0.56914   0.53584   0.00000  Uiso   1.00
H1684  H     0.76979   0.43736   0.96343   0.00000  Uiso   1.00
H1685  H     0.82703   0.57055   0.97570   0.00000  Uiso   1.00
H1686  H     0.81841   0.43021   0.52321   0.00000  Uiso   1.00
N1687  N     0.83333   0.61907   0.75000   0.00000  Uiso   1.00
N1688  N     0.83333   0.38093   0.75000   0.00000  Uiso   1.00
O1689  O     0.77226   0.53821   0.75000   0.00000  Uiso   1.00
O1690  O     0.89441   0.46179   0.75001   0.00000  Uiso   1.00
O1691  O     0.89441   0.53821   0.75001   0.00000  Uiso   1.00
O1692  O     0.77226   0.46179   0.75000   0.00000  Uiso   1.00
O1693  O     0.83333   0.53822   0.68453   0.00000  Uiso   1.00
O1694  O     0.83334   0.46178   0.81547   0.00000  Uiso   1.00
O1695  O     0.83334   0.53822   0.81547   0.00000  Uiso   1.00
O1696  O     0.83333   0.46178   0.68453   0.00000  Uiso   1.00
Zn1697 Zn    0.83333   0.55104   0.75000   0.00000  Uiso   1.00
Zn1698 Zn    0.83333   0.44896   0.75000   0.00000  Uiso   1.00
O1699  O     0.79659   0.57821   0.62146   0.00000  Uiso   1.00
C1700  C     0.75379   0.58768   0.62765   0.00000  Uiso   1.00
H1701  H     0.74629   0.58294   0.66396   0.00000  Uiso   1.00
H1702  H     0.73202   0.56506   0.60800   0.00000  Uiso   1.00
C1703  C     0.74603   0.63732   0.61500   0.00000  Uiso   1.00
H1704  H     0.76552   0.66014   0.63674   0.00000  Uiso   1.00
H1705  H     0.75516   0.64279   0.57925   0.00000  Uiso   1.00
C1706  C     0.70034   0.64979   0.62065   0.00000  Uiso   1.00
H1707  H     0.68022   0.62741   0.59921   0.00000  Uiso   1.00
H1708  H     0.69574   0.35230   0.61019   0.00000  Uiso   1.00
H1709  H     0.69100   0.64631   0.65652   0.00000  Uiso   1.00
O1710  O     0.78480   0.42616   0.87846   0.00000  Uiso   1.00
C1711  C     0.74767   0.43325   0.85363   0.00000  Uiso   1.00
H1712  H     0.74949   0.41247   0.82224   0.00000  Uiso   1.00
H1713  H     0.74375   0.46910   0.84273   0.00000  Uiso   1.00
C1714  C     0.70942   0.41731   0.88018   0.00000  Uiso   1.00
H1715  H     0.71407   0.38178   0.89182   0.00000  Uiso   1.00
H1716  H     0.70521   0.43961   0.91024   0.00000  Uiso   1.00
C1717  C     0.67011   0.41891   0.85101   0.00000  Uiso   1.00
H1718  H     0.99804   0.45416   0.83902   0.00000  Uiso   1.00
H1719  H     0.97613   0.40770   0.87117   0.00000  Uiso   1.00
H1720  H     0.67305   0.39581   0.82134   0.00000  Uiso   1.00
O1721  O     0.84677   0.57861   0.89144   0.00000  Uiso   1.00
C1722  C     0.89012   0.57818   0.89926   0.00000  Uiso   1.00
H1723  H     0.90386   0.54499   0.88875   0.00000  Uiso   1.00
H1724  H     0.89679   0.58447   0.93572   0.00000  Uiso   1.00
C1725  C     0.91042   0.61605   0.87141   0.00000  Uiso   1.00
H1726  H     0.90515   0.60894   0.83488   0.00000  Uiso   1.00
H1727  H     0.89588   0.64922   0.87989   0.00000  Uiso   1.00
C1728  C     0.95713   0.61951   0.88043   0.00000  Uiso   1.00
H1729  H     0.96313   0.62899   0.91626   0.00000  Uiso   1.00
H1730  H     0.97118   0.64603   0.85844   0.00000  Uiso   1.00
H1731  H     0.97202   0.58639   0.87298   0.00000  Uiso   1.00
O1732  O     0.84338   0.42086   0.60507   0.00000  Uiso   1.00
C1733  C     0.88722   0.42111   0.60009   0.00000  Uiso   1.00
H1734  H     0.89927   0.39482   0.62328   0.00000  Uiso   1.00
H1735  H     0.90170   0.45440   0.61024   0.00000  Uiso   1.00
C1736  C     0.90077   0.40757   0.55221   0.00000  Uiso   1.00
H1737  H     0.88301   0.37677   0.54096   0.00000  Uiso   1.00
H1738  H     0.89444   0.43580   0.52846   0.00000  Uiso   1.00
C1739  C     0.94729   0.39742   0.55071   0.00000  Uiso   1.00
H1740  H     0.96571   0.42765   0.56218   0.00000  Uiso   1.00
H1741  H     0.95645   0.38881   0.51557   0.00000  Uiso   1.00
H1742  H     0.95456   0.36802   0.57272   0.00000  Uiso   1.00
C1743  C     0.71234   0.42399   0.69537   0.00000  Uiso   1.00
C1744  C     0.73239   0.44226   0.65241   0.00000  Uiso   1.00
H1745  H     0.70800   0.44865   0.62659   0.00000  Uiso   1.00
H1746  H     0.74920   0.47471   0.65914   0.00000  Uiso   1.00
H1747  H     0.75453   0.41692   0.63871   0.00000  Uiso   1.00
H1748  H     0.73492   0.40669   0.71737   0.00000  Uiso   1.00
H1749  H     0.69335   0.39439   0.68491   0.00000  Uiso   1.00
C1750  C     0.96276   0.58821   0.72226   0.00000  Uiso   1.00
C1751  C     0.94658   0.58548   0.67358   0.00000  Uiso   1.00
H1752  H     0.97099   0.57151   0.65106   0.00000  Uiso   1.00
H1753  H     0.91834   0.56352   0.67093   0.00000  Uiso   1.00
H1754  H     0.93844   0.62003   0.66162   0.00000  Uiso   1.00
H1755  H     0.93877   0.60205   0.74527   0.00000  Uiso   1.00
H1756  H     0.98831   0.61401   0.72191   0.00000  Uiso   1.00
C1757  C     0.95351   0.42176   0.69616   0.00000  Uiso   1.00
C1758  C     0.95070   0.38063   0.72766   0.00000  Uiso   1.00
H1759  H     0.98194   0.36782   0.73674   0.00000  Uiso   1.00
H1760  H     0.93438   0.38956   0.75941   0.00000  Uiso   1.00
H1761  H     0.93298   0.35279   0.71062   0.00000  Uiso   1.00
H1762  H     0.92183   0.43168   0.68610   0.00000  Uiso   1.00
H1763  H     0.96699   0.41210   0.66308   0.00000  Uiso   1.00
C1764  C     0.70248   0.57785   0.78502   0.00000  Uiso   1.00
C1765  C     0.71713   0.56157   0.83135   0.00000  Uiso   1.00
H1766  H     0.69470   0.53640   0.84548   0.00000  Uiso   1.00
H1767  H     0.74840   0.54637   0.82950   0.00000  Uiso   1.00
H1768  H     0.71952   0.59110   0.85493   0.00000  Uiso   1.00
H1769  H     0.72713   0.59812   0.76799   0.00000  Uiso   1.00
H1770  H     0.67737   0.60249   0.79245   0.00000  Uiso   1.00
C1771  C     0.08622   0.83300   0.74897   0.00000  Uiso   1.00
C1772  C     0.24627   0.83360   0.74366   0.00000  Uiso   1.00
C1773  C     0.16528   0.83327   0.66317   0.00000  Uiso   1.00
C1774  C     0.16407   0.83351   0.83649   0.00000  Uiso   1.00
C1775  C     0.15773   0.69073   0.78843   0.00000  Uiso   1.00
C1776  C     0.17606   0.97585   0.71165   0.00000  Uiso   1.00
C1777  C     0.17572   0.69053   0.71159   0.00000  Uiso   1.00
C1778  C     0.15728   0.97607   0.78833   0.00000  Uiso   1.00
C1779  C     0.02135   0.79498   0.71988   0.00000  Uiso   1.00
C1780  C     0.31231   0.87557   0.73835   0.00000  Uiso   1.00
C1781  C     0.31087   0.79485   0.71777   0.00000  Uiso   1.00
C1782  C     0.01922   0.87234   0.75465   0.00000  Uiso   1.00
C1783  C     0.12429   0.87181   0.55076   0.00000  Uiso   1.00
C1784  C     0.11893   0.79969   0.94846   0.00000  Uiso   1.00
C1785  C     0.15095   0.87461   0.95549   0.00000  Uiso   1.00
C1786  C     0.14677   0.79380   0.54353   0.00000  Uiso   1.00
C1787  C     0.13513   0.87202   0.59630   0.00000  Uiso   1.00
C1788  C     0.12882   0.79830   0.90289   0.00000  Uiso   1.00
C1789  C     0.16205   0.87356   0.91032   0.00000  Uiso   1.00
C1790  C     0.16039   0.79396   0.58802   0.00000  Uiso   1.00
C1791  C     0.15502   0.83347   0.61492   0.00000  Uiso   1.00
C1792  C     0.15256   0.83447   0.88405   0.00000  Uiso   1.00
C1793  C     0.13120   0.83334   0.52412   0.00000  Uiso   1.00
C1794  C     0.13114   0.83698   0.97511   0.00000  Uiso   1.00
C1795  C     0.29004   0.83458   0.73219   0.00000  Uiso   1.00
C1796  C     0.04160   0.83249   0.74283   0.00000  Uiso   1.00
H1797  H     0.15108   0.70878   0.81928   0.00000  Uiso   1.00
H1798  H     0.18390   0.95764   0.68106   0.00000  Uiso   1.00
H1799  H     0.18306   0.70855   0.68101   0.00000  Uiso   1.00
H1800  H     0.14955   0.95801   0.81891   0.00000  Uiso   1.00
H1801  H     0.11193   0.90247   0.53584   0.00000  Uiso   1.00
H1802  H     0.10313   0.77069   0.96343   0.00000  Uiso   1.00
H1803  H     0.16037   0.90389   0.97570   0.00000  Uiso   1.00
H1804  H     0.15174   0.76354   0.52321   0.00000  Uiso   1.00
N1805  N     0.16667   0.95240   0.75000   0.00000  Uiso   1.00
N1806  N     0.16667   0.71427   0.75000   0.00000  Uiso   1.00
O1807  O     0.10559   0.87154   0.75000   0.00000  Uiso   1.00
O1808  O     0.22774   0.79513   0.75001   0.00000  Uiso   1.00
O1809  O     0.22774   0.87154   0.75001   0.00000  Uiso   1.00
O1810  O     0.10559   0.79513   0.75000   0.00000  Uiso   1.00
O1811  O     0.16666   0.87155   0.68453   0.00000  Uiso   1.00
O1812  O     0.16667   0.79511   0.81547   0.00000  Uiso   1.00
O1813  O     0.16667   0.87155   0.81547   0.00000  Uiso   1.00
O1814  O     0.16666   0.79511   0.68453   0.00000  Uiso   1.00
Zn1815 Zn    0.16667   0.88437   0.75000   0.00000  Uiso   1.00
Zn1816 Zn    0.16667   0.78229   0.75000   0.00000  Uiso   1.00
O1817  O     0.12992   0.91154   0.62146   0.00000  Uiso   1.00
C1818  C     0.08712   0.92101   0.62765   0.00000  Uiso   1.00
H1819  H     0.07962   0.91627   0.66396   0.00000  Uiso   1.00
H1820  H     0.06535   0.89839   0.60800   0.00000  Uiso   1.00
C1821  C     0.07936   0.97065   0.61500   0.00000  Uiso   1.00
H1822  H     0.09886   0.99347   0.63674   0.00000  Uiso   1.00
H1823  H     0.08849   0.97612   0.57925   0.00000  Uiso   1.00
C1824  C     0.03368   0.98312   0.62065   0.00000  Uiso   1.00
H1825  H     0.01355   0.96074   0.59921   0.00000  Uiso   1.00
H1826  H     0.02907   0.68564   0.61019   0.00000  Uiso   1.00
H1827  H     0.02433   0.97964   0.65652   0.00000  Uiso   1.00
O1828  O     0.11813   0.75949   0.87846   0.00000  Uiso   1.00
C1829  C     0.08101   0.76658   0.85363   0.00000  Uiso   1.00
H1830  H     0.08283   0.74581   0.82224   0.00000  Uiso   1.00
H1831  H     0.07709   0.80244   0.84273   0.00000  Uiso   1.00
C1832  C     0.04275   0.75064   0.88018   0.00000  Uiso   1.00
H1833  H     0.04740   0.71511   0.89182   0.00000  Uiso   1.00
H1834  H     0.03854   0.77294   0.91024   0.00000  Uiso   1.00
C1835  C     0.00345   0.75225   0.85101   0.00000  Uiso   1.00
H1836  H     0.33137   0.78749   0.83902   0.00000  Uiso   1.00
H1837  H     0.30946   0.74104   0.87117   0.00000  Uiso   1.00
H1838  H     0.00639   0.72915   0.82134   0.00000  Uiso   1.00
O1839  O     0.18011   0.91194   0.89144   0.00000  Uiso   1.00
C1840  C     0.22346   0.91151   0.89926   0.00000  Uiso   1.00
H1841  H     0.23719   0.87832   0.88875   0.00000  Uiso   1.00
H1842  H     0.23013   0.91780   0.93572   0.00000  Uiso   1.00
C1843  C     0.24376   0.94938   0.87141   0.00000  Uiso   1.00
H1844  H     0.23848   0.94227   0.83488   0.00000  Uiso   1.00
H1845  H     0.22922   0.98255   0.87989   0.00000  Uiso   1.00
C1846  C     0.29046   0.95284   0.88043   0.00000  Uiso   1.00
H1847  H     0.29646   0.96233   0.91626   0.00000  Uiso   1.00
H1848  H     0.30451   0.97936   0.85844   0.00000  Uiso   1.00
H1849  H     0.30535   0.91973   0.87298   0.00000  Uiso   1.00
O1850  O     0.17671   0.75419   0.60507   0.00000  Uiso   1.00
C1851  C     0.22055   0.75444   0.60009   0.00000  Uiso   1.00
H1852  H     0.23260   0.72815   0.62328   0.00000  Uiso   1.00
H1853  H     0.23503   0.78773   0.61024   0.00000  Uiso   1.00
C1854  C     0.23410   0.74090   0.55221   0.00000  Uiso   1.00
H1855  H     0.21634   0.71010   0.54096   0.00000  Uiso   1.00
H1856  H     0.22777   0.76914   0.52846   0.00000  Uiso   1.00
C1857  C     0.28063   0.73075   0.55071   0.00000  Uiso   1.00
H1858  H     0.29905   0.76098   0.56218   0.00000  Uiso   1.00
H1859  H     0.28979   0.72214   0.51557   0.00000  Uiso   1.00
H1860  H     0.28789   0.70135   0.57272   0.00000  Uiso   1.00
C1861  C     0.04568   0.75733   0.69537   0.00000  Uiso   1.00
C1862  C     0.06573   0.77559   0.65241   0.00000  Uiso   1.00
H1863  H     0.04133   0.78199   0.62659   0.00000  Uiso   1.00
H1864  H     0.08253   0.80804   0.65914   0.00000  Uiso   1.00
H1865  H     0.08786   0.75026   0.63871   0.00000  Uiso   1.00
H1866  H     0.06825   0.74002   0.71737   0.00000  Uiso   1.00
H1867  H     0.02669   0.72772   0.68491   0.00000  Uiso   1.00
C1868  C     0.29609   0.92155   0.72226   0.00000  Uiso   1.00
C1869  C     0.27991   0.91882   0.67358   0.00000  Uiso   1.00
H1870  H     0.30433   0.90484   0.65106   0.00000  Uiso   1.00
H1871  H     0.25168   0.89686   0.67093   0.00000  Uiso   1.00
H1872  H     0.27178   0.95336   0.66162   0.00000  Uiso   1.00
H1873  H     0.27210   0.93538   0.74527   0.00000  Uiso   1.00
H1874  H     0.32164   0.94734   0.72191   0.00000  Uiso   1.00
C1875  C     0.28684   0.75509   0.69616   0.00000  Uiso   1.00
C1876  C     0.28403   0.71396   0.72766   0.00000  Uiso   1.00
H1877  H     0.31528   0.70115   0.73674   0.00000  Uiso   1.00
H1878  H     0.26772   0.72289   0.75941   0.00000  Uiso   1.00
H1879  H     0.26631   0.68612   0.71062   0.00000  Uiso   1.00
H1880  H     0.25517   0.76501   0.68610   0.00000  Uiso   1.00
H1881  H     0.30033   0.74543   0.66308   0.00000  Uiso   1.00
C1882  C     0.03581   0.91119   0.78502   0.00000  Uiso   1.00
C1883  C     0.05047   0.89491   0.83135   0.00000  Uiso   1.00
H1884  H     0.02804   0.86974   0.84548   0.00000  Uiso   1.00
H1885  H     0.08173   0.87970   0.82950   0.00000  Uiso   1.00
H1886  H     0.05285   0.92444   0.85493   0.00000  Uiso   1.00
H1887  H     0.06047   0.93145   0.76799   0.00000  Uiso   1.00
H1888  H     0.01070   0.93582   0.79245   0.00000  Uiso   1.00
C1889  C     0.41956   0.83300   0.74897   0.00000  Uiso   1.00
C1890  C     0.57960   0.83360   0.74366   0.00000  Uiso   1.00
C1891  C     0.49861   0.83327   0.66317   0.00000  Uiso   1.00
C1892  C     0.49740   0.83351   0.83649   0.00000  Uiso   1.00
C1893  C     0.49107   0.69073   0.78843   0.00000  Uiso   1.00
C1894  C     0.50939   0.97585   0.71165   0.00000  Uiso   1.00
C1895  C     0.50905   0.69053   0.71159   0.00000  Uiso   1.00
C1896  C     0.49062   0.97607   0.78833   0.00000  Uiso   1.00
C1897  C     0.35469   0.79498   0.71988   0.00000  Uiso   1.00
C1898  C     0.64565   0.87557   0.73835   0.00000  Uiso   1.00
C1899  C     0.64420   0.79485   0.71777   0.00000  Uiso   1.00
C1900  C     0.35255   0.87234   0.75465   0.00000  Uiso   1.00
C1901  C     0.45762   0.87181   0.55076   0.00000  Uiso   1.00
C1902  C     0.45226   0.79969   0.94846   0.00000  Uiso   1.00
C1903  C     0.48428   0.87461   0.95549   0.00000  Uiso   1.00
C1904  C     0.48011   0.79380   0.54353   0.00000  Uiso   1.00
C1905  C     0.46846   0.87202   0.59630   0.00000  Uiso   1.00
C1906  C     0.46215   0.79830   0.90289   0.00000  Uiso   1.00
C1907  C     0.49538   0.87356   0.91032   0.00000  Uiso   1.00
C1908  C     0.49372   0.79396   0.58802   0.00000  Uiso   1.00
C1909  C     0.48835   0.83347   0.61492   0.00000  Uiso   1.00
C1910  C     0.48590   0.83447   0.88405   0.00000  Uiso   1.00
C1911  C     0.46454   0.83334   0.52412   0.00000  Uiso   1.00
C1912  C     0.46447   0.83698   0.97511   0.00000  Uiso   1.00
C1913  C     0.62338   0.83458   0.73219   0.00000  Uiso   1.00
C1914  C     0.37493   0.83249   0.74283   0.00000  Uiso   1.00
H1915  H     0.48442   0.70878   0.81928   0.00000  Uiso   1.00
H1916  H     0.51723   0.95764   0.68106   0.00000  Uiso   1.00
H1917  H     0.51639   0.70855   0.68101   0.00000  Uiso   1.00
H1918  H     0.48288   0.95801   0.81891   0.00000  Uiso   1.00
H1919  H     0.44527   0.90247   0.53584   0.00000  Uiso   1.00
H1920  H     0.43646   0.77069   0.96343   0.00000  Uiso   1.00
H1921  H     0.49370   0.90389   0.97570   0.00000  Uiso   1.00
H1922  H     0.48507   0.76354   0.52321   0.00000  Uiso   1.00
N1923  N     0.50000   0.95240   0.75000   0.00000  Uiso   1.00
N1924  N     0.50000   0.71427   0.75000   0.00000  Uiso   1.00
O1925  O     0.43892   0.87154   0.75000   0.00000  Uiso   1.00
O1926  O     0.56108   0.79513   0.75001   0.00000  Uiso   1.00
O1927  O     0.56108   0.87154   0.75001   0.00000  Uiso   1.00
O1928  O     0.43892   0.79513   0.75000   0.00000  Uiso   1.00
O1929  O     0.50000   0.87155   0.68453   0.00000  Uiso   1.00
O1930  O     0.50000   0.79511   0.81547   0.00000  Uiso   1.00
O1931  O     0.50000   0.87155   0.81547   0.00000  Uiso   1.00
O1932  O     0.50000   0.79511   0.68453   0.00000  Uiso   1.00
Zn1933 Zn    0.50000   0.88437   0.75000   0.00000  Uiso   1.00
Zn1934 Zn    0.50000   0.78229   0.75000   0.00000  Uiso   1.00
O1935  O     0.46325   0.91154   0.62146   0.00000  Uiso   1.00
C1936  C     0.42046   0.92101   0.62765   0.00000  Uiso   1.00
H1937  H     0.41295   0.91627   0.66396   0.00000  Uiso   1.00
H1938  H     0.39869   0.89839   0.60800   0.00000  Uiso   1.00
C1939  C     0.41269   0.97065   0.61500   0.00000  Uiso   1.00
H1940  H     0.43219   0.99347   0.63674   0.00000  Uiso   1.00
H1941  H     0.42183   0.97612   0.57925   0.00000  Uiso   1.00
C1942  C     0.36701   0.98312   0.62065   0.00000  Uiso   1.00
H1943  H     0.34689   0.96074   0.59921   0.00000  Uiso   1.00
H1944  H     0.36240   0.68564   0.61019   0.00000  Uiso   1.00
H1945  H     0.35766   0.97964   0.65652   0.00000  Uiso   1.00
O1946  O     0.45147   0.75949   0.87846   0.00000  Uiso   1.00
C1947  C     0.41434   0.76658   0.85363   0.00000  Uiso   1.00
H1948  H     0.41616   0.74581   0.82224   0.00000  Uiso   1.00
H1949  H     0.41042   0.80244   0.84273   0.00000  Uiso   1.00
C1950  C     0.37608   0.75064   0.88018   0.00000  Uiso   1.00
H1951  H     0.38074   0.71511   0.89182   0.00000  Uiso   1.00
H1952  H     0.37188   0.77294   0.91024   0.00000  Uiso   1.00
C1953  C     0.33678   0.75225   0.85101   0.00000  Uiso   1.00
H1954  H     0.66470   0.78749   0.83902   0.00000  Uiso   1.00
H1955  H     0.64280   0.74104   0.87117   0.00000  Uiso   1.00
H1956  H     0.33972   0.72915   0.82134   0.00000  Uiso   1.00
O1957  O     0.51344   0.91194   0.89144   0.00000  Uiso   1.00
C1958  C     0.55679   0.91151   0.89926   0.00000  Uiso   1.00
H1959  H     0.57052   0.87832   0.88875   0.00000  Uiso   1.00
H1960  H     0.56346   0.91780   0.93572   0.00000  Uiso   1.00
C1961  C     0.57709   0.94938   0.87141   0.00000  Uiso   1.00
H1962  H     0.57182   0.94227   0.83488   0.00000  Uiso   1.00
H1963  H     0.56255   0.98255   0.87989   0.00000  Uiso   1.00
C1964  C     0.62380   0.95284   0.88043   0.00000  Uiso   1.00
H1965  H     0.62979   0.96233   0.91626   0.00000  Uiso   1.00
H1966  H     0.63784   0.97936   0.85844   0.00000  Uiso   1.00
H1967  H     0.63869   0.91973   0.87298   0.00000  Uiso   1.00
O1968  O     0.51004   0.75419   0.60507   0.00000  Uiso   1.00
C1969  C     0.55389   0.75444   0.60009   0.00000  Uiso   1.00
H1970  H     0.56593   0.72815   0.62328   0.00000  Uiso   1.00
H1971  H     0.56837   0.78773   0.61024   0.00000  Uiso   1.00
C1972  C     0.56744   0.74090   0.55221   0.00000  Uiso   1.00
H1973  H     0.54967   0.71010   0.54096   0.00000  Uiso   1.00
H1974  H     0.56111   0.76914   0.52846   0.00000  Uiso   1.00
C1975  C     0.61396   0.73075   0.55071   0.00000  Uiso   1.00
H1976  H     0.63238   0.76098   0.56218   0.00000  Uiso   1.00
H1977  H     0.62312   0.72214   0.51557   0.00000  Uiso   1.00
H1978  H     0.62122   0.70135   0.57272   0.00000  Uiso   1.00
C1979  C     0.37901   0.75733   0.69537   0.00000  Uiso   1.00
C1980  C     0.39906   0.77559   0.65241   0.00000  Uiso   1.00
H1981  H     0.37467   0.78199   0.62659   0.00000  Uiso   1.00
H1982  H     0.41587   0.80804   0.65914   0.00000  Uiso   1.00
H1983  H     0.42120   0.75026   0.63871   0.00000  Uiso   1.00
H1984  H     0.40159   0.74002   0.71737   0.00000  Uiso   1.00
H1985  H     0.36002   0.72772   0.68491   0.00000  Uiso   1.00
C1986  C     0.62943   0.92155   0.72226   0.00000  Uiso   1.00
C1987  C     0.61325   0.91882   0.67358   0.00000  Uiso   1.00
H1988  H     0.63766   0.90484   0.65106   0.00000  Uiso   1.00
H1989  H     0.58501   0.89686   0.67093   0.00000  Uiso   1.00
H1990  H     0.60511   0.95336   0.66162   0.00000  Uiso   1.00
H1991  H     0.60543   0.93538   0.74527   0.00000  Uiso   1.00
H1992  H     0.65498   0.94734   0.72191   0.00000  Uiso   1.00
C1993  C     0.62017   0.75509   0.69616   0.00000  Uiso   1.00
C1994  C     0.61736   0.71396   0.72766   0.00000  Uiso   1.00
H1995  H     0.64861   0.70115   0.73674   0.00000  Uiso   1.00
H1996  H     0.60105   0.72289   0.75941   0.00000  Uiso   1.00
H1997  H     0.59964   0.68612   0.71062   0.00000  Uiso   1.00
H1998  H     0.58850   0.76501   0.68610   0.00000  Uiso   1.00
H1999  H     0.63366   0.74543   0.66308   0.00000  Uiso   1.00
C2000  C     0.36914   0.91119   0.78502   0.00000  Uiso   1.00
C2001  C     0.38380   0.89491   0.83135   0.00000  Uiso   1.00
H2002  H     0.36137   0.86974   0.84548   0.00000  Uiso   1.00
H2003  H     0.41506   0.87970   0.82950   0.00000  Uiso   1.00
H2004  H     0.38619   0.92444   0.85493   0.00000  Uiso   1.00
H2005  H     0.39380   0.93145   0.76799   0.00000  Uiso   1.00
H2006  H     0.34403   0.93582   0.79245   0.00000  Uiso   1.00
C2007  C     0.75289   0.83300   0.74897   0.00000  Uiso   1.00
C2008  C     0.91294   0.83360   0.74366   0.00000  Uiso   1.00
C2009  C     0.83195   0.83327   0.66317   0.00000  Uiso   1.00
C2010  C     0.83073   0.83351   0.83649   0.00000  Uiso   1.00
C2011  C     0.82440   0.69073   0.78843   0.00000  Uiso   1.00
C2012  C     0.84273   0.97585   0.71165   0.00000  Uiso   1.00
C2013  C     0.84238   0.69053   0.71159   0.00000  Uiso   1.00
C2014  C     0.82395   0.97607   0.78833   0.00000  Uiso   1.00
C2015  C     0.68802   0.79498   0.71988   0.00000  Uiso   1.00
C2016  C     0.97898   0.87557   0.73835   0.00000  Uiso   1.00
C2017  C     0.97754   0.79485   0.71777   0.00000  Uiso   1.00
C2018  C     0.68589   0.87234   0.75465   0.00000  Uiso   1.00
C2019  C     0.79095   0.87181   0.55076   0.00000  Uiso   1.00
C2020  C     0.78560   0.79969   0.94846   0.00000  Uiso   1.00
C2021  C     0.81762   0.87461   0.95549   0.00000  Uiso   1.00
C2022  C     0.81344   0.79380   0.54353   0.00000  Uiso   1.00
C2023  C     0.80179   0.87202   0.59630   0.00000  Uiso   1.00
C2024  C     0.79549   0.79830   0.90289   0.00000  Uiso   1.00
C2025  C     0.82872   0.87356   0.91032   0.00000  Uiso   1.00
C2026  C     0.82706   0.79396   0.58802   0.00000  Uiso   1.00
C2027  C     0.82169   0.83347   0.61492   0.00000  Uiso   1.00
C2028  C     0.81923   0.83447   0.88405   0.00000  Uiso   1.00
C2029  C     0.79787   0.83334   0.52412   0.00000  Uiso   1.00
C2030  C     0.79780   0.83698   0.97511   0.00000  Uiso   1.00
C2031  C     0.95671   0.83458   0.73219   0.00000  Uiso   1.00
C2032  C     0.70826   0.83249   0.74283   0.00000  Uiso   1.00
H2033  H     0.81775   0.70878   0.81928   0.00000  Uiso   1.00
H2034  H     0.85057   0.95764   0.68106   0.00000  Uiso   1.00
H2035  H     0.84973   0.70855   0.68101   0.00000  Uiso   1.00
H2036  H     0.81622   0.95801   0.81891   0.00000  Uiso   1.00
H2037  H     0.77860   0.90247   0.53584   0.00000  Uiso   1.00
H2038  H     0.76979   0.77069   0.96343   0.00000  Uiso   1.00
H2039  H     0.82703   0.90389   0.97570   0.00000  Uiso   1.00
H2040  H     0.81841   0.76354   0.52321   0.00000  Uiso   1.00
N2041  N     0.83333   0.95240   0.75000   0.00000  Uiso   1.00
N2042  N     0.83333   0.71427   0.75000   0.00000  Uiso   1.00
O2043  O     0.77226   0.87154   0.75000   0.00000  Uiso   1.00
O2044  O     0.89441   0.79513   0.75001   0.00000  Uiso   1.00
O2045  O     0.89441   0.87154   0.75001   0.00000  Uiso   1.00
O2046  O     0.77226   0.79513   0.75000   0.00000  Uiso   1.00
O2047  O     0.83333   0.87155   0.68453   0.00000  Uiso   1.00
O2048  O     0.83334   0.79511   0.81547   0.00000  Uiso   1.00
O2049  O     0.83334   0.87155   0.81547   0.00000  Uiso   1.00
O2050  O     0.83333   0.79511   0.68453   0.00000  Uiso   1.00
Zn2051 Zn    0.83333   0.88437   0.75000   0.00000  Uiso   1.00
Zn2052 Zn    0.83333   0.78229   0.75000   0.00000  Uiso   1.00
O2053  O     0.79659   0.91154   0.62146   0.00000  Uiso   1.00
C2054  C     0.75379   0.92101   0.62765   0.00000  Uiso   1.00
H2055  H     0.74629   0.91627   0.66396   0.00000  Uiso   1.00
H2056  H     0.73202   0.89839   0.60800   0.00000  Uiso   1.00
C2057  C     0.74603   0.97065   0.61500   0.00000  Uiso   1.00
H2058  H     0.76552   0.99347   0.63674   0.00000  Uiso   1.00
H2059  H     0.75516   0.97612   0.57925   0.00000  Uiso   1.00
C2060  C     0.70034   0.98312   0.62065   0.00000  Uiso   1.00
H2061  H     0.68022   0.96074   0.59921   0.00000  Uiso   1.00
H2062  H     0.69574   0.68564   0.61019   0.00000  Uiso   1.00
H2063  H     0.69100   0.97964   0.65652   0.00000  Uiso   1.00
O2064  O     0.78480   0.75949   0.87846   0.00000  Uiso   1.00
C2065  C     0.74767   0.76658   0.85363   0.00000  Uiso   1.00
H2066  H     0.74949   0.74581   0.82224   0.00000  Uiso   1.00
H2067  H     0.74375   0.80244   0.84273   0.00000  Uiso   1.00
C2068  C     0.70942   0.75064   0.88018   0.00000  Uiso   1.00
H2069  H     0.71407   0.71511   0.89182   0.00000  Uiso   1.00
H2070  H     0.70521   0.77294   0.91024   0.00000  Uiso   1.00
C2071  C     0.67011   0.75225   0.85101   0.00000  Uiso   1.00
H2072  H     0.99804   0.78749   0.83902   0.00000  Uiso   1.00
H2073  H     0.97613   0.74104   0.87117   0.00000  Uiso   1.00
H2074  H     0.67305   0.72915   0.82134   0.00000  Uiso   1.00
O2075  O     0.84677   0.91194   0.89144   0.00000  Uiso   1.00
C2076  C     0.89012   0.91151   0.89926   0.00000  Uiso   1.00
H2077  H     0.90386   0.87832   0.88875   0.00000  Uiso   1.00
H2078  H     0.89679   0.91780   0.93572   0.00000  Uiso   1.00
C2079  C     0.91042   0.94938   0.87141   0.00000  Uiso   1.00
H2080  H     0.90515   0.94227   0.83488   0.00000  Uiso   1.00
H2081  H     0.89588   0.98255   0.87989   0.00000  Uiso   1.00
C2082  C     0.95713   0.95284   0.88043   0.00000  Uiso   1.00
H2083  H     0.96313   0.96233   0.91626   0.00000  Uiso   1.00
H2084  H     0.97118   0.97936   0.85844   0.00000  Uiso   1.00
H2085  H     0.97202   0.91973   0.87298   0.00000  Uiso   1.00
O2086  O     0.84338   0.75419   0.60507   0.00000  Uiso   1.00
C2087  C     0.88722   0.75444   0.60009   0.00000  Uiso   1.00
H2088  H     0.89927   0.72815   0.62328   0.00000  Uiso   1.00
H2089  H     0.90170   0.78773   0.61024   0.00000  Uiso   1.00
C2090  C     0.90077   0.74090   0.55221   0.00000  Uiso   1.00
H2091  H     0.88301   0.71010   0.54096   0.00000  Uiso   1.00
H2092  H     0.89444   0.76914   0.52846   0.00000  Uiso   1.00
C2093  C     0.94729   0.73075   0.55071   0.00000  Uiso   1.00
H2094  H     0.96571   0.76098   0.56218   0.00000  Uiso   1.00
H2095  H     0.95645   0.72214   0.51557   0.00000  Uiso   1.00
H2096  H     0.95456   0.70135   0.57272   0.00000  Uiso   1.00
C2097  C     0.71234   0.75733   0.69537   0.00000  Uiso   1.00
C2098  C     0.73239   0.77559   0.65241   0.00000  Uiso   1.00
H2099  H     0.70800   0.78199   0.62659   0.00000  Uiso   1.00
H2100  H     0.74920   0.80804   0.65914   0.00000  Uiso   1.00
H2101  H     0.75453   0.75026   0.63871   0.00000  Uiso   1.00
H2102  H     0.73492   0.74002   0.71737   0.00000  Uiso   1.00
H2103  H     0.69335   0.72772   0.68491   0.00000  Uiso   1.00
C2104  C     0.96276   0.92155   0.72226   0.00000  Uiso   1.00
C2105  C     0.94658   0.91882   0.67358   0.00000  Uiso   1.00
H2106  H     0.97099   0.90484   0.65106   0.00000  Uiso   1.00
H2107  H     0.91834   0.89686   0.67093   0.00000  Uiso   1.00
H2108  H     0.93844   0.95336   0.66162   0.00000  Uiso   1.00
H2109  H     0.93877   0.93538   0.74527   0.00000  Uiso   1.00
H2110  H     0.98831   0.94734   0.72191   0.00000  Uiso   1.00
C2111  C     0.95351   0.75509   0.69616   0.00000  Uiso   1.00
C2112  C     0.95070   0.71396   0.72766   0.00000  Uiso   1.00
H2113  H     0.98194   0.70115   0.73674   0.00000  Uiso   1.00
H2114  H     0.93438   0.72289   0.75941   0.00000  Uiso   1.00
H2115  H     0.93298   0.68612   0.71062   0.00000  Uiso   1.00
H2116  H     0.92183   0.76501   0.68610   0.00000  Uiso   1.00
H2117  H     0.96699   0.74543   0.66308   0.00000  Uiso   1.00
C2118  C     0.70248   0.91119   0.78502   0.00000  Uiso   1.00
C2119  C     0.71713   0.89491   0.83135   0.00000  Uiso   1.00
H2120  H     0.69470   0.86974   0.84548   0.00000  Uiso   1.00
H2121  H     0.74840   0.87970   0.82950   0.00000  Uiso   1.00
H2122  H     0.71952   0.92444   0.85493   0.00000  Uiso   1.00
H2123  H     0.72713   0.93145   0.76799   0.00000  Uiso   1.00
H2124  H     0.67737   0.93582   0.79245   0.00000  Uiso   1.00
loop_
_geom_bond_atom_site_label_1
_geom_bond_atom_site_label_2
_geom_bond_distance
_geom_bond_site_symmetry_2
_ccdc_geom_bond_type
C1     O40     1.280   .     A
C1     O37     1.284   .     A
C1     C26     1.444   .     S
C2     O39     1.281   .     A
C2     O38     1.285   .     A
C2     C25     1.447   .     S
C3     O41     1.286   .     A
C3     O44     1.291   .     A
C3     C21     1.465   .     S
C4     C22     1.457   .     S
C4     O43     1.284   .     A
C4     O42     1.287   .     A
C5     N36     1.365   .     A
C5     H27     1.076   .     S
C5     C716    1.408   1_545 S
C6     N35     1.365   .     A
C6     H28     1.080   .     S
C6     C361    1.409   .     S
C7     H29     1.077   .     S
C7     N36     1.364   .     A
C7     C714    1.409   1_545 S
C8     N35     1.363   .     A
C8     H30     1.080   .     S
C8     C359    1.408   .     S
C9     C91     1.540   .     S
C9     C26     1.437   .     A
C9     C247    1.408   1_455 S
C10    C98     1.530   .     S
C10    C25     1.403   .     A
C10    C130    1.382   .     S
C11    C25     1.415   .     A
C11    C105    1.527   .     S
C11    C127    1.408   .     S
C12    C26     1.422   .     A
C12    C112    1.537   .     S
C12    C246    1.382   1_455 S
C13    C23     1.393   .     A
C13    H31     1.084   .     S
C13    C17     1.392   .     A
C14    C18     1.388   .     A
C14    C24     1.396   .     A
C14    H32     1.084   .     S
C15    C19     1.385   .     A
C15    C24     1.399   .     A
C15    H33     1.083   .     S
C16    H34     1.083   .     S
C16    C20     1.386   .     A
C16    C23     1.395   .     A
C17    C21     1.419   .     A
C17    O47     1.386   .     S
C18    O58     1.384   .     S
C18    C22     1.418   .     A
C19    C22     1.411   .     A
C19    O69     1.383   .     S
C20    O80     1.383   .     S
C20    C21     1.415   .     A
C23    C1086   1.456   1_554 S
C24    C1085   1.456   .     S
N35    Zn45    1.996   .     S
N36    Zn46    1.996   .     S
O37    Zn45    1.993   .     S
O38    Zn46    1.993   .     S
O39    Zn45    2.001   .     S
O40    Zn46    2.001   .     S
O41    Zn45    1.972   .     S
O42    Zn46    1.972   .     S
O43    Zn45    1.977   .     S
O44    Zn46    1.977   .     S
O47    C48     1.417   .     S
C48    C51     1.529   .     S
C48    H50     1.118   .     S
C48    H49     1.112   .     S
C51    H52     1.112   .     S
C51    H53     1.111   .     S
C51    C54     1.525   .     S
C54    H55     1.111   .     S
C54    H57     1.109   .     S
C54    H410    1.110   .     S
H56    C762    1.110   1_545 S
O58    C59     1.417   .     S
C59    H60     1.110   .     S
C59    H61     1.111   .     S
C59    C62     1.531   .     S
C62    H64     1.111   .     S
C62    H63     1.112   .     S
C62    C65     1.528   .     S
C65    H68     1.111   .     S
C65    H302    1.111   1_455 S
C65    H303    1.110   1_455 S
H66    C183    1.111   .     S
H67    C183    1.110   .     S
O69    C70     1.410   .     S
C70    H71     1.116   .     S
C70    C73     1.529   .     S
C70    H72     1.114   .     S
C73    H75     1.112   .     S
C73    H74     1.112   .     S
C73    C76     1.524   .     S
C76    H79     1.109   .     S
C76    H77     1.111   .     S
C76    H78     1.111   .     S
O80    C81     1.416   .     S
C81    H82     1.108   .     S
C81    H83     1.116   .     S
C81    C84     1.536   .     S
C84    C87     1.527   .     S
C84    H86     1.110   .     S
C84    H85     1.112   .     S
C87    H88     1.111   .     S
C87    H89     1.110   .     S
C87    H90     1.111   .     S
C91    H96     1.103   .     S
C91    C92     1.525   .     S
C91    H97     1.098   .     S
C92    H95     1.110   .     S
C92    H94     1.106   .     S
C92    H93     1.111   .     S
C98    H103    1.109   .     S
C98    C99     1.532   .     S
C98    H104    1.110   .     S
C99    H100    1.111   .     S
C99    H101    1.108   .     S
C99    H102    1.110   .     S
C105   H110    1.102   .     S
C105   H111    1.109   .     S
C105   C106    1.532   .     S
C106   H108    1.109   .     S
C106   H107    1.108   .     S
C106   H109    1.108   .     S
C112   H117    1.109   .     S
C112   C113    1.530   .     S
C112   H118    1.111   .     S
C113   H116    1.111   .     S
C113   H114    1.110   .     S
C113   H115    1.105   .     S
C119   O158    1.280   .     A
C119   O155    1.284   .     A
C119   C144    1.444   .     S
C120   O157    1.281   .     A
C120   O156    1.285   .     A
C120   C143    1.447   .     S
C121   O159    1.286   .     A
C121   O162    1.291   .     A
C121   C139    1.465   .     S
C122   C140    1.457   .     S
C122   O161    1.284   .     A
C122   O160    1.287   .     A
C123   N154    1.365   .     A
C123   H145    1.076   .     S
C123   C834    1.408   1_545 S
C124   N153    1.365   .     A
C124   H146    1.080   .     S
C124   C479    1.409   .     S
C125   H147    1.077   .     S
C125   N154    1.364   .     A
C125   C832    1.409   1_545 S
C126   N153    1.363   .     A
C126   H148    1.080   .     S
C126   C477    1.408   .     S
C127   C209    1.540   .     S
C127   C144    1.437   .     A
C128   C216    1.530   .     S
C128   C143    1.403   .     A
C128   C248    1.382   .     S
C129   C143    1.415   .     A
C129   C223    1.527   .     S
C129   C245    1.408   .     S
C130   C144    1.422   .     A
C130   C230    1.537   .     S
C131   C141    1.393   .     A
C131   H149    1.084   .     S
C131   C135    1.392   .     A
C132   C136    1.388   .     A
C132   C142    1.396   .     A
C132   H150    1.084   .     S
C133   C137    1.385   .     A
C133   C142    1.399   .     A
C133   H151    1.083   .     S
C134   H152    1.083   .     S
C134   C138    1.386   .     A
C134   C141    1.395   .     A
C135   C139    1.419   .     A
C135   O165    1.386   .     S
C136   O176    1.384   .     S
C136   C140    1.418   .     A
C137   C140    1.411   .     A
C137   O187    1.383   .     S
C138   O198    1.383   .     S
C138   C139    1.415   .     A
C141   C1204   1.456   1_554 S
C142   C1203   1.456   .     S
N153   Zn163   1.996   .     S
N154   Zn164   1.996   .     S
O155   Zn163   1.993   .     S
O156   Zn164   1.993   .     S
O157   Zn163   2.001   .     S
O158   Zn164   2.001   .     S
O159   Zn163   1.972   .     S
O160   Zn164   1.972   .     S
O161   Zn163   1.977   .     S
O162   Zn164   1.977   .     S
O165   C166    1.417   .     S
C166   C169    1.529   .     S
C166   H168    1.118   .     S
C166   H167    1.112   .     S
C169   H170    1.112   .     S
C169   H171    1.111   .     S
C169   C172    1.525   .     S
C172   H173    1.111   .     S
C172   H175    1.109   .     S
C172   H528    1.110   .     S
H174   C880    1.110   1_545 S
O176   C177    1.417   .     S
C177   H178    1.110   .     S
C177   H179    1.111   .     S
C177   C180    1.531   .     S
C180   H182    1.111   .     S
C180   H181    1.112   .     S
C180   C183    1.528   .     S
C183   H186    1.111   .     S
H184   C301    1.111   .     S
H185   C301    1.110   .     S
O187   C188    1.410   .     S
C188   H189    1.116   .     S
C188   C191    1.529   .     S
C188   H190    1.114   .     S
C191   H193    1.112   .     S
C191   H192    1.112   .     S
C191   C194    1.524   .     S
C194   H197    1.109   .     S
C194   H195    1.111   .     S
C194   H196    1.111   .     S
O198   C199    1.416   .     S
C199   H200    1.108   .     S
C199   H201    1.116   .     S
C199   C202    1.536   .     S
C202   C205    1.527   .     S
C202   H204    1.110   .     S
C202   H203    1.112   .     S
C205   H206    1.111   .     S
C205   H207    1.110   .     S
C205   H208    1.111   .     S
C209   H214    1.103   .     S
C209   C210    1.525   .     S
C209   H215    1.098   .     S
C210   H213    1.110   .     S
C210   H212    1.106   .     S
C210   H211    1.111   .     S
C216   H221    1.109   .     S
C216   C217    1.532   .     S
C216   H222    1.110   .     S
C217   H218    1.111   .     S
C217   H219    1.108   .     S
C217   H220    1.110   .     S
C223   H228    1.102   .     S
C223   H229    1.109   .     S
C223   C224    1.532   .     S
C224   H226    1.109   .     S
C224   H225    1.108   .     S
C224   H227    1.108   .     S
C230   H235    1.109   .     S
C230   C231    1.530   .     S
C230   H236    1.111   .     S
C231   H234    1.111   .     S
C231   H232    1.110   .     S
C231   H233    1.105   .     S
C237   O276    1.280   .     A
C237   O273    1.284   .     A
C237   C262    1.444   .     S
C238   O275    1.281   .     A
C238   O274    1.285   .     A
C238   C261    1.447   .     S
C239   O277    1.286   .     A
C239   O280    1.291   .     A
C239   C257    1.465   .     S
C240   C258    1.457   .     S
C240   O279    1.284   .     A
C240   O278    1.287   .     A
C241   N272    1.365   .     A
C241   H263    1.076   .     S
C241   C952    1.408   1_545 S
C242   N271    1.365   .     A
C242   H264    1.080   .     S
C242   C597    1.409   .     S
C243   H265    1.077   .     S
C243   N272    1.364   .     A
C243   C950    1.409   1_545 S
C244   N271    1.363   .     A
C244   H266    1.080   .     S
C244   C595    1.408   .     S
C245   C327    1.540   .     S
C245   C262    1.437   .     A
C246   C334    1.530   .     S
C246   C261    1.403   .     A
C246   C12     1.382   1_655 S
C247   C261    1.415   .     A
C247   C341    1.527   .     S
C247   C9      1.408   1_655 S
C248   C262    1.422   .     A
C248   C348    1.537   .     S
C249   C259    1.393   .     A
C249   H267    1.084   .     S
C249   C253    1.392   .     A
C250   C254    1.388   .     A
C250   C260    1.396   .     A
C250   H268    1.084   .     S
C251   C255    1.385   .     A
C251   C260    1.399   .     A
C251   H269    1.083   .     S
C252   H270    1.083   .     S
C252   C256    1.386   .     A
C252   C259    1.395   .     A
C253   C257    1.419   .     A
C253   O283    1.386   .     S
C254   O294    1.384   .     S
C254   C258    1.418   .     A
C255   C258    1.411   .     A
C255   O305    1.383   .     S
C256   O316    1.383   .     S
C256   C257    1.415   .     A
C259   C1322   1.456   1_554 S
C260   C1321   1.456   .     S
N271   Zn281   1.996   .     S
N272   Zn282   1.996   .     S
O273   Zn281   1.993   .     S
O274   Zn282   1.993   .     S
O275   Zn281   2.001   .     S
O276   Zn282   2.001   .     S
O277   Zn281   1.972   .     S
O278   Zn282   1.972   .     S
O279   Zn281   1.977   .     S
O280   Zn282   1.977   .     S
O283   C284    1.417   .     S
C284   C287    1.529   .     S
C284   H286    1.118   .     S
C284   H285    1.112   .     S
C287   H288    1.112   .     S
C287   H289    1.111   .     S
C287   C290    1.525   .     S
C290   H291    1.111   .     S
C290   H293    1.109   .     S
C290   H646    1.110   .     S
H292   C998    1.110   1_545 S
O294   C295    1.417   .     S
C295   H296    1.110   .     S
C295   H297    1.111   .     S
C295   C298    1.531   .     S
C298   H300    1.111   .     S
C298   H299    1.112   .     S
C298   C301    1.528   .     S
C301   H304    1.111   .     S
H302   C65     1.111   1_655 S
H303   C65     1.110   1_655 S
O305   C306    1.410   .     S
C306   H307    1.116   .     S
C306   C309    1.529   .     S
C306   H308    1.114   .     S
C309   H311    1.112   .     S
C309   H310    1.112   .     S
C309   C312    1.524   .     S
C312   H315    1.109   .     S
C312   H313    1.111   .     S
C312   H314    1.111   .     S
O316   C317    1.416   .     S
C317   H318    1.108   .     S
C317   H319    1.116   .     S
C317   C320    1.536   .     S
C320   C323    1.527   .     S
C320   H322    1.110   .     S
C320   H321    1.112   .     S
C323   H324    1.111   .     S
C323   H325    1.110   .     S
C323   H326    1.111   .     S
C327   H332    1.103   .     S
C327   C328    1.525   .     S
C327   H333    1.098   .     S
C328   H331    1.110   .     S
C328   H330    1.106   .     S
C328   H329    1.111   .     S
C334   H339    1.109   .     S
C334   C335    1.532   .     S
C334   H340    1.110   .     S
C335   H336    1.111   .     S
C335   H337    1.108   .     S
C335   H338    1.110   .     S
C341   H346    1.102   .     S
C341   H347    1.109   .     S
C341   C342    1.532   .     S
C342   H344    1.109   .     S
C342   H343    1.108   .     S
C342   H345    1.108   .     S
C348   H353    1.109   .     S
C348   C349    1.530   .     S
C348   H354    1.111   .     S
C349   H352    1.111   .     S
C349   H350    1.110   .     S
C349   H351    1.105   .     S
C355   O394    1.280   .     A
C355   O391    1.284   .     A
C355   C380    1.444   .     S
C356   O393    1.281   .     A
C356   O392    1.285   .     A
C356   C379    1.447   .     S
C357   O395    1.286   .     A
C357   O398    1.291   .     A
C357   C375    1.465   .     S
C358   C376    1.457   .     S
C358   O397    1.284   .     A
C358   O396    1.287   .     A
C359   N390    1.365   .     A
C359   H381    1.076   .     S
C360   N389    1.365   .     A
C360   H382    1.080   .     S
C360   C715    1.409   .     S
C361   H383    1.077   .     S
C361   N390    1.364   .     A
C362   N389    1.363   .     A
C362   H384    1.080   .     S
C362   C713    1.408   .     S
C363   C445    1.540   .     S
C363   C380    1.437   .     A
C363   C601    1.408   1_455 S
C364   C452    1.530   .     S
C364   C379    1.403   .     A
C364   C484    1.382   .     S
C365   C379    1.415   .     A
C365   C459    1.527   .     S
C365   C481    1.408   .     S
C366   C380    1.422   .     A
C366   C466    1.537   .     S
C366   C600    1.382   1_455 S
C367   C377    1.393   .     A
C367   H385    1.084   .     S
C367   C371    1.392   .     A
C368   C372    1.388   .     A
C368   C378    1.396   .     A
C368   H386    1.084   .     S
C369   C373    1.385   .     A
C369   C378    1.399   .     A
C369   H387    1.083   .     S
C370   H388    1.083   .     S
C370   C374    1.386   .     A
C370   C377    1.395   .     A
C371   C375    1.419   .     A
C371   O401    1.386   .     S
C372   O412    1.384   .     S
C372   C376    1.418   .     A
C373   C376    1.411   .     A
C373   O423    1.383   .     S
C374   O434    1.383   .     S
C374   C375    1.415   .     A
C377   C1440   1.456   1_554 S
C378   C1439   1.456   .     S
N389   Zn399   1.996   .     S
N390   Zn400   1.996   .     S
O391   Zn399   1.993   .     S
O392   Zn400   1.993   .     S
O393   Zn399   2.001   .     S
O394   Zn400   2.001   .     S
O395   Zn399   1.972   .     S
O396   Zn400   1.972   .     S
O397   Zn399   1.977   .     S
O398   Zn400   1.977   .     S
O401   C402    1.417   .     S
C402   C405    1.529   .     S
C402   H404    1.118   .     S
C402   H403    1.112   .     S
C405   H406    1.112   .     S
C405   H407    1.111   .     S
C405   C408    1.525   .     S
C408   H409    1.111   .     S
C408   H411    1.109   .     S
C408   H764    1.110   .     S
O412   C413    1.417   .     S
C413   H414    1.110   .     S
C413   H415    1.111   .     S
C413   C416    1.531   .     S
C416   H418    1.111   .     S
C416   H417    1.112   .     S
C416   C419    1.528   .     S
C419   H422    1.111   .     S
C419   H656    1.111   1_455 S
C419   H657    1.110   1_455 S
H420   C537    1.111   .     S
H421   C537    1.110   .     S
O423   C424    1.410   .     S
C424   H425    1.116   .     S
C424   C427    1.529   .     S
C424   H426    1.114   .     S
C427   H429    1.112   .     S
C427   H428    1.112   .     S
C427   C430    1.524   .     S
C430   H433    1.109   .     S
C430   H431    1.111   .     S
C430   H432    1.111   .     S
O434   C435    1.416   .     S
C435   H436    1.108   .     S
C435   H437    1.116   .     S
C435   C438    1.536   .     S
C438   C441    1.527   .     S
C438   H440    1.110   .     S
C438   H439    1.112   .     S
C441   H442    1.111   .     S
C441   H443    1.110   .     S
C441   H444    1.111   .     S
C445   H450    1.103   .     S
C445   C446    1.525   .     S
C445   H451    1.098   .     S
C446   H449    1.110   .     S
C446   H448    1.106   .     S
C446   H447    1.111   .     S
C452   H457    1.109   .     S
C452   C453    1.532   .     S
C452   H458    1.110   .     S
C453   H454    1.111   .     S
C453   H455    1.108   .     S
C453   H456    1.110   .     S
C459   H464    1.102   .     S
C459   H465    1.109   .     S
C459   C460    1.532   .     S
C460   H462    1.109   .     S
C460   H461    1.108   .     S
C460   H463    1.108   .     S
C466   H471    1.109   .     S
C466   C467    1.530   .     S
C466   H472    1.111   .     S
C467   H470    1.111   .     S
C467   H468    1.110   .     S
C467   H469    1.105   .     S
C473   O512    1.280   .     A
C473   O509    1.284   .     A
C473   C498    1.444   .     S
C474   O511    1.281   .     A
C474   O510    1.285   .     A
C474   C497    1.447   .     S
C475   O513    1.286   .     A
C475   O516    1.291   .     A
C475   C493    1.465   .     S
C476   C494    1.457   .     S
C476   O515    1.284   .     A
C476   O514    1.287   .     A
C477   N508    1.365   .     A
C477   H499    1.076   .     S
C478   N507    1.365   .     A
C478   H500    1.080   .     S
C478   C833    1.409   .     S
C479   H501    1.077   .     S
C479   N508    1.364   .     A
C480   N507    1.363   .     A
C480   H502    1.080   .     S
C480   C831    1.408   .     S
C481   C563    1.540   .     S
C481   C498    1.437   .     A
C482   C570    1.530   .     S
C482   C497    1.403   .     A
C482   C602    1.382   .     S
C483   C497    1.415   .     A
C483   C577    1.527   .     S
C483   C599    1.408   .     S
C484   C498    1.422   .     A
C484   C584    1.537   .     S
C485   C495    1.393   .     A
C485   H503    1.084   .     S
C485   C489    1.392   .     A
C486   C490    1.388   .     A
C486   C496    1.396   .     A
C486   H504    1.084   .     S
C487   C491    1.385   .     A
C487   C496    1.399   .     A
C487   H505    1.083   .     S
C488   H506    1.083   .     S
C488   C492    1.386   .     A
C488   C495    1.395   .     A
C489   C493    1.419   .     A
C489   O519    1.386   .     S
C490   O530    1.384   .     S
C490   C494    1.418   .     A
C491   C494    1.411   .     A
C491   O541    1.383   .     S
C492   O552    1.383   .     S
C492   C493    1.415   .     A
C495   C1558   1.456   1_554 S
C496   C1557   1.456   .     S
N507   Zn517   1.996   .     S
N508   Zn518   1.996   .     S
O509   Zn517   1.993   .     S
O510   Zn518   1.993   .     S
O511   Zn517   2.001   .     S
O512   Zn518   2.001   .     S
O513   Zn517   1.972   .     S
O514   Zn518   1.972   .     S
O515   Zn517   1.977   .     S
O516   Zn518   1.977   .     S
O519   C520    1.417   .     S
C520   C523    1.529   .     S
C520   H522    1.118   .     S
C520   H521    1.112   .     S
C523   H524    1.112   .     S
C523   H525    1.111   .     S
C523   C526    1.525   .     S
C526   H527    1.111   .     S
C526   H529    1.109   .     S
C526   H882    1.110   .     S
O530   C531    1.417   .     S
C531   H532    1.110   .     S
C531   H533    1.111   .     S
C531   C534    1.531   .     S
C534   H536    1.111   .     S
C534   H535    1.112   .     S
C534   C537    1.528   .     S
C537   H540    1.111   .     S
H538   C655    1.111   .     S
H539   C655    1.110   .     S
O541   C542    1.410   .     S
C542   H543    1.116   .     S
C542   C545    1.529   .     S
C542   H544    1.114   .     S
C545   H547    1.112   .     S
C545   H546    1.112   .     S
C545   C548    1.524   .     S
C548   H551    1.109   .     S
C548   H549    1.111   .     S
C548   H550    1.111   .     S
O552   C553    1.416   .     S
C553   H554    1.108   .     S
C553   H555    1.116   .     S
C553   C556    1.536   .     S
C556   C559    1.527   .     S
C556   H558    1.110   .     S
C556   H557    1.112   .     S
C559   H560    1.111   .     S
C559   H561    1.110   .     S
C559   H562    1.111   .     S
C563   H568    1.103   .     S
C563   C564    1.525   .     S
C563   H569    1.098   .     S
C564   H567    1.110   .     S
C564   H566    1.106   .     S
C564   H565    1.111   .     S
C570   H575    1.109   .     S
C570   C571    1.532   .     S
C570   H576    1.110   .     S
C571   H572    1.111   .     S
C571   H573    1.108   .     S
C571   H574    1.110   .     S
C577   H582    1.102   .     S
C577   H583    1.109   .     S
C577   C578    1.532   .     S
C578   H580    1.109   .     S
C578   H579    1.108   .     S
C578   H581    1.108   .     S
C584   H589    1.109   .     S
C584   C585    1.530   .     S
C584   H590    1.111   .     S
C585   H588    1.111   .     S
C585   H586    1.110   .     S
C585   H587    1.105   .     S
C591   O630    1.280   .     A
C591   O627    1.284   .     A
C591   C616    1.444   .     S
C592   O629    1.281   .     A
C592   O628    1.285   .     A
C592   C615    1.447   .     S
C593   O631    1.286   .     A
C593   O634    1.291   .     A
C593   C611    1.465   .     S
C594   C612    1.457   .     S
C594   O633    1.284   .     A
C594   O632    1.287   .     A
C595   N626    1.365   .     A
C595   H617    1.076   .     S
C596   N625    1.365   .     A
C596   H618    1.080   .     S
C596   C951    1.409   .     S
C597   H619    1.077   .     S
C597   N626    1.364   .     A
C598   N625    1.363   .     A
C598   H620    1.080   .     S
C598   C949    1.408   .     S
C599   C681    1.540   .     S
C599   C616    1.437   .     A
C600   C688    1.530   .     S
C600   C615    1.403   .     A
C600   C366    1.382   1_655 S
C601   C615    1.415   .     A
C601   C695    1.527   .     S
C601   C363    1.408   1_655 S
C602   C616    1.422   .     A
C602   C702    1.537   .     S
C603   C613    1.393   .     A
C603   H621    1.084   .     S
C603   C607    1.392   .     A
C604   C608    1.388   .     A
C604   C614    1.396   .     A
C604   H622    1.084   .     S
C605   C609    1.385   .     A
C605   C614    1.399   .     A
C605   H623    1.083   .     S
C606   H624    1.083   .     S
C606   C610    1.386   .     A
C606   C613    1.395   .     A
C607   C611    1.419   .     A
C607   O637    1.386   .     S
C608   O648    1.384   .     S
C608   C612    1.418   .     A
C609   C612    1.411   .     A
C609   O659    1.383   .     S
C610   O670    1.383   .     S
C610   C611    1.415   .     A
C613   C1676   1.456   1_554 S
C614   C1675   1.456   .     S
N625   Zn635   1.996   .     S
N626   Zn636   1.996   .     S
O627   Zn635   1.993   .     S
O628   Zn636   1.993   .     S
O629   Zn635   2.001   .     S
O630   Zn636   2.001   .     S
O631   Zn635   1.972   .     S
O632   Zn636   1.972   .     S
O633   Zn635   1.977   .     S
O634   Zn636   1.977   .     S
O637   C638    1.417   .     S
C638   C641    1.529   .     S
C638   H640    1.118   .     S
C638   H639    1.112   .     S
C641   H642    1.112   .     S
C641   H643    1.111   .     S
C641   C644    1.525   .     S
C644   H645    1.111   .     S
C644   H647    1.109   .     S
C644   H1000   1.110   .     S
O648   C649    1.417   .     S
C649   H650    1.110   .     S
C649   H651    1.111   .     S
C649   C652    1.531   .     S
C652   H654    1.111   .     S
C652   H653    1.112   .     S
C652   C655    1.528   .     S
C655   H658    1.111   .     S
H656   C419    1.111   1_655 S
H657   C419    1.110   1_655 S
O659   C660    1.410   .     S
C660   H661    1.116   .     S
C660   C663    1.529   .     S
C660   H662    1.114   .     S
C663   H665    1.112   .     S
C663   H664    1.112   .     S
C663   C666    1.524   .     S
C666   H669    1.109   .     S
C666   H667    1.111   .     S
C666   H668    1.111   .     S
O670   C671    1.416   .     S
C671   H672    1.108   .     S
C671   H673    1.116   .     S
C671   C674    1.536   .     S
C674   C677    1.527   .     S
C674   H676    1.110   .     S
C674   H675    1.112   .     S
C677   H678    1.111   .     S
C677   H679    1.110   .     S
C677   H680    1.111   .     S
C681   H686    1.103   .     S
C681   C682    1.525   .     S
C681   H687    1.098   .     S
C682   H685    1.110   .     S
C682   H684    1.106   .     S
C682   H683    1.111   .     S
C688   H693    1.109   .     S
C688   C689    1.532   .     S
C688   H694    1.110   .     S
C689   H690    1.111   .     S
C689   H691    1.108   .     S
C689   H692    1.110   .     S
C695   H700    1.102   .     S
C695   H701    1.109   .     S
C695   C696    1.532   .     S
C696   H698    1.109   .     S
C696   H697    1.108   .     S
C696   H699    1.108   .     S
C702   H707    1.109   .     S
C702   C703    1.530   .     S
C702   H708    1.111   .     S
C703   H706    1.111   .     S
C703   H704    1.110   .     S
C703   H705    1.105   .     S
C709   O748    1.280   .     A
C709   O745    1.284   .     A
C709   C734    1.444   .     S
C710   O747    1.281   .     A
C710   O746    1.285   .     A
C710   C733    1.447   .     S
C711   O749    1.286   .     A
C711   O752    1.291   .     A
C711   C729    1.465   .     S
C712   C730    1.457   .     S
C712   O751    1.284   .     A
C712   O750    1.287   .     A
C713   N744    1.365   .     A
C713   H735    1.076   .     S
C714   N743    1.365   .     A
C714   H736    1.080   .     S
C714   C7      1.409   1_565 S
C715   H737    1.077   .     S
C715   N744    1.364   .     A
C716   N743    1.363   .     A
C716   H738    1.080   .     S
C716   C5      1.408   1_565 S
C717   C799    1.540   .     S
C717   C734    1.437   .     A
C717   C955    1.408   1_455 S
C718   C806    1.530   .     S
C718   C733    1.403   .     A
C718   C838    1.382   .     S
C719   C733    1.415   .     A
C719   C813    1.527   .     S
C719   C835    1.408   .     S
C720   C734    1.422   .     A
C720   C820    1.537   .     S
C720   C954    1.382   1_455 S
C721   C731    1.393   .     A
C721   H739    1.084   .     S
C721   C725    1.392   .     A
C722   C726    1.388   .     A
C722   C732    1.396   .     A
C722   H740    1.084   .     S
C723   C727    1.385   .     A
C723   C732    1.399   .     A
C723   H741    1.083   .     S
C724   H742    1.083   .     S
C724   C728    1.386   .     A
C724   C731    1.395   .     A
C725   C729    1.419   .     A
C725   O755    1.386   .     S
C726   O766    1.384   .     S
C726   C730    1.418   .     A
C727   C730    1.411   .     A
C727   O777    1.383   .     S
C728   O788    1.383   .     S
C728   C729    1.415   .     A
C731   C1794   1.456   1_554 S
C732   C1793   1.456   .     S
N743   Zn753   1.996   .     S
N744   Zn754   1.996   .     S
O745   Zn753   1.993   .     S
O746   Zn754   1.993   .     S
O747   Zn753   2.001   .     S
O748   Zn754   2.001   .     S
O749   Zn753   1.972   .     S
O750   Zn754   1.972   .     S
O751   Zn753   1.977   .     S
O752   Zn754   1.977   .     S
O755   C756    1.417   .     S
C756   C759    1.529   .     S
C756   H758    1.118   .     S
C756   H757    1.112   .     S
C759   H760    1.112   .     S
C759   H761    1.111   .     S
C759   C762    1.525   .     S
C762   H763    1.111   .     S
C762   H765    1.109   .     S
C762   H56     1.110   1_565 S
O766   C767    1.417   .     S
C767   H768    1.110   .     S
C767   H769    1.111   .     S
C767   C770    1.531   .     S
C770   H772    1.111   .     S
C770   H771    1.112   .     S
C770   C773    1.528   .     S
C773   H776    1.111   .     S
C773   H1010   1.111   1_455 S
C773   H1011   1.110   1_455 S
H774   C891    1.111   .     S
H775   C891    1.110   .     S
O777   C778    1.410   .     S
C778   H779    1.116   .     S
C778   C781    1.529   .     S
C778   H780    1.114   .     S
C781   H783    1.112   .     S
C781   H782    1.112   .     S
C781   C784    1.524   .     S
C784   H787    1.109   .     S
C784   H785    1.111   .     S
C784   H786    1.111   .     S
O788   C789    1.416   .     S
C789   H790    1.108   .     S
C789   H791    1.116   .     S
C789   C792    1.536   .     S
C792   C795    1.527   .     S
C792   H794    1.110   .     S
C792   H793    1.112   .     S
C795   H796    1.111   .     S
C795   H797    1.110   .     S
C795   H798    1.111   .     S
C799   H804    1.103   .     S
C799   C800    1.525   .     S
C799   H805    1.098   .     S
C800   H803    1.110   .     S
C800   H802    1.106   .     S
C800   H801    1.111   .     S
C806   H811    1.109   .     S
C806   C807    1.532   .     S
C806   H812    1.110   .     S
C807   H808    1.111   .     S
C807   H809    1.108   .     S
C807   H810    1.110   .     S
C813   H818    1.102   .     S
C813   H819    1.109   .     S
C813   C814    1.532   .     S
C814   H816    1.109   .     S
C814   H815    1.108   .     S
C814   H817    1.108   .     S
C820   H825    1.109   .     S
C820   C821    1.530   .     S
C820   H826    1.111   .     S
C821   H824    1.111   .     S
C821   H822    1.110   .     S
C821   H823    1.105   .     S
C827   O866    1.280   .     A
C827   O863    1.284   .     A
C827   C852    1.444   .     S
C828   O865    1.281   .     A
C828   O864    1.285   .     A
C828   C851    1.447   .     S
C829   O867    1.286   .     A
C829   O870    1.291   .     A
C829   C847    1.465   .     S
C830   C848    1.457   .     S
C830   O869    1.284   .     A
C830   O868    1.287   .     A
C831   N862    1.365   .     A
C831   H853    1.076   .     S
C832   N861    1.365   .     A
C832   H854    1.080   .     S
C832   C125    1.409   1_565 S
C833   H855    1.077   .     S
C833   N862    1.364   .     A
C834   N861    1.363   .     A
C834   H856    1.080   .     S
C834   C123    1.408   1_565 S
C835   C917    1.540   .     S
C835   C852    1.437   .     A
C836   C924    1.530   .     S
C836   C851    1.403   .     A
C836   C956    1.382   .     S
C837   C851    1.415   .     A
C837   C931    1.527   .     S
C837   C953    1.408   .     S
C838   C852    1.422   .     A
C838   C938    1.537   .     S
C839   C849    1.393   .     A
C839   H857    1.084   .     S
C839   C843    1.392   .     A
C840   C844    1.388   .     A
C840   C850    1.396   .     A
C840   H858    1.084   .     S
C841   C845    1.385   .     A
C841   C850    1.399   .     A
C841   H859    1.083   .     S
C842   H860    1.083   .     S
C842   C846    1.386   .     A
C842   C849    1.395   .     A
C843   C847    1.419   .     A
C843   O873    1.386   .     S
C844   O884    1.384   .     S
C844   C848    1.418   .     A
C845   C848    1.411   .     A
C845   O895    1.383   .     S
C846   O906    1.383   .     S
C846   C847    1.415   .     A
C849   C1912   1.456   1_554 S
C850   C1911   1.456   .     S
N861   Zn871   1.996   .     S
N862   Zn872   1.996   .     S
O863   Zn871   1.993   .     S
O864   Zn872   1.993   .     S
O865   Zn871   2.001   .     S
O866   Zn872   2.001   .     S
O867   Zn871   1.972   .     S
O868   Zn872   1.972   .     S
O869   Zn871   1.977   .     S
O870   Zn872   1.977   .     S
O873   C874    1.417   .     S
C874   C877    1.529   .     S
C874   H876    1.118   .     S
C874   H875    1.112   .     S
C877   H878    1.112   .     S
C877   H879    1.111   .     S
C877   C880    1.525   .     S
C880   H881    1.111   .     S
C880   H883    1.109   .     S
C880   H174    1.110   1_565 S
O884   C885    1.417   .     S
C885   H886    1.110   .     S
C885   H887    1.111   .     S
C885   C888    1.531   .     S
C888   H890    1.111   .     S
C888   H889    1.112   .     S
C888   C891    1.528   .     S
C891   H894    1.111   .     S
H892   C1009   1.111   .     S
H893   C1009   1.110   .     S
O895   C896    1.410   .     S
C896   H897    1.116   .     S
C896   C899    1.529   .     S
C896   H898    1.114   .     S
C899   H901    1.112   .     S
C899   H900    1.112   .     S
C899   C902    1.524   .     S
C902   H905    1.109   .     S
C902   H903    1.111   .     S
C902   H904    1.111   .     S
O906   C907    1.416   .     S
C907   H908    1.108   .     S
C907   H909    1.116   .     S
C907   C910    1.536   .     S
C910   C913    1.527   .     S
C910   H912    1.110   .     S
C910   H911    1.112   .     S
C913   H914    1.111   .     S
C913   H915    1.110   .     S
C913   H916    1.111   .     S
C917   H922    1.103   .     S
C917   C918    1.525   .     S
C917   H923    1.098   .     S
C918   H921    1.110   .     S
C918   H920    1.106   .     S
C918   H919    1.111   .     S
C924   H929    1.109   .     S
C924   C925    1.532   .     S
C924   H930    1.110   .     S
C925   H926    1.111   .     S
C925   H927    1.108   .     S
C925   H928    1.110   .     S
C931   H936    1.102   .     S
C931   H937    1.109   .     S
C931   C932    1.532   .     S
C932   H934    1.109   .     S
C932   H933    1.108   .     S
C932   H935    1.108   .     S
C938   H943    1.109   .     S
C938   C939    1.530   .     S
C938   H944    1.111   .     S
C939   H942    1.111   .     S
C939   H940    1.110   .     S
C939   H941    1.105   .     S
C945   O984    1.280   .     A
C945   O981    1.284   .     A
C945   C970    1.444   .     S
C946   O983    1.281   .     A
C946   O982    1.285   .     A
C946   C969    1.447   .     S
C947   O985    1.286   .     A
C947   O988    1.291   .     A
C947   C965    1.465   .     S
C948   C966    1.457   .     S
C948   O987    1.284   .     A
C948   O986    1.287   .     A
C949   N980    1.365   .     A
C949   H971    1.076   .     S
C950   N979    1.365   .     A
C950   H972    1.080   .     S
C950   C243    1.409   1_565 S
C951   H973    1.077   .     S
C951   N980    1.364   .     A
C952   N979    1.363   .     A
C952   H974    1.080   .     S
C952   C241    1.408   1_565 S
C953   C1035   1.540   .     S
C953   C970    1.437   .     A
C954   C1042   1.530   .     S
C954   C969    1.403   .     A
C954   C720    1.382   1_655 S
C955   C969    1.415   .     A
C955   C1049   1.527   .     S
C955   C717    1.408   1_655 S
C956   C970    1.422   .     A
C956   C1056   1.537   .     S
C957   C967    1.393   .     A
C957   H975    1.084   .     S
C957   C961    1.392   .     A
C958   C962    1.388   .     A
C958   C968    1.396   .     A
C958   H976    1.084   .     S
C959   C963    1.385   .     A
C959   C968    1.399   .     A
C959   H977    1.083   .     S
C960   H978    1.083   .     S
C960   C964    1.386   .     A
C960   C967    1.395   .     A
C961   C965    1.419   .     A
C961   O991    1.386   .     S
C962   O1002   1.384   .     S
C962   C966    1.418   .     A
C963   C966    1.411   .     A
C963   O1013   1.383   .     S
C964   O1024   1.383   .     S
C964   C965    1.415   .     A
C967   C2030   1.456   1_554 S
C968   C2029   1.456   .     S
N979   Zn989   1.996   .     S
N980   Zn990   1.996   .     S
O981   Zn989   1.993   .     S
O982   Zn990   1.993   .     S
O983   Zn989   2.001   .     S
O984   Zn990   2.001   .     S
O985   Zn989   1.972   .     S
O986   Zn990   1.972   .     S
O987   Zn989   1.977   .     S
O988   Zn990   1.977   .     S
O991   C992    1.417   .     S
C992   C995    1.529   .     S
C992   H994    1.118   .     S
C992   H993    1.112   .     S
C995   H996    1.112   .     S
C995   H997    1.111   .     S
C995   C998    1.525   .     S
C998   H999    1.111   .     S
C998   H1001   1.109   .     S
C998   H292    1.110   1_565 S
O1002  C1003   1.417   .     S
C1003  H1004   1.110   .     S
C1003  H1005   1.111   .     S
C1003  C1006   1.531   .     S
C1006  H1008   1.111   .     S
C1006  H1007   1.112   .     S
C1006  C1009   1.528   .     S
C1009  H1012   1.111   .     S
H1010  C773    1.111   1_655 S
H1011  C773    1.110   1_655 S
O1013  C1014   1.410   .     S
C1014  H1015   1.116   .     S
C1014  C1017   1.529   .     S
C1014  H1016   1.114   .     S
C1017  H1019   1.112   .     S
C1017  H1018   1.112   .     S
C1017  C1020   1.524   .     S
C1020  H1023   1.109   .     S
C1020  H1021   1.111   .     S
C1020  H1022   1.111   .     S
O1024  C1025   1.416   .     S
C1025  H1026   1.108   .     S
C1025  H1027   1.116   .     S
C1025  C1028   1.536   .     S
C1028  C1031   1.527   .     S
C1028  H1030   1.110   .     S
C1028  H1029   1.112   .     S
C1031  H1032   1.111   .     S
C1031  H1033   1.110   .     S
C1031  H1034   1.111   .     S
C1035  H1040   1.103   .     S
C1035  C1036   1.525   .     S
C1035  H1041   1.098   .     S
C1036  H1039   1.110   .     S
C1036  H1038   1.106   .     S
C1036  H1037   1.111   .     S
C1042  H1047   1.109   .     S
C1042  C1043   1.532   .     S
C1042  H1048   1.110   .     S
C1043  H1044   1.111   .     S
C1043  H1045   1.108   .     S
C1043  H1046   1.110   .     S
C1049  H1054   1.102   .     S
C1049  H1055   1.109   .     S
C1049  C1050   1.532   .     S
C1050  H1052   1.109   .     S
C1050  H1051   1.108   .     S
C1050  H1053   1.108   .     S
C1056  H1061   1.109   .     S
C1056  C1057   1.530   .     S
C1056  H1062   1.111   .     S
C1057  H1060   1.111   .     S
C1057  H1058   1.110   .     S
C1057  H1059   1.105   .     S
C1063  O1102   1.280   .     A
C1063  O1099   1.284   .     A
C1063  C1088   1.444   .     S
C1064  O1101   1.281   .     A
C1064  O1100   1.285   .     A
C1064  C1087   1.447   .     S
C1065  O1103   1.286   .     A
C1065  O1106   1.291   .     A
C1065  C1083   1.465   .     S
C1066  C1084   1.457   .     S
C1066  O1105   1.284   .     A
C1066  O1104   1.287   .     A
C1067  N1098   1.365   .     A
C1067  H1089   1.076   .     S
C1067  C1778   1.408   1_545 S
C1068  N1097   1.365   .     A
C1068  H1090   1.080   .     S
C1068  C1423   1.409   .     S
C1069  H1091   1.077   .     S
C1069  N1098   1.364   .     A
C1069  C1776   1.409   1_545 S
C1070  N1097   1.363   .     A
C1070  H1092   1.080   .     S
C1070  C1421   1.408   .     S
C1071  C1153   1.540   .     S
C1071  C1088   1.437   .     A
C1071  C1309   1.408   1_455 S
C1072  C1160   1.530   .     S
C1072  C1087   1.403   .     A
C1072  C1192   1.382   .     S
C1073  C1087   1.415   .     A
C1073  C1167   1.527   .     S
C1073  C1189   1.408   .     S
C1074  C1088   1.422   .     A
C1074  C1174   1.537   .     S
C1074  C1308   1.382   1_455 S
C1075  C1085   1.393   .     A
C1075  H1093   1.084   .     S
C1075  C1079   1.392   .     A
C1076  C1080   1.388   .     A
C1076  C1086   1.396   .     A
C1076  H1094   1.084   .     S
C1077  C1081   1.385   .     A
C1077  C1086   1.399   .     A
C1077  H1095   1.083   .     S
C1078  H1096   1.083   .     S
C1078  C1082   1.386   .     A
C1078  C1085   1.395   .     A
C1079  C1083   1.419   .     A
C1079  O1109   1.386   .     S
C1080  O1120   1.384   .     S
C1080  C1084   1.418   .     A
C1081  C1084   1.411   .     A
C1081  O1131   1.383   .     S
C1082  O1142   1.383   .     S
C1082  C1083   1.415   .     A
C1086  C23     1.456   1_556 S
N1097  Zn1107  1.996   .     S
N1098  Zn1108  1.996   .     S
O1099  Zn1107  1.993   .     S
O1100  Zn1108  1.993   .     S
O1101  Zn1107  2.001   .     S
O1102  Zn1108  2.001   .     S
O1103  Zn1107  1.972   .     S
O1104  Zn1108  1.972   .     S
O1105  Zn1107  1.977   .     S
O1106  Zn1108  1.977   .     S
O1109  C1110   1.417   .     S
C1110  C1113   1.529   .     S
C1110  H1112   1.118   .     S
C1110  H1111   1.112   .     S
C1113  H1114   1.112   .     S
C1113  H1115   1.111   .     S
C1113  C1116   1.525   .     S
C1116  H1117   1.111   .     S
C1116  H1119   1.109   .     S
C1116  H1472   1.110   .     S
H1118  C1824   1.110   1_545 S
O1120  C1121   1.417   .     S
C1121  H1122   1.110   .     S
C1121  H1123   1.111   .     S
C1121  C1124   1.531   .     S
C1124  H1126   1.111   .     S
C1124  H1125   1.112   .     S
C1124  C1127   1.528   .     S
C1127  H1130   1.111   .     S
C1127  H1364   1.111   1_455 S
C1127  H1365   1.110   1_455 S
H1128  C1245   1.111   .     S
H1129  C1245   1.110   .     S
O1131  C1132   1.410   .     S
C1132  H1133   1.116   .     S
C1132  C1135   1.529   .     S
C1132  H1134   1.114   .     S
C1135  H1137   1.112   .     S
C1135  H1136   1.112   .     S
C1135  C1138   1.524   .     S
C1138  H1141   1.109   .     S
C1138  H1139   1.111   .     S
C1138  H1140   1.111   .     S
O1142  C1143   1.416   .     S
C1143  H1144   1.108   .     S
C1143  H1145   1.116   .     S
C1143  C1146   1.536   .     S
C1146  C1149   1.527   .     S
C1146  H1148   1.110   .     S
C1146  H1147   1.112   .     S
C1149  H1150   1.111   .     S
C1149  H1151   1.110   .     S
C1149  H1152   1.111   .     S
C1153  H1158   1.103   .     S
C1153  C1154   1.525   .     S
C1153  H1159   1.098   .     S
C1154  H1157   1.110   .     S
C1154  H1156   1.106   .     S
C1154  H1155   1.111   .     S
C1160  H1165   1.109   .     S
C1160  C1161   1.532   .     S
C1160  H1166   1.110   .     S
C1161  H1162   1.111   .     S
C1161  H1163   1.108   .     S
C1161  H1164   1.110   .     S
C1167  H1172   1.102   .     S
C1167  H1173   1.109   .     S
C1167  C1168   1.532   .     S
C1168  H1170   1.109   .     S
C1168  H1169   1.108   .     S
C1168  H1171   1.108   .     S
C1174  H1179   1.109   .     S
C1174  C1175   1.530   .     S
C1174  H1180   1.111   .     S
C1175  H1178   1.111   .     S
C1175  H1176   1.110   .     S
C1175  H1177   1.105   .     S
C1181  O1220   1.280   .     A
C1181  O1217   1.284   .     A
C1181  C1206   1.444   .     S
C1182  O1219   1.281   .     A
C1182  O1218   1.285   .     A
C1182  C1205   1.447   .     S
C1183  O1221   1.286   .     A
C1183  O1224   1.291   .     A
C1183  C1201   1.465   .     S
C1184  C1202   1.457   .     S
C1184  O1223   1.284   .     A
C1184  O1222   1.287   .     A
C1185  N1216   1.365   .     A
C1185  H1207   1.076   .     S
C1185  C1896   1.408   1_545 S
C1186  N1215   1.365   .     A
C1186  H1208   1.080   .     S
C1186  C1541   1.409   .     S
C1187  H1209   1.077   .     S
C1187  N1216   1.364   .     A
C1187  C1894   1.409   1_545 S
C1188  N1215   1.363   .     A
C1188  H1210   1.080   .     S
C1188  C1539   1.408   .     S
C1189  C1271   1.540   .     S
C1189  C1206   1.437   .     A
C1190  C1278   1.530   .     S
C1190  C1205   1.403   .     A
C1190  C1310   1.382   .     S
C1191  C1205   1.415   .     A
C1191  C1285   1.527   .     S
C1191  C1307   1.408   .     S
C1192  C1206   1.422   .     A
C1192  C1292   1.537   .     S
C1193  C1203   1.393   .     A
C1193  H1211   1.084   .     S
C1193  C1197   1.392   .     A
C1194  C1198   1.388   .     A
C1194  C1204   1.396   .     A
C1194  H1212   1.084   .     S
C1195  C1199   1.385   .     A
C1195  C1204   1.399   .     A
C1195  H1213   1.083   .     S
C1196  H1214   1.083   .     S
C1196  C1200   1.386   .     A
C1196  C1203   1.395   .     A
C1197  C1201   1.419   .     A
C1197  O1227   1.386   .     S
C1198  O1238   1.384   .     S
C1198  C1202   1.418   .     A
C1199  C1202   1.411   .     A
C1199  O1249   1.383   .     S
C1200  O1260   1.383   .     S
C1200  C1201   1.415   .     A
C1204  C141    1.456   1_556 S
N1215  Zn1225  1.996   .     S
N1216  Zn1226  1.996   .     S
O1217  Zn1225  1.993   .     S
O1218  Zn1226  1.993   .     S
O1219  Zn1225  2.001   .     S
O1220  Zn1226  2.001   .     S
O1221  Zn1225  1.972   .     S
O1222  Zn1226  1.972   .     S
O1223  Zn1225  1.977   .     S
O1224  Zn1226  1.977   .     S
O1227  C1228   1.417   .     S
C1228  C1231   1.529   .     S
C1228  H1230   1.118   .     S
C1228  H1229   1.112   .     S
C1231  H1232   1.112   .     S
C1231  H1233   1.111   .     S
C1231  C1234   1.525   .     S
C1234  H1235   1.111   .     S
C1234  H1237   1.109   .     S
C1234  H1590   1.110   .     S
H1236  C1942   1.110   1_545 S
O1238  C1239   1.417   .     S
C1239  H1240   1.110   .     S
C1239  H1241   1.111   .     S
C1239  C1242   1.531   .     S
C1242  H1244   1.111   .     S
C1242  H1243   1.112   .     S
C1242  C1245   1.528   .     S
C1245  H1248   1.111   .     S
H1246  C1363   1.111   .     S
H1247  C1363   1.110   .     S
O1249  C1250   1.410   .     S
C1250  H1251   1.116   .     S
C1250  C1253   1.529   .     S
C1250  H1252   1.114   .     S
C1253  H1255   1.112   .     S
C1253  H1254   1.112   .     S
C1253  C1256   1.524   .     S
C1256  H1259   1.109   .     S
C1256  H1257   1.111   .     S
C1256  H1258   1.111   .     S
O1260  C1261   1.416   .     S
C1261  H1262   1.108   .     S
C1261  H1263   1.116   .     S
C1261  C1264   1.536   .     S
C1264  C1267   1.527   .     S
C1264  H1266   1.110   .     S
C1264  H1265   1.112   .     S
C1267  H1268   1.111   .     S
C1267  H1269   1.110   .     S
C1267  H1270   1.111   .     S
C1271  H1276   1.103   .     S
C1271  C1272   1.525   .     S
C1271  H1277   1.098   .     S
C1272  H1275   1.110   .     S
C1272  H1274   1.106   .     S
C1272  H1273   1.111   .     S
C1278  H1283   1.109   .     S
C1278  C1279   1.532   .     S
C1278  H1284   1.110   .     S
C1279  H1280   1.111   .     S
C1279  H1281   1.108   .     S
C1279  H1282   1.110   .     S
C1285  H1290   1.102   .     S
C1285  H1291   1.109   .     S
C1285  C1286   1.532   .     S
C1286  H1288   1.109   .     S
C1286  H1287   1.108   .     S
C1286  H1289   1.108   .     S
C1292  H1297   1.109   .     S
C1292  C1293   1.530   .     S
C1292  H1298   1.111   .     S
C1293  H1296   1.111   .     S
C1293  H1294   1.110   .     S
C1293  H1295   1.105   .     S
C1299  O1338   1.280   .     A
C1299  O1335   1.284   .     A
C1299  C1324   1.444   .     S
C1300  O1337   1.281   .     A
C1300  O1336   1.285   .     A
C1300  C1323   1.447   .     S
C1301  O1339   1.286   .     A
C1301  O1342   1.291   .     A
C1301  C1319   1.465   .     S
C1302  C1320   1.457   .     S
C1302  O1341   1.284   .     A
C1302  O1340   1.287   .     A
C1303  N1334   1.365   .     A
C1303  H1325   1.076   .     S
C1303  C2014   1.408   1_545 S
C1304  N1333   1.365   .     A
C1304  H1326   1.080   .     S
C1304  C1659   1.409   .     S
C1305  H1327   1.077   .     S
C1305  N1334   1.364   .     A
C1305  C2012   1.409   1_545 S
C1306  N1333   1.363   .     A
C1306  H1328   1.080   .     S
C1306  C1657   1.408   .     S
C1307  C1389   1.540   .     S
C1307  C1324   1.437   .     A
C1308  C1396   1.530   .     S
C1308  C1323   1.403   .     A
C1308  C1074   1.382   1_655 S
C1309  C1323   1.415   .     A
C1309  C1403   1.527   .     S
C1309  C1071   1.408   1_655 S
C1310  C1324   1.422   .     A
C1310  C1410   1.537   .     S
C1311  C1321   1.393   .     A
C1311  H1329   1.084   .     S
C1311  C1315   1.392   .     A
C1312  C1316   1.388   .     A
C1312  C1322   1.396   .     A
C1312  H1330   1.084   .     S
C1313  C1317   1.385   .     A
C1313  C1322   1.399   .     A
C1313  H1331   1.083   .     S
C1314  H1332   1.083   .     S
C1314  C1318   1.386   .     A
C1314  C1321   1.395   .     A
C1315  C1319   1.419   .     A
C1315  O1345   1.386   .     S
C1316  O1356   1.384   .     S
C1316  C1320   1.418   .     A
C1317  C1320   1.411   .     A
C1317  O1367   1.383   .     S
C1318  O1378   1.383   .     S
C1318  C1319   1.415   .     A
C1322  C259    1.456   1_556 S
N1333  Zn1343  1.996   .     S
N1334  Zn1344  1.996   .     S
O1335  Zn1343  1.993   .     S
O1336  Zn1344  1.993   .     S
O1337  Zn1343  2.001   .     S
O1338  Zn1344  2.001   .     S
O1339  Zn1343  1.972   .     S
O1340  Zn1344  1.972   .     S
O1341  Zn1343  1.977   .     S
O1342  Zn1344  1.977   .     S
O1345  C1346   1.417   .     S
C1346  C1349   1.529   .     S
C1346  H1348   1.118   .     S
C1346  H1347   1.112   .     S
C1349  H1350   1.112   .     S
C1349  H1351   1.111   .     S
C1349  C1352   1.525   .     S
C1352  H1353   1.111   .     S
C1352  H1355   1.109   .     S
C1352  H1708   1.110   .     S
H1354  C2060   1.110   1_545 S
O1356  C1357   1.417   .     S
C1357  H1358   1.110   .     S
C1357  H1359   1.111   .     S
C1357  C1360   1.531   .     S
C1360  H1362   1.111   .     S
C1360  H1361   1.112   .     S
C1360  C1363   1.528   .     S
C1363  H1366   1.111   .     S
H1364  C1127   1.111   1_655 S
H1365  C1127   1.110   1_655 S
O1367  C1368   1.410   .     S
C1368  H1369   1.116   .     S
C1368  C1371   1.529   .     S
C1368  H1370   1.114   .     S
C1371  H1373   1.112   .     S
C1371  H1372   1.112   .     S
C1371  C1374   1.524   .     S
C1374  H1377   1.109   .     S
C1374  H1375   1.111   .     S
C1374  H1376   1.111   .     S
O1378  C1379   1.416   .     S
C1379  H1380   1.108   .     S
C1379  H1381   1.116   .     S
C1379  C1382   1.536   .     S
C1382  C1385   1.527   .     S
C1382  H1384   1.110   .     S
C1382  H1383   1.112   .     S
C1385  H1386   1.111   .     S
C1385  H1387   1.110   .     S
C1385  H1388   1.111   .     S
C1389  H1394   1.103   .     S
C1389  C1390   1.525   .     S
C1389  H1395   1.098   .     S
C1390  H1393   1.110   .     S
C1390  H1392   1.106   .     S
C1390  H1391   1.111   .     S
C1396  H1401   1.109   .     S
C1396  C1397   1.532   .     S
C1396  H1402   1.110   .     S
C1397  H1398   1.111   .     S
C1397  H1399   1.108   .     S
C1397  H1400   1.110   .     S
C1403  H1408   1.102   .     S
C1403  H1409   1.109   .     S
C1403  C1404   1.532   .     S
C1404  H1406   1.109   .     S
C1404  H1405   1.108   .     S
C1404  H1407   1.108   .     S
C1410  H1415   1.109   .     S
C1410  C1411   1.530   .     S
C1410  H1416   1.111   .     S
C1411  H1414   1.111   .     S
C1411  H1412   1.110   .     S
C1411  H1413   1.105   .     S
C1417  O1456   1.280   .     A
C1417  O1453   1.284   .     A
C1417  C1442   1.444   .     S
C1418  O1455   1.281   .     A
C1418  O1454   1.285   .     A
C1418  C1441   1.447   .     S
C1419  O1457   1.286   .     A
C1419  O1460   1.291   .     A
C1419  C1437   1.465   .     S
C1420  C1438   1.457   .     S
C1420  O1459   1.284   .     A
C1420  O1458   1.287   .     A
C1421  N1452   1.365   .     A
C1421  H1443   1.076   .     S
C1422  N1451   1.365   .     A
C1422  H1444   1.080   .     S
C1422  C1777   1.409   .     S
C1423  H1445   1.077   .     S
C1423  N1452   1.364   .     A
C1424  N1451   1.363   .     A
C1424  H1446   1.080   .     S
C1424  C1775   1.408   .     S
C1425  C1507   1.540   .     S
C1425  C1442   1.437   .     A
C1425  C1663   1.408   1_455 S
C1426  C1514   1.530   .     S
C1426  C1441   1.403   .     A
C1426  C1546   1.382   .     S
C1427  C1441   1.415   .     A
C1427  C1521   1.527   .     S
C1427  C1543   1.408   .     S
C1428  C1442   1.422   .     A
C1428  C1528   1.537   .     S
C1428  C1662   1.382   1_455 S
C1429  C1439   1.393   .     A
C1429  H1447   1.084   .     S
C1429  C1433   1.392   .     A
C1430  C1434   1.388   .     A
C1430  C1440   1.396   .     A
C1430  H1448   1.084   .     S
C1431  C1435   1.385   .     A
C1431  C1440   1.399   .     A
C1431  H1449   1.083   .     S
C1432  H1450   1.083   .     S
C1432  C1436   1.386   .     A
C1432  C1439   1.395   .     A
C1433  C1437   1.419   .     A
C1433  O1463   1.386   .     S
C1434  O1474   1.384   .     S
C1434  C1438   1.418   .     A
C1435  C1438   1.411   .     A
C1435  O1485   1.383   .     S
C1436  O1496   1.383   .     S
C1436  C1437   1.415   .     A
C1440  C377    1.456   1_556 S
N1451  Zn1461  1.996   .     S
N1452  Zn1462  1.996   .     S
O1453  Zn1461  1.993   .     S
O1454  Zn1462  1.993   .     S
O1455  Zn1461  2.001   .     S
O1456  Zn1462  2.001   .     S
O1457  Zn1461  1.972   .     S
O1458  Zn1462  1.972   .     S
O1459  Zn1461  1.977   .     S
O1460  Zn1462  1.977   .     S
O1463  C1464   1.417   .     S
C1464  C1467   1.529   .     S
C1464  H1466   1.118   .     S
C1464  H1465   1.112   .     S
C1467  H1468   1.112   .     S
C1467  H1469   1.111   .     S
C1467  C1470   1.525   .     S
C1470  H1471   1.111   .     S
C1470  H1473   1.109   .     S
C1470  H1826   1.110   .     S
O1474  C1475   1.417   .     S
C1475  H1476   1.110   .     S
C1475  H1477   1.111   .     S
C1475  C1478   1.531   .     S
C1478  H1480   1.111   .     S
C1478  H1479   1.112   .     S
C1478  C1481   1.528   .     S
C1481  H1484   1.111   .     S
C1481  H1718   1.111   1_455 S
C1481  H1719   1.110   1_455 S
H1482  C1599   1.111   .     S
H1483  C1599   1.110   .     S
O1485  C1486   1.410   .     S
C1486  H1487   1.116   .     S
C1486  C1489   1.529   .     S
C1486  H1488   1.114   .     S
C1489  H1491   1.112   .     S
C1489  H1490   1.112   .     S
C1489  C1492   1.524   .     S
C1492  H1495   1.109   .     S
C1492  H1493   1.111   .     S
C1492  H1494   1.111   .     S
O1496  C1497   1.416   .     S
C1497  H1498   1.108   .     S
C1497  H1499   1.116   .     S
C1497  C1500   1.536   .     S
C1500  C1503   1.527   .     S
C1500  H1502   1.110   .     S
C1500  H1501   1.112   .     S
C1503  H1504   1.111   .     S
C1503  H1505   1.110   .     S
C1503  H1506   1.111   .     S
C1507  H1512   1.103   .     S
C1507  C1508   1.525   .     S
C1507  H1513   1.098   .     S
C1508  H1511   1.110   .     S
C1508  H1510   1.106   .     S
C1508  H1509   1.111   .     S
C1514  H1519   1.109   .     S
C1514  C1515   1.532   .     S
C1514  H1520   1.110   .     S
C1515  H1516   1.111   .     S
C1515  H1517   1.108   .     S
C1515  H1518   1.110   .     S
C1521  H1526   1.102   .     S
C1521  H1527   1.109   .     S
C1521  C1522   1.532   .     S
C1522  H1524   1.109   .     S
C1522  H1523   1.108   .     S
C1522  H1525   1.108   .     S
C1528  H1533   1.109   .     S
C1528  C1529   1.530   .     S
C1528  H1534   1.111   .     S
C1529  H1532   1.111   .     S
C1529  H1530   1.110   .     S
C1529  H1531   1.105   .     S
C1535  O1574   1.280   .     A
C1535  O1571   1.284   .     A
C1535  C1560   1.444   .     S
C1536  O1573   1.281   .     A
C1536  O1572   1.285   .     A
C1536  C1559   1.447   .     S
C1537  O1575   1.286   .     A
C1537  O1578   1.291   .     A
C1537  C1555   1.465   .     S
C1538  C1556   1.457   .     S
C1538  O1577   1.284   .     A
C1538  O1576   1.287   .     A
C1539  N1570   1.365   .     A
C1539  H1561   1.076   .     S
C1540  N1569   1.365   .     A
C1540  H1562   1.080   .     S
C1540  C1895   1.409   .     S
C1541  H1563   1.077   .     S
C1541  N1570   1.364   .     A
C1542  N1569   1.363   .     A
C1542  H1564   1.080   .     S
C1542  C1893   1.408   .     S
C1543  C1625   1.540   .     S
C1543  C1560   1.437   .     A
C1544  C1632   1.530   .     S
C1544  C1559   1.403   .     A
C1544  C1664   1.382   .     S
C1545  C1559   1.415   .     A
C1545  C1639   1.527   .     S
C1545  C1661   1.408   .     S
C1546  C1560   1.422   .     A
C1546  C1646   1.537   .     S
C1547  C1557   1.393   .     A
C1547  H1565   1.084   .     S
C1547  C1551   1.392   .     A
C1548  C1552   1.388   .     A
C1548  C1558   1.396   .     A
C1548  H1566   1.084   .     S
C1549  C1553   1.385   .     A
C1549  C1558   1.399   .     A
C1549  H1567   1.083   .     S
C1550  H1568   1.083   .     S
C1550  C1554   1.386   .     A
C1550  C1557   1.395   .     A
C1551  C1555   1.419   .     A
C1551  O1581   1.386   .     S
C1552  O1592   1.384   .     S
C1552  C1556   1.418   .     A
C1553  C1556   1.411   .     A
C1553  O1603   1.383   .     S
C1554  O1614   1.383   .     S
C1554  C1555   1.415   .     A
C1558  C495    1.456   1_556 S
N1569  Zn1579  1.996   .     S
N1570  Zn1580  1.996   .     S
O1571  Zn1579  1.993   .     S
O1572  Zn1580  1.993   .     S
O1573  Zn1579  2.001   .     S
O1574  Zn1580  2.001   .     S
O1575  Zn1579  1.972   .     S
O1576  Zn1580  1.972   .     S
O1577  Zn1579  1.977   .     S
O1578  Zn1580  1.977   .     S
O1581  C1582   1.417   .     S
C1582  C1585   1.529   .     S
C1582  H1584   1.118   .     S
C1582  H1583   1.112   .     S
C1585  H1586   1.112   .     S
C1585  H1587   1.111   .     S
C1585  C1588   1.525   .     S
C1588  H1589   1.111   .     S
C1588  H1591   1.109   .     S
C1588  H1944   1.110   .     S
O1592  C1593   1.417   .     S
C1593  H1594   1.110   .     S
C1593  H1595   1.111   .     S
C1593  C1596   1.531   .     S
C1596  H1598   1.111   .     S
C1596  H1597   1.112   .     S
C1596  C1599   1.528   .     S
C1599  H1602   1.111   .     S
H1600  C1717   1.111   .     S
H1601  C1717   1.110   .     S
O1603  C1604   1.410   .     S
C1604  H1605   1.116   .     S
C1604  C1607   1.529   .     S
C1604  H1606   1.114   .     S
C1607  H1609   1.112   .     S
C1607  H1608   1.112   .     S
C1607  C1610   1.524   .     S
C1610  H1613   1.109   .     S
C1610  H1611   1.111   .     S
C1610  H1612   1.111   .     S
O1614  C1615   1.416   .     S
C1615  H1616   1.108   .     S
C1615  H1617   1.116   .     S
C1615  C1618   1.536   .     S
C1618  C1621   1.527   .     S
C1618  H1620   1.110   .     S
C1618  H1619   1.112   .     S
C1621  H1622   1.111   .     S
C1621  H1623   1.110   .     S
C1621  H1624   1.111   .     S
C1625  H1630   1.103   .     S
C1625  C1626   1.525   .     S
C1625  H1631   1.098   .     S
C1626  H1629   1.110   .     S
C1626  H1628   1.106   .     S
C1626  H1627   1.111   .     S
C1632  H1637   1.109   .     S
C1632  C1633   1.532   .     S
C1632  H1638   1.110   .     S
C1633  H1634   1.111   .     S
C1633  H1635   1.108   .     S
C1633  H1636   1.110   .     S
C1639  H1644   1.102   .     S
C1639  H1645   1.109   .     S
C1639  C1640   1.532   .     S
C1640  H1642   1.109   .     S
C1640  H1641   1.108   .     S
C1640  H1643   1.108   .     S
C1646  H1651   1.109   .     S
C1646  C1647   1.530   .     S
C1646  H1652   1.111   .     S
C1647  H1650   1.111   .     S
C1647  H1648   1.110   .     S
C1647  H1649   1.105   .     S
C1653  O1692   1.280   .     A
C1653  O1689   1.284   .     A
C1653  C1678   1.444   .     S
C1654  O1691   1.281   .     A
C1654  O1690   1.285   .     A
C1654  C1677   1.447   .     S
C1655  O1693   1.286   .     A
C1655  O1696   1.291   .     A
C1655  C1673   1.465   .     S
C1656  C1674   1.457   .     S
C1656  O1695   1.284   .     A
C1656  O1694   1.287   .     A
C1657  N1688   1.365   .     A
C1657  H1679   1.076   .     S
C1658  N1687   1.365   .     A
C1658  H1680   1.080   .     S
C1658  C2013   1.409   .     S
C1659  H1681   1.077   .     S
C1659  N1688   1.364   .     A
C1660  N1687   1.363   .     A
C1660  H1682   1.080   .     S
C1660  C2011   1.408   .     S
C1661  C1743   1.540   .     S
C1661  C1678   1.437   .     A
C1662  C1750   1.530   .     S
C1662  C1677   1.403   .     A
C1662  C1428   1.382   1_655 S
C1663  C1677   1.415   .     A
C1663  C1757   1.527   .     S
C1663  C1425   1.408   1_655 S
C1664  C1678   1.422   .     A
C1664  C1764   1.537   .     S
C1665  C1675   1.393   .     A
C1665  H1683   1.084   .     S
C1665  C1669   1.392   .     A
C1666  C1670   1.388   .     A
C1666  C1676   1.396   .     A
C1666  H1684   1.084   .     S
C1667  C1671   1.385   .     A
C1667  C1676   1.399   .     A
C1667  H1685   1.083   .     S
C1668  H1686   1.083   .     S
C1668  C1672   1.386   .     A
C1668  C1675   1.395   .     A
C1669  C1673   1.419   .     A
C1669  O1699   1.386   .     S
C1670  O1710   1.384   .     S
C1670  C1674   1.418   .     A
C1671  C1674   1.411   .     A
C1671  O1721   1.383   .     S
C1672  O1732   1.383   .     S
C1672  C1673   1.415   .     A
C1676  C613    1.456   1_556 S
N1687  Zn1697  1.996   .     S
N1688  Zn1698  1.996   .     S
O1689  Zn1697  1.993   .     S
O1690  Zn1698  1.993   .     S
O1691  Zn1697  2.001   .     S
O1692  Zn1698  2.001   .     S
O1693  Zn1697  1.972   .     S
O1694  Zn1698  1.972   .     S
O1695  Zn1697  1.977   .     S
O1696  Zn1698  1.977   .     S
O1699  C1700   1.417   .     S
C1700  C1703   1.529   .     S
C1700  H1702   1.118   .     S
C1700  H1701   1.112   .     S
C1703  H1704   1.112   .     S
C1703  H1705   1.111   .     S
C1703  C1706   1.525   .     S
C1706  H1707   1.111   .     S
C1706  H1709   1.109   .     S
C1706  H2062   1.110   .     S
O1710  C1711   1.417   .     S
C1711  H1712   1.110   .     S
C1711  H1713   1.111   .     S
C1711  C1714   1.531   .     S
C1714  H1716   1.111   .     S
C1714  H1715   1.112   .     S
C1714  C1717   1.528   .     S
C1717  H1720   1.111   .     S
H1718  C1481   1.111   1_655 S
H1719  C1481   1.110   1_655 S
O1721  C1722   1.410   .     S
C1722  H1723   1.116   .     S
C1722  C1725   1.529   .     S
C1722  H1724   1.114   .     S
C1725  H1727   1.112   .     S
C1725  H1726   1.112   .     S
C1725  C1728   1.524   .     S
C1728  H1731   1.109   .     S
C1728  H1729   1.111   .     S
C1728  H1730   1.111   .     S
O1732  C1733   1.416   .     S
C1733  H1734   1.108   .     S
C1733  H1735   1.116   .     S
C1733  C1736   1.536   .     S
C1736  C1739   1.527   .     S
C1736  H1738   1.110   .     S
C1736  H1737   1.112   .     S
C1739  H1740   1.111   .     S
C1739  H1741   1.110   .     S
C1739  H1742   1.111   .     S
C1743  H1748   1.103   .     S
C1743  C1744   1.525   .     S
C1743  H1749   1.098   .     S
C1744  H1747   1.110   .     S
C1744  H1746   1.106   .     S
C1744  H1745   1.111   .     S
C1750  H1755   1.109   .     S
C1750  C1751   1.532   .     S
C1750  H1756   1.110   .     S
C1751  H1752   1.111   .     S
C1751  H1753   1.108   .     S
C1751  H1754   1.110   .     S
C1757  H1762   1.102   .     S
C1757  H1763   1.109   .     S
C1757  C1758   1.532   .     S
C1758  H1760   1.109   .     S
C1758  H1759   1.108   .     S
C1758  H1761   1.108   .     S
C1764  H1769   1.109   .     S
C1764  C1765   1.530   .     S
C1764  H1770   1.111   .     S
C1765  H1768   1.111   .     S
C1765  H1766   1.110   .     S
C1765  H1767   1.105   .     S
C1771  O1810   1.280   .     A
C1771  O1807   1.284   .     A
C1771  C1796   1.444   .     S
C1772  O1809   1.281   .     A
C1772  O1808   1.285   .     A
C1772  C1795   1.447   .     S
C1773  O1811   1.286   .     A
C1773  O1814   1.291   .     A
C1773  C1791   1.465   .     S
C1774  C1792   1.457   .     S
C1774  O1813   1.284   .     A
C1774  O1812   1.287   .     A
C1775  N1806   1.365   .     A
C1775  H1797   1.076   .     S
C1776  N1805   1.365   .     A
C1776  H1798   1.080   .     S
C1776  C1069   1.409   1_565 S
C1777  H1799   1.077   .     S
C1777  N1806   1.364   .     A
C1778  N1805   1.363   .     A
C1778  H1800   1.080   .     S
C1778  C1067   1.408   1_565 S
C1779  C1861   1.540   .     S
C1779  C1796   1.437   .     A
C1779  C2017   1.408   1_455 S
C1780  C1868   1.530   .     S
C1780  C1795   1.403   .     A
C1780  C1900   1.382   .     S
C1781  C1795   1.415   .     A
C1781  C1875   1.527   .     S
C1781  C1897   1.408   .     S
C1782  C1796   1.422   .     A
C1782  C1882   1.537   .     S
C1782  C2016   1.382   1_455 S
C1783  C1793   1.393   .     A
C1783  H1801   1.084   .     S
C1783  C1787   1.392   .     A
C1784  C1788   1.388   .     A
C1784  C1794   1.396   .     A
C1784  H1802   1.084   .     S
C1785  C1789   1.385   .     A
C1785  C1794   1.399   .     A
C1785  H1803   1.083   .     S
C1786  H1804   1.083   .     S
C1786  C1790   1.386   .     A
C1786  C1793   1.395   .     A
C1787  C1791   1.419   .     A
C1787  O1817   1.386   .     S
C1788  O1828   1.384   .     S
C1788  C1792   1.418   .     A
C1789  C1792   1.411   .     A
C1789  O1839   1.383   .     S
C1790  O1850   1.383   .     S
C1790  C1791   1.415   .     A
C1794  C731    1.456   1_556 S
N1805  Zn1815  1.996   .     S
N1806  Zn1816  1.996   .     S
O1807  Zn1815  1.993   .     S
O1808  Zn1816  1.993   .     S
O1809  Zn1815  2.001   .     S
O1810  Zn1816  2.001   .     S
O1811  Zn1815  1.972   .     S
O1812  Zn1816  1.972   .     S
O1813  Zn1815  1.977   .     S
O1814  Zn1816  1.977   .     S
O1817  C1818   1.417   .     S
C1818  C1821   1.529   .     S
C1818  H1820   1.118   .     S
C1818  H1819   1.112   .     S
C1821  H1822   1.112   .     S
C1821  H1823   1.111   .     S
C1821  C1824   1.525   .     S
C1824  H1825   1.111   .     S
C1824  H1827   1.109   .     S
C1824  H1118   1.110   1_565 S
O1828  C1829   1.417   .     S
C1829  H1830   1.110   .     S
C1829  H1831   1.111   .     S
C1829  C1832   1.531   .     S
C1832  H1834   1.111   .     S
C1832  H1833   1.112   .     S
C1832  C1835   1.528   .     S
C1835  H1838   1.111   .     S
C1835  H2072   1.111   1_455 S
C1835  H2073   1.110   1_455 S
H1836  C1953   1.111   .     S
H1837  C1953   1.110   .     S
O1839  C1840   1.410   .     S
C1840  H1841   1.116   .     S
C1840  C1843   1.529   .     S
C1840  H1842   1.114   .     S
C1843  H1845   1.112   .     S
C1843  H1844   1.112   .     S
C1843  C1846   1.524   .     S
C1846  H1849   1.109   .     S
C1846  H1847   1.111   .     S
C1846  H1848   1.111   .     S
O1850  C1851   1.416   .     S
C1851  H1852   1.108   .     S
C1851  H1853   1.116   .     S
C1851  C1854   1.536   .     S
C1854  C1857   1.527   .     S
C1854  H1856   1.110   .     S
C1854  H1855   1.112   .     S
C1857  H1858   1.111   .     S
C1857  H1859   1.110   .     S
C1857  H1860   1.111   .     S
C1861  H1866   1.103   .     S
C1861  C1862   1.525   .     S
C1861  H1867   1.098   .     S
C1862  H1865   1.110   .     S
C1862  H1864   1.106   .     S
C1862  H1863   1.111   .     S
C1868  H1873   1.109   .     S
C1868  C1869   1.532   .     S
C1868  H1874   1.110   .     S
C1869  H1870   1.111   .     S
C1869  H1871   1.108   .     S
C1869  H1872   1.110   .     S
C1875  H1880   1.102   .     S
C1875  H1881   1.109   .     S
C1875  C1876   1.532   .     S
C1876  H1878   1.109   .     S
C1876  H1877   1.108   .     S
C1876  H1879   1.108   .     S
C1882  H1887   1.109   .     S
C1882  C1883   1.530   .     S
C1882  H1888   1.111   .     S
C1883  H1886   1.111   .     S
C1883  H1884   1.110   .     S
C1883  H1885   1.105   .     S
C1889  O1928   1.280   .     A
C1889  O1925   1.284   .     A
C1889  C1914   1.444   .     S
C1890  O1927   1.281   .     A
C1890  O1926   1.285   .     A
C1890  C1913   1.447   .     S
C1891  O1929   1.286   .     A
C1891  O1932   1.291   .     A
C1891  C1909   1.465   .     S
C1892  C1910   1.457   .     S
C1892  O1931   1.284   .     A
C1892  O1930   1.287   .     A
C1893  N1924   1.365   .     A
C1893  H1915   1.076   .     S
C1894  N1923   1.365   .     A
C1894  H1916   1.080   .     S
C1894  C1187   1.409   1_565 S
C1895  H1917   1.077   .     S
C1895  N1924   1.364   .     A
C1896  N1923   1.363   .     A
C1896  H1918   1.080   .     S
C1896  C1185   1.408   1_565 S
C1897  C1979   1.540   .     S
C1897  C1914   1.437   .     A
C1898  C1986   1.530   .     S
C1898  C1913   1.403   .     A
C1898  C2018   1.382   .     S
C1899  C1913   1.415   .     A
C1899  C1993   1.527   .     S
C1899  C2015   1.408   .     S
C1900  C1914   1.422   .     A
C1900  C2000   1.537   .     S
C1901  C1911   1.393   .     A
C1901  H1919   1.084   .     S
C1901  C1905   1.392   .     A
C1902  C1906   1.388   .     A
C1902  C1912   1.396   .     A
C1902  H1920   1.084   .     S
C1903  C1907   1.385   .     A
C1903  C1912   1.399   .     A
C1903  H1921   1.083   .     S
C1904  H1922   1.083   .     S
C1904  C1908   1.386   .     A
C1904  C1911   1.395   .     A
C1905  C1909   1.419   .     A
C1905  O1935   1.386   .     S
C1906  O1946   1.384   .     S
C1906  C1910   1.418   .     A
C1907  C1910   1.411   .     A
C1907  O1957   1.383   .     S
C1908  O1968   1.383   .     S
C1908  C1909   1.415   .     A
C1912  C849    1.456   1_556 S
N1923  Zn1933  1.996   .     S
N1924  Zn1934  1.996   .     S
O1925  Zn1933  1.993   .     S
O1926  Zn1934  1.993   .     S
O1927  Zn1933  2.001   .     S
O1928  Zn1934  2.001   .     S
O1929  Zn1933  1.972   .     S
O1930  Zn1934  1.972   .     S
O1931  Zn1933  1.977   .     S
O1932  Zn1934  1.977   .     S
O1935  C1936   1.417   .     S
C1936  C1939   1.529   .     S
C1936  H1938   1.118   .     S
C1936  H1937   1.112   .     S
C1939  H1940   1.112   .     S
C1939  H1941   1.111   .     S
C1939  C1942   1.525   .     S
C1942  H1943   1.111   .     S
C1942  H1945   1.109   .     S
C1942  H1236   1.110   1_565 S
O1946  C1947   1.417   .     S
C1947  H1948   1.110   .     S
C1947  H1949   1.111   .     S
C1947  C1950   1.531   .     S
C1950  H1952   1.111   .     S
C1950  H1951   1.112   .     S
C1950  C1953   1.528   .     S
C1953  H1956   1.111   .     S
H1954  C2071   1.111   .     S
H1955  C2071   1.110   .     S
O1957  C1958   1.410   .     S
C1958  H1959   1.116   .     S
C1958  C1961   1.529   .     S
C1958  H1960   1.114   .     S
C1961  H1963   1.112   .     S
C1961  H1962   1.112   .     S
C1961  C1964   1.524   .     S
C1964  H1967   1.109   .     S
C1964  H1965   1.111   .     S
C1964  H1966   1.111   .     S
O1968  C1969   1.416   .     S
C1969  H1970   1.108   .     S
C1969  H1971   1.116   .     S
C1969  C1972   1.536   .     S
C1972  C1975   1.527   .     S
C1972  H1974   1.110   .     S
C1972  H1973   1.112   .     S
C1975  H1976   1.111   .     S
C1975  H1977   1.110   .     S
C1975  H1978   1.111   .     S
C1979  H1984   1.103   .     S
C1979  C1980   1.525   .     S
C1979  H1985   1.098   .     S
C1980  H1983   1.110   .     S
C1980  H1982   1.106   .     S
C1980  H1981   1.111   .     S
C1986  H1991   1.109   .     S
C1986  C1987   1.532   .     S
C1986  H1992   1.110   .     S
C1987  H1988   1.111   .     S
C1987  H1989   1.108   .     S
C1987  H1990   1.110   .     S
C1993  H1998   1.102   .     S
C1993  H1999   1.109   .     S
C1993  C1994   1.532   .     S
C1994  H1996   1.109   .     S
C1994  H1995   1.108   .     S
C1994  H1997   1.108   .     S
C2000  H2005   1.109   .     S
C2000  C2001   1.530   .     S
C2000  H2006   1.111   .     S
C2001  H2004   1.111   .     S
C2001  H2002   1.110   .     S
C2001  H2003   1.105   .     S
C2007  O2046   1.280   .     A
C2007  O2043   1.284   .     A
C2007  C2032   1.444   .     S
C2008  O2045   1.281   .     A
C2008  O2044   1.285   .     A
C2008  C2031   1.447   .     S
C2009  O2047   1.286   .     A
C2009  O2050   1.291   .     A
C2009  C2027   1.465   .     S
C2010  C2028   1.457   .     S
C2010  O2049   1.284   .     A
C2010  O2048   1.287   .     A
C2011  N2042   1.365   .     A
C2011  H2033   1.076   .     S
C2012  N2041   1.365   .     A
C2012  H2034   1.080   .     S
C2012  C1305   1.409   1_565 S
C2013  H2035   1.077   .     S
C2013  N2042   1.364   .     A
C2014  N2041   1.363   .     A
C2014  H2036   1.080   .     S
C2014  C1303   1.408   1_565 S
C2015  C2097   1.540   .     S
C2015  C2032   1.437   .     A
C2016  C2104   1.530   .     S
C2016  C2031   1.403   .     A
C2016  C1782   1.382   1_655 S
C2017  C2031   1.415   .     A
C2017  C2111   1.527   .     S
C2017  C1779   1.408   1_655 S
C2018  C2032   1.422   .     A
C2018  C2118   1.537   .     S
C2019  C2029   1.393   .     A
C2019  H2037   1.084   .     S
C2019  C2023   1.392   .     A
C2020  C2024   1.388   .     A
C2020  C2030   1.396   .     A
C2020  H2038   1.084   .     S
C2021  C2025   1.385   .     A
C2021  C2030   1.399   .     A
C2021  H2039   1.083   .     S
C2022  H2040   1.083   .     S
C2022  C2026   1.386   .     A
C2022  C2029   1.395   .     A
C2023  C2027   1.419   .     A
C2023  O2053   1.386   .     S
C2024  O2064   1.384   .     S
C2024  C2028   1.418   .     A
C2025  C2028   1.411   .     A
C2025  O2075   1.383   .     S
C2026  O2086   1.383   .     S
C2026  C2027   1.415   .     A
C2030  C967    1.456   1_556 S
N2041  Zn2051  1.996   .     S
N2042  Zn2052  1.996   .     S
O2043  Zn2051  1.993   .     S
O2044  Zn2052  1.993   .     S
O2045  Zn2051  2.001   .     S
O2046  Zn2052  2.001   .     S
O2047  Zn2051  1.972   .     S
O2048  Zn2052  1.972   .     S
O2049  Zn2051  1.977   .     S
O2050  Zn2052  1.977   .     S
O2053  C2054   1.417   .     S
C2054  C2057   1.529   .     S
C2054  H2056   1.118   .     S
C2054  H2055   1.112   .     S
C2057  H2058   1.112   .     S
C2057  H2059   1.111   .     S
C2057  C2060   1.525   .     S
C2060  H2061   1.111   .     S
C2060  H2063   1.109   .     S
C2060  H1354   1.110   1_565 S
O2064  C2065   1.417   .     S
C2065  H2066   1.110   .     S
C2065  H2067   1.111   .     S
C2065  C2068   1.531   .     S
C2068  H2070   1.111   .     S
C2068  H2069   1.112   .     S
C2068  C2071   1.528   .     S
C2071  H2074   1.111   .     S
H2072  C1835   1.111   1_655 S
H2073  C1835   1.110   1_655 S
O2075  C2076   1.410   .     S
C2076  H2077   1.116   .     S
C2076  C2079   1.529   .     S
C2076  H2078   1.114   .     S
C2079  H2081   1.112   .     S
C2079  H2080   1.112   .     S
C2079  C2082   1.524   .     S
C2082  H2085   1.109   .     S
C2082  H2083   1.111   .     S
C2082  H2084   1.111   .     S
O2086  C2087   1.416   .     S
C2087  H2088   1.108   .     S
C2087  H2089   1.116   .     S
C2087  C2090   1.536   .     S
C2090  C2093   1.527   .     S
C2090  H2092   1.110   .     S
C2090  H2091   1.112   .     S
C2093  H2094   1.111   .     S
C2093  H2095   1.110   .     S
C2093  H2096   1.111   .     S
C2097  H2102   1.103   .     S
C2097  C2098   1.525   .     S
C2097  H2103   1.098   .     S
C2098  H2101   1.110   .     S
C2098  H2100   1.106   .     S
C2098  H2099   1.111   .     S
C2104  H2109   1.109   .     S
C2104  C2105   1.532   .     S
C2104  H2110   1.110   .     S
C2105  H2106   1.111   .     S
C2105  H2107   1.108   .     S
C2105  H2108   1.110   .     S
C2111  H2116   1.102   .     S
C2111  H2117   1.109   .     S
C2111  C2112   1.532   .     S
C2112  H2114   1.109   .     S
C2112  H2113   1.108   .     S
C2112  H2115   1.108   .     S
C2118  H2123   1.109   .     S
C2118  C2119   1.530   .     S
C2118  H2124   1.111   .     S
C2119  H2122   1.111   .     S
C2119  H2120   1.110   .     S
C2119  H2121   1.105   .     S
