data_str_m3_o10_o17_pcu_sym.217
_audit_creation_date              2020-01-03
_audit_creation_method            'Materials Studio'
_symmetry_space_group_name_H-M    'P1'
_symmetry_Int_Tables_number       1
_symmetry_cell_setting            triclinic
loop_
_symmetry_equiv_pos_as_xyz
  x,y,z
_cell_length_a                    23.2297
_cell_length_b                    25.8606
_cell_length_c                    29.9086
_cell_angle_alpha                 91.3416
_cell_angle_beta                  86.3988
_cell_angle_gamma                 93.3423
loop_
_atom_site_label
_atom_site_type_symbol
_atom_site_fract_x
_atom_site_fract_y
_atom_site_fract_z
_atom_site_U_iso_or_equiv
_atom_site_adp_type
_atom_site_occupancy
C1     C     0.18165   0.26470   0.24904   0.00000  Uiso   1.00
C2     C     0.15180   0.06861   0.25148   0.00000  Uiso   1.00
C3     C     0.24417   0.23798   0.47698   0.00000  Uiso   1.00
C4     C     0.09297   0.09373   0.02275   0.00000  Uiso   1.00
C5     C     0.18903   0.31839   0.25520   0.00000  Uiso   1.00
C6     C     0.14492   0.01461   0.24586   0.00000  Uiso   1.00
C7     C     0.16795   0.16789   0.33641   0.00000  Uiso   1.00
C8     C     0.16543   0.16572   0.16354   0.00000  Uiso   1.00
C9     C     0.12264   0.13376   0.09386   0.00000  Uiso   1.00
C10    C     0.21018   0.20133   0.40575   0.00000  Uiso   1.00
C11    C     0.16337   0.16561   0.11588   0.00000  Uiso   1.00
C12    C     0.17023   0.16835   0.38401   0.00000  Uiso   1.00
C13    C     0.20450   0.19718   0.09257   0.00000  Uiso   1.00
C14    C     0.13044   0.13566   0.40734   0.00000  Uiso   1.00
C15    C     0.20401   0.20070   0.04658   0.00000  Uiso   1.00
C16    C     0.13064   0.13286   0.45335   0.00000  Uiso   1.00
C17    C     0.16655   0.16616   0.02327   0.00000  Uiso   1.00
C18    C     0.16861   0.16713   0.47652   0.00000  Uiso   1.00
C19    C     0.12705   0.13070   0.04686   0.00000  Uiso   1.00
C20    C     0.20827   0.20246   0.45287   0.00000  Uiso   1.00
C21    C     0.24103   0.23771   0.02377   0.00000  Uiso   1.00
C22    C     0.09363   0.09592   0.47621   0.00000  Uiso   1.00
H23    H     0.23594   0.22020   0.11098   0.00000  Uiso   1.00
H24    H     0.10032   0.11118   0.38887   0.00000  Uiso   1.00
H25    H     0.00464   0.12715   0.21660   0.00000  Uiso   1.00
H26    H     0.32870   0.20619   0.28338   0.00000  Uiso   1.00
N27    N     0.31678   0.15265   0.23783   0.00000  Uiso   1.00
N28    N     0.01656   0.18068   0.26217   0.00000  Uiso   1.00
O29    O     0.12975   0.24619   0.25299   0.00000  Uiso   1.00
O30    O     0.20358   0.08714   0.24702   0.00000  Uiso   1.00
O31    O     0.22613   0.23721   0.24519   0.00000  Uiso   1.00
O32    O     0.10720   0.09613   0.25482   0.00000  Uiso   1.00
O33    O     0.11847   0.17117   0.31998   0.00000  Uiso   1.00
O34    O     0.21486   0.16216   0.18003   0.00000  Uiso   1.00
O35    O     0.21485   0.16219   0.31218   0.00000  Uiso   1.00
O36    O     0.11848   0.17115   0.18783   0.00000  Uiso   1.00
Zn37   Zn    0.10231   0.17266   0.25521   0.00000  Uiso   1.00
Zn38   Zn    0.23102   0.16067   0.24479   0.00000  Uiso   1.00
N39    N     0.07709   0.10502   0.11885   0.00000  Uiso   1.00
H40    H     0.04970   0.13105   0.13516   0.00000  Uiso   1.00
H41    H     0.09497   0.08275   0.14257   0.00000  Uiso   1.00
N42    N     0.25098   0.23454   0.38019   0.00000  Uiso   1.00
H43    H     0.27992   0.21181   0.36160   0.00000  Uiso   1.00
H44    H     0.22896   0.25648   0.35858   0.00000  Uiso   1.00
O45    O     0.27748   0.27192   0.04660   0.00000  Uiso   1.00
C46    C     0.24607   0.31409   0.06365   0.00000  Uiso   1.00
H47    H     0.27722   0.01256   0.07335   0.00000  Uiso   1.00
H48    H     0.21866   0.30340   0.09411   0.00000  Uiso   1.00
H49    H     0.21855   0.32969   0.03862   0.00000  Uiso   1.00
O50    O     0.05417   0.06441   0.45366   0.00000  Uiso   1.00
C51    C     0.08115   0.02091   0.43424   0.00000  Uiso   1.00
H52    H     0.12904   0.02618   0.42877   0.00000  Uiso   1.00
H53    H     0.06366   0.01246   0.40101   0.00000  Uiso   1.00
H54    H     0.06987   0.31985   0.45515   0.00000  Uiso   1.00
O55    O     0.28552   0.27081   0.45520   0.00000  Uiso   1.00
C56    C     0.26310   0.31983   0.44980   0.00000  Uiso   1.00
H57    H     0.27939   0.01411   0.47561   0.00000  Uiso   1.00
H58    H     0.21499   0.31923   0.45062   0.00000  Uiso   1.00
H59    H     0.27962   0.00162   0.41674   0.00000  Uiso   1.00
O60    O     0.05729   0.05589   0.04398   0.00000  Uiso   1.00
C61    C     0.09041   0.01341   0.05239   0.00000  Uiso   1.00
H62    H     0.12210   0.02351   0.07795   0.00000  Uiso   1.00
H63    H     0.11370   0.33203   0.02153   0.00000  Uiso   1.00
H64    H     0.06092   0.31468   0.06570   0.00000  Uiso   1.00
N65    N     0.24006   0.00342   0.27728   0.00000  Uiso   1.00
H66    H     0.26941   0.02289   0.25470   0.00000  Uiso   1.00
H67    H     0.22893   0.02678   0.30516   0.00000  Uiso   1.00
N68    N     0.09387   0.32725   0.22505   0.00000  Uiso   1.00
H69    H     0.09178   0.01160   0.19417   0.00000  Uiso   1.00
H70    H     0.05755   0.00323   0.24543   0.00000  Uiso   1.00
C71    C     0.51498   0.26470   0.24904   0.00000  Uiso   1.00
C72    C     0.48513   0.06861   0.25148   0.00000  Uiso   1.00
C73    C     0.57750   0.23798   0.47698   0.00000  Uiso   1.00
C74    C     0.42631   0.09373   0.02275   0.00000  Uiso   1.00
C75    C     0.52237   0.31839   0.25520   0.00000  Uiso   1.00
C76    C     0.47825   0.01461   0.24586   0.00000  Uiso   1.00
C77    C     0.50128   0.16789   0.33641   0.00000  Uiso   1.00
C78    C     0.49877   0.16572   0.16354   0.00000  Uiso   1.00
C79    C     0.45597   0.13376   0.09386   0.00000  Uiso   1.00
C80    C     0.54352   0.20133   0.40575   0.00000  Uiso   1.00
C81    C     0.49670   0.16561   0.11588   0.00000  Uiso   1.00
C82    C     0.50357   0.16835   0.38401   0.00000  Uiso   1.00
C83    C     0.53783   0.19718   0.09257   0.00000  Uiso   1.00
C84    C     0.46377   0.13566   0.40734   0.00000  Uiso   1.00
C85    C     0.53734   0.20070   0.04658   0.00000  Uiso   1.00
C86    C     0.46397   0.13286   0.45335   0.00000  Uiso   1.00
C87    C     0.49988   0.16616   0.02327   0.00000  Uiso   1.00
C88    C     0.50195   0.16713   0.47652   0.00000  Uiso   1.00
C89    C     0.46038   0.13070   0.04686   0.00000  Uiso   1.00
C90    C     0.54160   0.20246   0.45287   0.00000  Uiso   1.00
C91    C     0.57436   0.23771   0.02377   0.00000  Uiso   1.00
C92    C     0.42696   0.09592   0.47621   0.00000  Uiso   1.00
H93    H     0.56927   0.22020   0.11098   0.00000  Uiso   1.00
H94    H     0.43365   0.11118   0.38887   0.00000  Uiso   1.00
H95    H     0.33797   0.12715   0.21660   0.00000  Uiso   1.00
H96    H     0.66204   0.20619   0.28338   0.00000  Uiso   1.00
N97    N     0.65011   0.15265   0.23783   0.00000  Uiso   1.00
N98    N     0.34989   0.18068   0.26217   0.00000  Uiso   1.00
O99    O     0.46308   0.24619   0.25299   0.00000  Uiso   1.00
O100   O     0.53692   0.08714   0.24702   0.00000  Uiso   1.00
O101   O     0.55946   0.23721   0.24519   0.00000  Uiso   1.00
O102   O     0.44054   0.09613   0.25482   0.00000  Uiso   1.00
O103   O     0.45181   0.17117   0.31998   0.00000  Uiso   1.00
O104   O     0.54819   0.16216   0.18003   0.00000  Uiso   1.00
O105   O     0.54819   0.16219   0.31218   0.00000  Uiso   1.00
O106   O     0.45181   0.17115   0.18783   0.00000  Uiso   1.00
Zn107  Zn    0.43565   0.17266   0.25521   0.00000  Uiso   1.00
Zn108  Zn    0.56435   0.16067   0.24479   0.00000  Uiso   1.00
N109   N     0.41042   0.10502   0.11885   0.00000  Uiso   1.00
H110   H     0.38303   0.13105   0.13516   0.00000  Uiso   1.00
H111   H     0.42831   0.08275   0.14257   0.00000  Uiso   1.00
N112   N     0.58431   0.23454   0.38019   0.00000  Uiso   1.00
H113   H     0.61325   0.21181   0.36160   0.00000  Uiso   1.00
H114   H     0.56229   0.25648   0.35858   0.00000  Uiso   1.00
O115   O     0.61081   0.27192   0.04660   0.00000  Uiso   1.00
C116   C     0.57941   0.31409   0.06365   0.00000  Uiso   1.00
H117   H     0.61056   0.01256   0.07335   0.00000  Uiso   1.00
H118   H     0.55199   0.30340   0.09411   0.00000  Uiso   1.00
H119   H     0.55189   0.32969   0.03862   0.00000  Uiso   1.00
O120   O     0.38750   0.06441   0.45366   0.00000  Uiso   1.00
C121   C     0.41449   0.02091   0.43424   0.00000  Uiso   1.00
H122   H     0.46238   0.02618   0.42877   0.00000  Uiso   1.00
H123   H     0.39699   0.01246   0.40101   0.00000  Uiso   1.00
H124   H     0.40320   0.31985   0.45515   0.00000  Uiso   1.00
O125   O     0.61885   0.27081   0.45520   0.00000  Uiso   1.00
C126   C     0.59643   0.31983   0.44980   0.00000  Uiso   1.00
H127   H     0.61272   0.01411   0.47561   0.00000  Uiso   1.00
H128   H     0.54832   0.31923   0.45062   0.00000  Uiso   1.00
H129   H     0.61296   0.00162   0.41674   0.00000  Uiso   1.00
O130   O     0.39062   0.05589   0.04398   0.00000  Uiso   1.00
C131   C     0.42374   0.01341   0.05239   0.00000  Uiso   1.00
H132   H     0.45544   0.02351   0.07795   0.00000  Uiso   1.00
H133   H     0.44703   0.33203   0.02153   0.00000  Uiso   1.00
H134   H     0.39426   0.31468   0.06570   0.00000  Uiso   1.00
N135   N     0.57340   0.00342   0.27728   0.00000  Uiso   1.00
H136   H     0.60274   0.02289   0.25470   0.00000  Uiso   1.00
H137   H     0.56226   0.02678   0.30516   0.00000  Uiso   1.00
N138   N     0.42720   0.32725   0.22505   0.00000  Uiso   1.00
H139   H     0.42512   0.01160   0.19417   0.00000  Uiso   1.00
H140   H     0.39088   0.00323   0.24543   0.00000  Uiso   1.00
C141   C     0.84831   0.26470   0.24904   0.00000  Uiso   1.00
C142   C     0.81847   0.06861   0.25148   0.00000  Uiso   1.00
C143   C     0.91083   0.23798   0.47698   0.00000  Uiso   1.00
C144   C     0.75964   0.09373   0.02275   0.00000  Uiso   1.00
C145   C     0.85570   0.31839   0.25520   0.00000  Uiso   1.00
C146   C     0.81158   0.01461   0.24586   0.00000  Uiso   1.00
C147   C     0.83462   0.16789   0.33641   0.00000  Uiso   1.00
C148   C     0.83210   0.16572   0.16354   0.00000  Uiso   1.00
C149   C     0.78931   0.13376   0.09386   0.00000  Uiso   1.00
C150   C     0.87685   0.20133   0.40575   0.00000  Uiso   1.00
C151   C     0.83004   0.16561   0.11588   0.00000  Uiso   1.00
C152   C     0.83690   0.16835   0.38401   0.00000  Uiso   1.00
C153   C     0.87117   0.19718   0.09257   0.00000  Uiso   1.00
C154   C     0.79711   0.13566   0.40734   0.00000  Uiso   1.00
C155   C     0.87068   0.20070   0.04658   0.00000  Uiso   1.00
C156   C     0.79730   0.13286   0.45335   0.00000  Uiso   1.00
C157   C     0.83322   0.16616   0.02327   0.00000  Uiso   1.00
C158   C     0.83528   0.16713   0.47652   0.00000  Uiso   1.00
C159   C     0.79371   0.13070   0.04686   0.00000  Uiso   1.00
C160   C     0.87493   0.20246   0.45287   0.00000  Uiso   1.00
C161   C     0.90769   0.23771   0.02377   0.00000  Uiso   1.00
C162   C     0.76030   0.09592   0.47621   0.00000  Uiso   1.00
H163   H     0.90261   0.22020   0.11098   0.00000  Uiso   1.00
H164   H     0.76699   0.11118   0.38887   0.00000  Uiso   1.00
H165   H     0.67130   0.12715   0.21660   0.00000  Uiso   1.00
H166   H     0.99537   0.20619   0.28338   0.00000  Uiso   1.00
N167   N     0.98344   0.15265   0.23783   0.00000  Uiso   1.00
N168   N     0.68322   0.18068   0.26217   0.00000  Uiso   1.00
O169   O     0.79642   0.24619   0.25299   0.00000  Uiso   1.00
O170   O     0.87025   0.08714   0.24702   0.00000  Uiso   1.00
O171   O     0.89280   0.23721   0.24519   0.00000  Uiso   1.00
O172   O     0.77387   0.09613   0.25482   0.00000  Uiso   1.00
O173   O     0.78514   0.17117   0.31998   0.00000  Uiso   1.00
O174   O     0.88153   0.16216   0.18003   0.00000  Uiso   1.00
O175   O     0.88152   0.16219   0.31218   0.00000  Uiso   1.00
O176   O     0.78515   0.17115   0.18783   0.00000  Uiso   1.00
Zn177  Zn    0.76898   0.17266   0.25521   0.00000  Uiso   1.00
Zn178  Zn    0.89769   0.16067   0.24479   0.00000  Uiso   1.00
N179   N     0.74376   0.10502   0.11885   0.00000  Uiso   1.00
H180   H     0.71636   0.13105   0.13516   0.00000  Uiso   1.00
H181   H     0.76164   0.08275   0.14257   0.00000  Uiso   1.00
N182   N     0.91764   0.23454   0.38019   0.00000  Uiso   1.00
H183   H     0.94659   0.21181   0.36160   0.00000  Uiso   1.00
H184   H     0.89563   0.25648   0.35858   0.00000  Uiso   1.00
O185   O     0.94415   0.27192   0.04660   0.00000  Uiso   1.00
C186   C     0.91274   0.31409   0.06365   0.00000  Uiso   1.00
H187   H     0.94389   0.01256   0.07335   0.00000  Uiso   1.00
H188   H     0.88533   0.30340   0.09411   0.00000  Uiso   1.00
H189   H     0.88522   0.32969   0.03862   0.00000  Uiso   1.00
O190   O     0.72083   0.06441   0.45366   0.00000  Uiso   1.00
C191   C     0.74782   0.02091   0.43424   0.00000  Uiso   1.00
H192   H     0.79571   0.02618   0.42877   0.00000  Uiso   1.00
H193   H     0.73033   0.01246   0.40101   0.00000  Uiso   1.00
H194   H     0.73654   0.31985   0.45515   0.00000  Uiso   1.00
O195   O     0.95218   0.27081   0.45520   0.00000  Uiso   1.00
C196   C     0.92977   0.31983   0.44980   0.00000  Uiso   1.00
H197   H     0.94605   0.01411   0.47561   0.00000  Uiso   1.00
H198   H     0.88165   0.31923   0.45062   0.00000  Uiso   1.00
H199   H     0.94629   0.00162   0.41674   0.00000  Uiso   1.00
O200   O     0.72395   0.05589   0.04398   0.00000  Uiso   1.00
C201   C     0.75708   0.01341   0.05239   0.00000  Uiso   1.00
H202   H     0.78877   0.02351   0.07795   0.00000  Uiso   1.00
H203   H     0.78036   0.33203   0.02153   0.00000  Uiso   1.00
H204   H     0.72759   0.31468   0.06570   0.00000  Uiso   1.00
N205   N     0.90673   0.00342   0.27728   0.00000  Uiso   1.00
H206   H     0.93608   0.02289   0.25470   0.00000  Uiso   1.00
H207   H     0.89560   0.02678   0.30516   0.00000  Uiso   1.00
N208   N     0.76054   0.32725   0.22505   0.00000  Uiso   1.00
H209   H     0.75845   0.01160   0.19417   0.00000  Uiso   1.00
H210   H     0.72421   0.00323   0.24543   0.00000  Uiso   1.00
C211   C     0.18165   0.59803   0.24904   0.00000  Uiso   1.00
C212   C     0.15180   0.40194   0.25148   0.00000  Uiso   1.00
C213   C     0.24417   0.57132   0.47698   0.00000  Uiso   1.00
C214   C     0.09297   0.42707   0.02275   0.00000  Uiso   1.00
C215   C     0.18903   0.65173   0.25520   0.00000  Uiso   1.00
C216   C     0.14492   0.34794   0.24586   0.00000  Uiso   1.00
C217   C     0.16795   0.50122   0.33641   0.00000  Uiso   1.00
C218   C     0.16543   0.49905   0.16354   0.00000  Uiso   1.00
C219   C     0.12264   0.46709   0.09386   0.00000  Uiso   1.00
C220   C     0.21018   0.53466   0.40575   0.00000  Uiso   1.00
C221   C     0.16337   0.49895   0.11588   0.00000  Uiso   1.00
C222   C     0.17023   0.50168   0.38401   0.00000  Uiso   1.00
C223   C     0.20450   0.53052   0.09257   0.00000  Uiso   1.00
C224   C     0.13044   0.46899   0.40734   0.00000  Uiso   1.00
C225   C     0.20401   0.53404   0.04658   0.00000  Uiso   1.00
C226   C     0.13064   0.46620   0.45335   0.00000  Uiso   1.00
C227   C     0.16655   0.49949   0.02327   0.00000  Uiso   1.00
C228   C     0.16861   0.50046   0.47652   0.00000  Uiso   1.00
C229   C     0.12705   0.46404   0.04686   0.00000  Uiso   1.00
C230   C     0.20827   0.53579   0.45287   0.00000  Uiso   1.00
C231   C     0.24103   0.57104   0.02377   0.00000  Uiso   1.00
C232   C     0.09363   0.42925   0.47621   0.00000  Uiso   1.00
H233   H     0.23594   0.55354   0.11098   0.00000  Uiso   1.00
H234   H     0.10032   0.44451   0.38887   0.00000  Uiso   1.00
H235   H     0.00464   0.46048   0.21660   0.00000  Uiso   1.00
H236   H     0.32870   0.53953   0.28338   0.00000  Uiso   1.00
N237   N     0.31678   0.48598   0.23783   0.00000  Uiso   1.00
N238   N     0.01656   0.51402   0.26217   0.00000  Uiso   1.00
O239   O     0.12975   0.57952   0.25299   0.00000  Uiso   1.00
O240   O     0.20358   0.42048   0.24702   0.00000  Uiso   1.00
O241   O     0.22613   0.57054   0.24519   0.00000  Uiso   1.00
O242   O     0.10720   0.42946   0.25482   0.00000  Uiso   1.00
O243   O     0.11847   0.50450   0.31998   0.00000  Uiso   1.00
O244   O     0.21486   0.49550   0.18003   0.00000  Uiso   1.00
O245   O     0.21485   0.49552   0.31218   0.00000  Uiso   1.00
O246   O     0.11848   0.50448   0.18783   0.00000  Uiso   1.00
Zn247  Zn    0.10231   0.50600   0.25521   0.00000  Uiso   1.00
Zn248  Zn    0.23102   0.49400   0.24479   0.00000  Uiso   1.00
N249   N     0.07709   0.43835   0.11885   0.00000  Uiso   1.00
H250   H     0.04970   0.46438   0.13516   0.00000  Uiso   1.00
H251   H     0.09497   0.41608   0.14257   0.00000  Uiso   1.00
N252   N     0.25098   0.56788   0.38019   0.00000  Uiso   1.00
H253   H     0.27992   0.54515   0.36160   0.00000  Uiso   1.00
H254   H     0.22896   0.58982   0.35858   0.00000  Uiso   1.00
O255   O     0.27748   0.60525   0.04660   0.00000  Uiso   1.00
C256   C     0.24607   0.64743   0.06365   0.00000  Uiso   1.00
H257   H     0.27722   0.34590   0.07335   0.00000  Uiso   1.00
H258   H     0.21866   0.63673   0.09411   0.00000  Uiso   1.00
H259   H     0.21855   0.66302   0.03862   0.00000  Uiso   1.00
O260   O     0.05417   0.39774   0.45366   0.00000  Uiso   1.00
C261   C     0.08115   0.35425   0.43424   0.00000  Uiso   1.00
H262   H     0.12904   0.35952   0.42877   0.00000  Uiso   1.00
H263   H     0.06366   0.34580   0.40101   0.00000  Uiso   1.00
H264   H     0.06987   0.65319   0.45515   0.00000  Uiso   1.00
O265   O     0.28552   0.60415   0.45520   0.00000  Uiso   1.00
C266   C     0.26310   0.65316   0.44980   0.00000  Uiso   1.00
H267   H     0.27939   0.34745   0.47561   0.00000  Uiso   1.00
H268   H     0.21499   0.65257   0.45062   0.00000  Uiso   1.00
H269   H     0.27962   0.33495   0.41674   0.00000  Uiso   1.00
O270   O     0.05729   0.38923   0.04398   0.00000  Uiso   1.00
C271   C     0.09041   0.34674   0.05239   0.00000  Uiso   1.00
H272   H     0.12210   0.35684   0.07795   0.00000  Uiso   1.00
H273   H     0.11370   0.66536   0.02153   0.00000  Uiso   1.00
H274   H     0.06092   0.64801   0.06570   0.00000  Uiso   1.00
N275   N     0.24006   0.33675   0.27728   0.00000  Uiso   1.00
H276   H     0.26941   0.35622   0.25470   0.00000  Uiso   1.00
H277   H     0.22893   0.36011   0.30516   0.00000  Uiso   1.00
N278   N     0.09387   0.66058   0.22505   0.00000  Uiso   1.00
H279   H     0.09178   0.34493   0.19417   0.00000  Uiso   1.00
H280   H     0.05755   0.33656   0.24543   0.00000  Uiso   1.00
C281   C     0.51498   0.59803   0.24904   0.00000  Uiso   1.00
C282   C     0.48513   0.40194   0.25148   0.00000  Uiso   1.00
C283   C     0.57750   0.57132   0.47698   0.00000  Uiso   1.00
C284   C     0.42631   0.42707   0.02275   0.00000  Uiso   1.00
C285   C     0.52237   0.65173   0.25520   0.00000  Uiso   1.00
C286   C     0.47825   0.34794   0.24586   0.00000  Uiso   1.00
C287   C     0.50128   0.50122   0.33641   0.00000  Uiso   1.00
C288   C     0.49877   0.49905   0.16354   0.00000  Uiso   1.00
C289   C     0.45597   0.46709   0.09386   0.00000  Uiso   1.00
C290   C     0.54352   0.53466   0.40575   0.00000  Uiso   1.00
C291   C     0.49670   0.49895   0.11588   0.00000  Uiso   1.00
C292   C     0.50357   0.50168   0.38401   0.00000  Uiso   1.00
C293   C     0.53783   0.53052   0.09257   0.00000  Uiso   1.00
C294   C     0.46377   0.46899   0.40734   0.00000  Uiso   1.00
C295   C     0.53734   0.53404   0.04658   0.00000  Uiso   1.00
C296   C     0.46397   0.46620   0.45335   0.00000  Uiso   1.00
C297   C     0.49988   0.49949   0.02327   0.00000  Uiso   1.00
C298   C     0.50195   0.50046   0.47652   0.00000  Uiso   1.00
C299   C     0.46038   0.46404   0.04686   0.00000  Uiso   1.00
C300   C     0.54160   0.53579   0.45287   0.00000  Uiso   1.00
C301   C     0.57436   0.57104   0.02377   0.00000  Uiso   1.00
C302   C     0.42696   0.42925   0.47621   0.00000  Uiso   1.00
H303   H     0.56927   0.55354   0.11098   0.00000  Uiso   1.00
H304   H     0.43365   0.44451   0.38887   0.00000  Uiso   1.00
H305   H     0.33797   0.46048   0.21660   0.00000  Uiso   1.00
H306   H     0.66204   0.53953   0.28338   0.00000  Uiso   1.00
N307   N     0.65011   0.48598   0.23783   0.00000  Uiso   1.00
N308   N     0.34989   0.51402   0.26217   0.00000  Uiso   1.00
O309   O     0.46308   0.57952   0.25299   0.00000  Uiso   1.00
O310   O     0.53692   0.42048   0.24702   0.00000  Uiso   1.00
O311   O     0.55946   0.57054   0.24519   0.00000  Uiso   1.00
O312   O     0.44054   0.42946   0.25482   0.00000  Uiso   1.00
O313   O     0.45181   0.50450   0.31998   0.00000  Uiso   1.00
O314   O     0.54819   0.49550   0.18003   0.00000  Uiso   1.00
O315   O     0.54819   0.49552   0.31218   0.00000  Uiso   1.00
O316   O     0.45181   0.50448   0.18783   0.00000  Uiso   1.00
Zn317  Zn    0.43565   0.50600   0.25521   0.00000  Uiso   1.00
Zn318  Zn    0.56435   0.49400   0.24479   0.00000  Uiso   1.00
N319   N     0.41042   0.43835   0.11885   0.00000  Uiso   1.00
H320   H     0.38303   0.46438   0.13516   0.00000  Uiso   1.00
H321   H     0.42831   0.41608   0.14257   0.00000  Uiso   1.00
N322   N     0.58431   0.56788   0.38019   0.00000  Uiso   1.00
H323   H     0.61325   0.54515   0.36160   0.00000  Uiso   1.00
H324   H     0.56229   0.58982   0.35858   0.00000  Uiso   1.00
O325   O     0.61081   0.60525   0.04660   0.00000  Uiso   1.00
C326   C     0.57941   0.64743   0.06365   0.00000  Uiso   1.00
H327   H     0.61056   0.34590   0.07335   0.00000  Uiso   1.00
H328   H     0.55199   0.63673   0.09411   0.00000  Uiso   1.00
H329   H     0.55189   0.66302   0.03862   0.00000  Uiso   1.00
O330   O     0.38750   0.39774   0.45366   0.00000  Uiso   1.00
C331   C     0.41449   0.35425   0.43424   0.00000  Uiso   1.00
H332   H     0.46238   0.35952   0.42877   0.00000  Uiso   1.00
H333   H     0.39699   0.34580   0.40101   0.00000  Uiso   1.00
H334   H     0.40320   0.65319   0.45515   0.00000  Uiso   1.00
O335   O     0.61885   0.60415   0.45520   0.00000  Uiso   1.00
C336   C     0.59643   0.65316   0.44980   0.00000  Uiso   1.00
H337   H     0.61272   0.34745   0.47561   0.00000  Uiso   1.00
H338   H     0.54832   0.65257   0.45062   0.00000  Uiso   1.00
H339   H     0.61296   0.33495   0.41674   0.00000  Uiso   1.00
O340   O     0.39062   0.38923   0.04398   0.00000  Uiso   1.00
C341   C     0.42374   0.34674   0.05239   0.00000  Uiso   1.00
H342   H     0.45544   0.35684   0.07795   0.00000  Uiso   1.00
H343   H     0.44703   0.66536   0.02153   0.00000  Uiso   1.00
H344   H     0.39426   0.64801   0.06570   0.00000  Uiso   1.00
N345   N     0.57340   0.33675   0.27728   0.00000  Uiso   1.00
H346   H     0.60274   0.35622   0.25470   0.00000  Uiso   1.00
H347   H     0.56226   0.36011   0.30516   0.00000  Uiso   1.00
N348   N     0.42720   0.66058   0.22505   0.00000  Uiso   1.00
H349   H     0.42512   0.34493   0.19417   0.00000  Uiso   1.00
H350   H     0.39088   0.33656   0.24543   0.00000  Uiso   1.00
C351   C     0.84831   0.59803   0.24904   0.00000  Uiso   1.00
C352   C     0.81847   0.40194   0.25148   0.00000  Uiso   1.00
C353   C     0.91083   0.57132   0.47698   0.00000  Uiso   1.00
C354   C     0.75964   0.42707   0.02275   0.00000  Uiso   1.00
C355   C     0.85570   0.65173   0.25520   0.00000  Uiso   1.00
C356   C     0.81158   0.34794   0.24586   0.00000  Uiso   1.00
C357   C     0.83462   0.50122   0.33641   0.00000  Uiso   1.00
C358   C     0.83210   0.49905   0.16354   0.00000  Uiso   1.00
C359   C     0.78931   0.46709   0.09386   0.00000  Uiso   1.00
C360   C     0.87685   0.53466   0.40575   0.00000  Uiso   1.00
C361   C     0.83004   0.49895   0.11588   0.00000  Uiso   1.00
C362   C     0.83690   0.50168   0.38401   0.00000  Uiso   1.00
C363   C     0.87117   0.53052   0.09257   0.00000  Uiso   1.00
C364   C     0.79711   0.46899   0.40734   0.00000  Uiso   1.00
C365   C     0.87068   0.53404   0.04658   0.00000  Uiso   1.00
C366   C     0.79730   0.46620   0.45335   0.00000  Uiso   1.00
C367   C     0.83322   0.49949   0.02327   0.00000  Uiso   1.00
C368   C     0.83528   0.50046   0.47652   0.00000  Uiso   1.00
C369   C     0.79371   0.46404   0.04686   0.00000  Uiso   1.00
C370   C     0.87493   0.53579   0.45287   0.00000  Uiso   1.00
C371   C     0.90769   0.57104   0.02377   0.00000  Uiso   1.00
C372   C     0.76030   0.42925   0.47621   0.00000  Uiso   1.00
H373   H     0.90261   0.55354   0.11098   0.00000  Uiso   1.00
H374   H     0.76699   0.44451   0.38887   0.00000  Uiso   1.00
H375   H     0.67130   0.46048   0.21660   0.00000  Uiso   1.00
H376   H     0.99537   0.53953   0.28338   0.00000  Uiso   1.00
N377   N     0.98344   0.48598   0.23783   0.00000  Uiso   1.00
N378   N     0.68322   0.51402   0.26217   0.00000  Uiso   1.00
O379   O     0.79642   0.57952   0.25299   0.00000  Uiso   1.00
O380   O     0.87025   0.42048   0.24702   0.00000  Uiso   1.00
O381   O     0.89280   0.57054   0.24519   0.00000  Uiso   1.00
O382   O     0.77387   0.42946   0.25482   0.00000  Uiso   1.00
O383   O     0.78514   0.50450   0.31998   0.00000  Uiso   1.00
O384   O     0.88153   0.49550   0.18003   0.00000  Uiso   1.00
O385   O     0.88152   0.49552   0.31218   0.00000  Uiso   1.00
O386   O     0.78515   0.50448   0.18783   0.00000  Uiso   1.00
Zn387  Zn    0.76898   0.50600   0.25521   0.00000  Uiso   1.00
Zn388  Zn    0.89769   0.49400   0.24479   0.00000  Uiso   1.00
N389   N     0.74376   0.43835   0.11885   0.00000  Uiso   1.00
H390   H     0.71636   0.46438   0.13516   0.00000  Uiso   1.00
H391   H     0.76164   0.41608   0.14257   0.00000  Uiso   1.00
N392   N     0.91764   0.56788   0.38019   0.00000  Uiso   1.00
H393   H     0.94659   0.54515   0.36160   0.00000  Uiso   1.00
H394   H     0.89563   0.58982   0.35858   0.00000  Uiso   1.00
O395   O     0.94415   0.60525   0.04660   0.00000  Uiso   1.00
C396   C     0.91274   0.64743   0.06365   0.00000  Uiso   1.00
H397   H     0.94389   0.34590   0.07335   0.00000  Uiso   1.00
H398   H     0.88533   0.63673   0.09411   0.00000  Uiso   1.00
H399   H     0.88522   0.66302   0.03862   0.00000  Uiso   1.00
O400   O     0.72083   0.39774   0.45366   0.00000  Uiso   1.00
C401   C     0.74782   0.35425   0.43424   0.00000  Uiso   1.00
H402   H     0.79571   0.35952   0.42877   0.00000  Uiso   1.00
H403   H     0.73033   0.34580   0.40101   0.00000  Uiso   1.00
H404   H     0.73654   0.65319   0.45515   0.00000  Uiso   1.00
O405   O     0.95218   0.60415   0.45520   0.00000  Uiso   1.00
C406   C     0.92977   0.65316   0.44980   0.00000  Uiso   1.00
H407   H     0.94605   0.34745   0.47561   0.00000  Uiso   1.00
H408   H     0.88165   0.65257   0.45062   0.00000  Uiso   1.00
H409   H     0.94629   0.33495   0.41674   0.00000  Uiso   1.00
O410   O     0.72395   0.38923   0.04398   0.00000  Uiso   1.00
C411   C     0.75708   0.34674   0.05239   0.00000  Uiso   1.00
H412   H     0.78877   0.35684   0.07795   0.00000  Uiso   1.00
H413   H     0.78036   0.66536   0.02153   0.00000  Uiso   1.00
H414   H     0.72759   0.64801   0.06570   0.00000  Uiso   1.00
N415   N     0.90673   0.33675   0.27728   0.00000  Uiso   1.00
H416   H     0.93608   0.35622   0.25470   0.00000  Uiso   1.00
H417   H     0.89560   0.36011   0.30516   0.00000  Uiso   1.00
N418   N     0.76054   0.66058   0.22505   0.00000  Uiso   1.00
H419   H     0.75845   0.34493   0.19417   0.00000  Uiso   1.00
H420   H     0.72421   0.33656   0.24543   0.00000  Uiso   1.00
C421   C     0.18165   0.93136   0.24904   0.00000  Uiso   1.00
C422   C     0.15180   0.73528   0.25148   0.00000  Uiso   1.00
C423   C     0.24417   0.90465   0.47698   0.00000  Uiso   1.00
C424   C     0.09297   0.76040   0.02275   0.00000  Uiso   1.00
C425   C     0.18903   0.98506   0.25520   0.00000  Uiso   1.00
C426   C     0.14492   0.68127   0.24586   0.00000  Uiso   1.00
C427   C     0.16795   0.83456   0.33641   0.00000  Uiso   1.00
C428   C     0.16543   0.83239   0.16354   0.00000  Uiso   1.00
C429   C     0.12264   0.80043   0.09386   0.00000  Uiso   1.00
C430   C     0.21018   0.86800   0.40575   0.00000  Uiso   1.00
C431   C     0.16337   0.83228   0.11588   0.00000  Uiso   1.00
C432   C     0.17023   0.83501   0.38401   0.00000  Uiso   1.00
C433   C     0.20450   0.86385   0.09257   0.00000  Uiso   1.00
C434   C     0.13044   0.80233   0.40734   0.00000  Uiso   1.00
C435   C     0.20401   0.86737   0.04658   0.00000  Uiso   1.00
C436   C     0.13064   0.79953   0.45335   0.00000  Uiso   1.00
C437   C     0.16655   0.83283   0.02327   0.00000  Uiso   1.00
C438   C     0.16861   0.83379   0.47652   0.00000  Uiso   1.00
C439   C     0.12705   0.79737   0.04686   0.00000  Uiso   1.00
C440   C     0.20827   0.86913   0.45287   0.00000  Uiso   1.00
C441   C     0.24103   0.90438   0.02377   0.00000  Uiso   1.00
C442   C     0.09363   0.76258   0.47621   0.00000  Uiso   1.00
H443   H     0.23594   0.88687   0.11098   0.00000  Uiso   1.00
H444   H     0.10032   0.77784   0.38887   0.00000  Uiso   1.00
H445   H     0.00464   0.79382   0.21660   0.00000  Uiso   1.00
H446   H     0.32870   0.87286   0.28338   0.00000  Uiso   1.00
N447   N     0.31678   0.81932   0.23783   0.00000  Uiso   1.00
N448   N     0.01656   0.84735   0.26217   0.00000  Uiso   1.00
O449   O     0.12975   0.91286   0.25299   0.00000  Uiso   1.00
O450   O     0.20358   0.75381   0.24702   0.00000  Uiso   1.00
O451   O     0.22613   0.90387   0.24519   0.00000  Uiso   1.00
O452   O     0.10720   0.76279   0.25482   0.00000  Uiso   1.00
O453   O     0.11847   0.83784   0.31998   0.00000  Uiso   1.00
O454   O     0.21486   0.82883   0.18003   0.00000  Uiso   1.00
O455   O     0.21485   0.82885   0.31218   0.00000  Uiso   1.00
O456   O     0.11848   0.83781   0.18783   0.00000  Uiso   1.00
Zn457  Zn    0.10231   0.83933   0.25521   0.00000  Uiso   1.00
Zn458  Zn    0.23102   0.82734   0.24479   0.00000  Uiso   1.00
N459   N     0.07709   0.77169   0.11885   0.00000  Uiso   1.00
H460   H     0.04970   0.79772   0.13516   0.00000  Uiso   1.00
H461   H     0.09497   0.74941   0.14257   0.00000  Uiso   1.00
N462   N     0.25098   0.90121   0.38019   0.00000  Uiso   1.00
H463   H     0.27992   0.87848   0.36160   0.00000  Uiso   1.00
H464   H     0.22896   0.92315   0.35858   0.00000  Uiso   1.00
O465   O     0.27748   0.93859   0.04660   0.00000  Uiso   1.00
C466   C     0.24607   0.98076   0.06365   0.00000  Uiso   1.00
H467   H     0.27722   0.67923   0.07335   0.00000  Uiso   1.00
H468   H     0.21866   0.97006   0.09411   0.00000  Uiso   1.00
H469   H     0.21855   0.99636   0.03862   0.00000  Uiso   1.00
O470   O     0.05417   0.73108   0.45366   0.00000  Uiso   1.00
C471   C     0.08115   0.68758   0.43424   0.00000  Uiso   1.00
H472   H     0.12904   0.69285   0.42877   0.00000  Uiso   1.00
H473   H     0.06366   0.67913   0.40101   0.00000  Uiso   1.00
H474   H     0.06987   0.98652   0.45515   0.00000  Uiso   1.00
O475   O     0.28552   0.93748   0.45520   0.00000  Uiso   1.00
C476   C     0.26310   0.98649   0.44980   0.00000  Uiso   1.00
H477   H     0.27939   0.68078   0.47561   0.00000  Uiso   1.00
H478   H     0.21499   0.98590   0.45062   0.00000  Uiso   1.00
H479   H     0.27962   0.66829   0.41674   0.00000  Uiso   1.00
O480   O     0.05729   0.72256   0.04398   0.00000  Uiso   1.00
C481   C     0.09041   0.68007   0.05239   0.00000  Uiso   1.00
H482   H     0.12210   0.69018   0.07795   0.00000  Uiso   1.00
H483   H     0.11370   0.99869   0.02153   0.00000  Uiso   1.00
H484   H     0.06092   0.98135   0.06570   0.00000  Uiso   1.00
N485   N     0.24006   0.67008   0.27728   0.00000  Uiso   1.00
H486   H     0.26941   0.68955   0.25470   0.00000  Uiso   1.00
H487   H     0.22893   0.69344   0.30516   0.00000  Uiso   1.00
N488   N     0.09387   0.99391   0.22505   0.00000  Uiso   1.00
H489   H     0.09178   0.67827   0.19417   0.00000  Uiso   1.00
H490   H     0.05755   0.66990   0.24543   0.00000  Uiso   1.00
C491   C     0.51498   0.93136   0.24904   0.00000  Uiso   1.00
C492   C     0.48513   0.73528   0.25148   0.00000  Uiso   1.00
C493   C     0.57750   0.90465   0.47698   0.00000  Uiso   1.00
C494   C     0.42631   0.76040   0.02275   0.00000  Uiso   1.00
C495   C     0.52237   0.98506   0.25520   0.00000  Uiso   1.00
C496   C     0.47825   0.68127   0.24586   0.00000  Uiso   1.00
C497   C     0.50128   0.83456   0.33641   0.00000  Uiso   1.00
C498   C     0.49877   0.83239   0.16354   0.00000  Uiso   1.00
C499   C     0.45597   0.80043   0.09386   0.00000  Uiso   1.00
C500   C     0.54352   0.86800   0.40575   0.00000  Uiso   1.00
C501   C     0.49670   0.83228   0.11588   0.00000  Uiso   1.00
C502   C     0.50357   0.83501   0.38401   0.00000  Uiso   1.00
C503   C     0.53783   0.86385   0.09257   0.00000  Uiso   1.00
C504   C     0.46377   0.80233   0.40734   0.00000  Uiso   1.00
C505   C     0.53734   0.86737   0.04658   0.00000  Uiso   1.00
C506   C     0.46397   0.79953   0.45335   0.00000  Uiso   1.00
C507   C     0.49988   0.83283   0.02327   0.00000  Uiso   1.00
C508   C     0.50195   0.83379   0.47652   0.00000  Uiso   1.00
C509   C     0.46038   0.79737   0.04686   0.00000  Uiso   1.00
C510   C     0.54160   0.86913   0.45287   0.00000  Uiso   1.00
C511   C     0.57436   0.90438   0.02377   0.00000  Uiso   1.00
C512   C     0.42696   0.76258   0.47621   0.00000  Uiso   1.00
H513   H     0.56927   0.88687   0.11098   0.00000  Uiso   1.00
H514   H     0.43365   0.77784   0.38887   0.00000  Uiso   1.00
H515   H     0.33797   0.79382   0.21660   0.00000  Uiso   1.00
H516   H     0.66204   0.87286   0.28338   0.00000  Uiso   1.00
N517   N     0.65011   0.81932   0.23783   0.00000  Uiso   1.00
N518   N     0.34989   0.84735   0.26217   0.00000  Uiso   1.00
O519   O     0.46308   0.91286   0.25299   0.00000  Uiso   1.00
O520   O     0.53692   0.75381   0.24702   0.00000  Uiso   1.00
O521   O     0.55946   0.90387   0.24519   0.00000  Uiso   1.00
O522   O     0.44054   0.76279   0.25482   0.00000  Uiso   1.00
O523   O     0.45181   0.83784   0.31998   0.00000  Uiso   1.00
O524   O     0.54819   0.82883   0.18003   0.00000  Uiso   1.00
O525   O     0.54819   0.82885   0.31218   0.00000  Uiso   1.00
O526   O     0.45181   0.83781   0.18783   0.00000  Uiso   1.00
Zn527  Zn    0.43565   0.83933   0.25521   0.00000  Uiso   1.00
Zn528  Zn    0.56435   0.82734   0.24479   0.00000  Uiso   1.00
N529   N     0.41042   0.77169   0.11885   0.00000  Uiso   1.00
H530   H     0.38303   0.79772   0.13516   0.00000  Uiso   1.00
H531   H     0.42831   0.74941   0.14257   0.00000  Uiso   1.00
N532   N     0.58431   0.90121   0.38019   0.00000  Uiso   1.00
H533   H     0.61325   0.87848   0.36160   0.00000  Uiso   1.00
H534   H     0.56229   0.92315   0.35858   0.00000  Uiso   1.00
O535   O     0.61081   0.93859   0.04660   0.00000  Uiso   1.00
C536   C     0.57941   0.98076   0.06365   0.00000  Uiso   1.00
H537   H     0.61056   0.67923   0.07335   0.00000  Uiso   1.00
H538   H     0.55199   0.97006   0.09411   0.00000  Uiso   1.00
H539   H     0.55189   0.99636   0.03862   0.00000  Uiso   1.00
O540   O     0.38750   0.73108   0.45366   0.00000  Uiso   1.00
C541   C     0.41449   0.68758   0.43424   0.00000  Uiso   1.00
H542   H     0.46238   0.69285   0.42877   0.00000  Uiso   1.00
H543   H     0.39699   0.67913   0.40101   0.00000  Uiso   1.00
H544   H     0.40320   0.98652   0.45515   0.00000  Uiso   1.00
O545   O     0.61885   0.93748   0.45520   0.00000  Uiso   1.00
C546   C     0.59643   0.98649   0.44980   0.00000  Uiso   1.00
H547   H     0.61272   0.68078   0.47561   0.00000  Uiso   1.00
H548   H     0.54832   0.98590   0.45062   0.00000  Uiso   1.00
H549   H     0.61296   0.66829   0.41674   0.00000  Uiso   1.00
O550   O     0.39062   0.72256   0.04398   0.00000  Uiso   1.00
C551   C     0.42374   0.68007   0.05239   0.00000  Uiso   1.00
H552   H     0.45544   0.69018   0.07795   0.00000  Uiso   1.00
H553   H     0.44703   0.99869   0.02153   0.00000  Uiso   1.00
H554   H     0.39426   0.98135   0.06570   0.00000  Uiso   1.00
N555   N     0.57340   0.67008   0.27728   0.00000  Uiso   1.00
H556   H     0.60274   0.68955   0.25470   0.00000  Uiso   1.00
H557   H     0.56226   0.69344   0.30516   0.00000  Uiso   1.00
N558   N     0.42720   0.99391   0.22505   0.00000  Uiso   1.00
H559   H     0.42512   0.67827   0.19417   0.00000  Uiso   1.00
H560   H     0.39088   0.66990   0.24543   0.00000  Uiso   1.00
C561   C     0.84831   0.93136   0.24904   0.00000  Uiso   1.00
C562   C     0.81847   0.73528   0.25148   0.00000  Uiso   1.00
C563   C     0.91083   0.90465   0.47698   0.00000  Uiso   1.00
C564   C     0.75964   0.76040   0.02275   0.00000  Uiso   1.00
C565   C     0.85570   0.98506   0.25520   0.00000  Uiso   1.00
C566   C     0.81158   0.68127   0.24586   0.00000  Uiso   1.00
C567   C     0.83462   0.83456   0.33641   0.00000  Uiso   1.00
C568   C     0.83210   0.83239   0.16354   0.00000  Uiso   1.00
C569   C     0.78931   0.80043   0.09386   0.00000  Uiso   1.00
C570   C     0.87685   0.86800   0.40575   0.00000  Uiso   1.00
C571   C     0.83004   0.83228   0.11588   0.00000  Uiso   1.00
C572   C     0.83690   0.83501   0.38401   0.00000  Uiso   1.00
C573   C     0.87117   0.86385   0.09257   0.00000  Uiso   1.00
C574   C     0.79711   0.80233   0.40734   0.00000  Uiso   1.00
C575   C     0.87068   0.86737   0.04658   0.00000  Uiso   1.00
C576   C     0.79730   0.79953   0.45335   0.00000  Uiso   1.00
C577   C     0.83322   0.83283   0.02327   0.00000  Uiso   1.00
C578   C     0.83528   0.83379   0.47652   0.00000  Uiso   1.00
C579   C     0.79371   0.79737   0.04686   0.00000  Uiso   1.00
C580   C     0.87493   0.86913   0.45287   0.00000  Uiso   1.00
C581   C     0.90769   0.90438   0.02377   0.00000  Uiso   1.00
C582   C     0.76030   0.76258   0.47621   0.00000  Uiso   1.00
H583   H     0.90261   0.88687   0.11098   0.00000  Uiso   1.00
H584   H     0.76699   0.77784   0.38887   0.00000  Uiso   1.00
H585   H     0.67130   0.79382   0.21660   0.00000  Uiso   1.00
H586   H     0.99537   0.87286   0.28338   0.00000  Uiso   1.00
N587   N     0.98344   0.81932   0.23783   0.00000  Uiso   1.00
N588   N     0.68322   0.84735   0.26217   0.00000  Uiso   1.00
O589   O     0.79642   0.91286   0.25299   0.00000  Uiso   1.00
O590   O     0.87025   0.75381   0.24702   0.00000  Uiso   1.00
O591   O     0.89280   0.90387   0.24519   0.00000  Uiso   1.00
O592   O     0.77387   0.76279   0.25482   0.00000  Uiso   1.00
O593   O     0.78514   0.83784   0.31998   0.00000  Uiso   1.00
O594   O     0.88153   0.82883   0.18003   0.00000  Uiso   1.00
O595   O     0.88152   0.82885   0.31218   0.00000  Uiso   1.00
O596   O     0.78515   0.83781   0.18783   0.00000  Uiso   1.00
Zn597  Zn    0.76898   0.83933   0.25521   0.00000  Uiso   1.00
Zn598  Zn    0.89769   0.82734   0.24479   0.00000  Uiso   1.00
N599   N     0.74376   0.77169   0.11885   0.00000  Uiso   1.00
H600   H     0.71636   0.79772   0.13516   0.00000  Uiso   1.00
H601   H     0.76164   0.74941   0.14257   0.00000  Uiso   1.00
N602   N     0.91764   0.90121   0.38019   0.00000  Uiso   1.00
H603   H     0.94659   0.87848   0.36160   0.00000  Uiso   1.00
H604   H     0.89563   0.92315   0.35858   0.00000  Uiso   1.00
O605   O     0.94415   0.93859   0.04660   0.00000  Uiso   1.00
C606   C     0.91274   0.98076   0.06365   0.00000  Uiso   1.00
H607   H     0.94389   0.67923   0.07335   0.00000  Uiso   1.00
H608   H     0.88533   0.97006   0.09411   0.00000  Uiso   1.00
H609   H     0.88522   0.99636   0.03862   0.00000  Uiso   1.00
O610   O     0.72083   0.73108   0.45366   0.00000  Uiso   1.00
C611   C     0.74782   0.68758   0.43424   0.00000  Uiso   1.00
H612   H     0.79571   0.69285   0.42877   0.00000  Uiso   1.00
H613   H     0.73033   0.67913   0.40101   0.00000  Uiso   1.00
H614   H     0.73654   0.98652   0.45515   0.00000  Uiso   1.00
O615   O     0.95218   0.93748   0.45520   0.00000  Uiso   1.00
C616   C     0.92977   0.98649   0.44980   0.00000  Uiso   1.00
H617   H     0.94605   0.68078   0.47561   0.00000  Uiso   1.00
H618   H     0.88165   0.98590   0.45062   0.00000  Uiso   1.00
H619   H     0.94629   0.66829   0.41674   0.00000  Uiso   1.00
O620   O     0.72395   0.72256   0.04398   0.00000  Uiso   1.00
C621   C     0.75708   0.68007   0.05239   0.00000  Uiso   1.00
H622   H     0.78877   0.69018   0.07795   0.00000  Uiso   1.00
H623   H     0.78036   0.99869   0.02153   0.00000  Uiso   1.00
H624   H     0.72759   0.98135   0.06570   0.00000  Uiso   1.00
N625   N     0.90673   0.67008   0.27728   0.00000  Uiso   1.00
H626   H     0.93608   0.68955   0.25470   0.00000  Uiso   1.00
H627   H     0.89560   0.69344   0.30516   0.00000  Uiso   1.00
N628   N     0.76054   0.99391   0.22505   0.00000  Uiso   1.00
H629   H     0.75845   0.67827   0.19417   0.00000  Uiso   1.00
H630   H     0.72421   0.66990   0.24543   0.00000  Uiso   1.00
C631   C     0.18165   0.26470   0.74904   0.00000  Uiso   1.00
C632   C     0.15180   0.06861   0.75148   0.00000  Uiso   1.00
C633   C     0.24417   0.23798   0.97698   0.00000  Uiso   1.00
C634   C     0.09297   0.09373   0.52275   0.00000  Uiso   1.00
C635   C     0.18903   0.31839   0.75520   0.00000  Uiso   1.00
C636   C     0.14492   0.01461   0.74586   0.00000  Uiso   1.00
C637   C     0.16795   0.16789   0.83641   0.00000  Uiso   1.00
C638   C     0.16543   0.16572   0.66354   0.00000  Uiso   1.00
C639   C     0.12264   0.13376   0.59386   0.00000  Uiso   1.00
C640   C     0.21018   0.20133   0.90575   0.00000  Uiso   1.00
C641   C     0.16337   0.16561   0.61588   0.00000  Uiso   1.00
C642   C     0.17023   0.16835   0.88401   0.00000  Uiso   1.00
C643   C     0.20450   0.19718   0.59257   0.00000  Uiso   1.00
C644   C     0.13044   0.13566   0.90734   0.00000  Uiso   1.00
C645   C     0.20401   0.20070   0.54658   0.00000  Uiso   1.00
C646   C     0.13064   0.13286   0.95335   0.00000  Uiso   1.00
C647   C     0.16655   0.16616   0.52327   0.00000  Uiso   1.00
C648   C     0.16861   0.16713   0.97652   0.00000  Uiso   1.00
C649   C     0.12705   0.13070   0.54686   0.00000  Uiso   1.00
C650   C     0.20827   0.20246   0.95287   0.00000  Uiso   1.00
C651   C     0.24103   0.23771   0.52377   0.00000  Uiso   1.00
C652   C     0.09363   0.09592   0.97621   0.00000  Uiso   1.00
H653   H     0.23594   0.22020   0.61098   0.00000  Uiso   1.00
H654   H     0.10032   0.11118   0.88887   0.00000  Uiso   1.00
H655   H     0.00464   0.12715   0.71660   0.00000  Uiso   1.00
H656   H     0.32870   0.20619   0.78338   0.00000  Uiso   1.00
N657   N     0.31678   0.15265   0.73783   0.00000  Uiso   1.00
N658   N     0.01656   0.18068   0.76217   0.00000  Uiso   1.00
O659   O     0.12975   0.24619   0.75299   0.00000  Uiso   1.00
O660   O     0.20358   0.08714   0.74702   0.00000  Uiso   1.00
O661   O     0.22613   0.23721   0.74519   0.00000  Uiso   1.00
O662   O     0.10720   0.09613   0.75482   0.00000  Uiso   1.00
O663   O     0.11847   0.17117   0.81998   0.00000  Uiso   1.00
O664   O     0.21486   0.16216   0.68003   0.00000  Uiso   1.00
O665   O     0.21485   0.16219   0.81218   0.00000  Uiso   1.00
O666   O     0.11848   0.17115   0.68783   0.00000  Uiso   1.00
Zn667  Zn    0.10231   0.17266   0.75521   0.00000  Uiso   1.00
Zn668  Zn    0.23102   0.16067   0.74479   0.00000  Uiso   1.00
N669   N     0.07709   0.10502   0.61885   0.00000  Uiso   1.00
H670   H     0.04970   0.13105   0.63516   0.00000  Uiso   1.00
H671   H     0.09497   0.08275   0.64257   0.00000  Uiso   1.00
N672   N     0.25098   0.23454   0.88019   0.00000  Uiso   1.00
H673   H     0.27992   0.21181   0.86160   0.00000  Uiso   1.00
H674   H     0.22896   0.25648   0.85858   0.00000  Uiso   1.00
O675   O     0.27748   0.27192   0.54660   0.00000  Uiso   1.00
C676   C     0.24607   0.31409   0.56365   0.00000  Uiso   1.00
H677   H     0.27722   0.01256   0.57335   0.00000  Uiso   1.00
H678   H     0.21866   0.30340   0.59411   0.00000  Uiso   1.00
H679   H     0.21855   0.32969   0.53862   0.00000  Uiso   1.00
O680   O     0.05417   0.06441   0.95366   0.00000  Uiso   1.00
C681   C     0.08115   0.02091   0.93424   0.00000  Uiso   1.00
H682   H     0.12904   0.02618   0.92877   0.00000  Uiso   1.00
H683   H     0.06366   0.01246   0.90101   0.00000  Uiso   1.00
H684   H     0.06987   0.31985   0.95515   0.00000  Uiso   1.00
O685   O     0.28552   0.27081   0.95520   0.00000  Uiso   1.00
C686   C     0.26310   0.31983   0.94980   0.00000  Uiso   1.00
H687   H     0.27939   0.01411   0.97561   0.00000  Uiso   1.00
H688   H     0.21499   0.31923   0.95062   0.00000  Uiso   1.00
H689   H     0.27962   0.00162   0.91674   0.00000  Uiso   1.00
O690   O     0.05729   0.05589   0.54398   0.00000  Uiso   1.00
C691   C     0.09041   0.01341   0.55239   0.00000  Uiso   1.00
H692   H     0.12210   0.02351   0.57795   0.00000  Uiso   1.00
H693   H     0.11370   0.33203   0.52153   0.00000  Uiso   1.00
H694   H     0.06092   0.31468   0.56570   0.00000  Uiso   1.00
N695   N     0.24006   0.00342   0.77728   0.00000  Uiso   1.00
H696   H     0.26941   0.02289   0.75470   0.00000  Uiso   1.00
H697   H     0.22893   0.02678   0.80516   0.00000  Uiso   1.00
N698   N     0.09387   0.32725   0.72505   0.00000  Uiso   1.00
H699   H     0.09178   0.01160   0.69417   0.00000  Uiso   1.00
H700   H     0.05755   0.00323   0.74543   0.00000  Uiso   1.00
C701   C     0.51498   0.26470   0.74904   0.00000  Uiso   1.00
C702   C     0.48513   0.06861   0.75148   0.00000  Uiso   1.00
C703   C     0.57750   0.23798   0.97698   0.00000  Uiso   1.00
C704   C     0.42631   0.09373   0.52275   0.00000  Uiso   1.00
C705   C     0.52237   0.31839   0.75520   0.00000  Uiso   1.00
C706   C     0.47825   0.01461   0.74586   0.00000  Uiso   1.00
C707   C     0.50128   0.16789   0.83641   0.00000  Uiso   1.00
C708   C     0.49877   0.16572   0.66354   0.00000  Uiso   1.00
C709   C     0.45597   0.13376   0.59386   0.00000  Uiso   1.00
C710   C     0.54352   0.20133   0.90575   0.00000  Uiso   1.00
C711   C     0.49670   0.16561   0.61588   0.00000  Uiso   1.00
C712   C     0.50357   0.16835   0.88401   0.00000  Uiso   1.00
C713   C     0.53783   0.19718   0.59257   0.00000  Uiso   1.00
C714   C     0.46377   0.13566   0.90734   0.00000  Uiso   1.00
C715   C     0.53734   0.20070   0.54658   0.00000  Uiso   1.00
C716   C     0.46397   0.13286   0.95335   0.00000  Uiso   1.00
C717   C     0.49988   0.16616   0.52327   0.00000  Uiso   1.00
C718   C     0.50195   0.16713   0.97652   0.00000  Uiso   1.00
C719   C     0.46038   0.13070   0.54686   0.00000  Uiso   1.00
C720   C     0.54160   0.20246   0.95287   0.00000  Uiso   1.00
C721   C     0.57436   0.23771   0.52377   0.00000  Uiso   1.00
C722   C     0.42696   0.09592   0.97621   0.00000  Uiso   1.00
H723   H     0.56927   0.22020   0.61098   0.00000  Uiso   1.00
H724   H     0.43365   0.11118   0.88887   0.00000  Uiso   1.00
H725   H     0.33797   0.12715   0.71660   0.00000  Uiso   1.00
H726   H     0.66204   0.20619   0.78338   0.00000  Uiso   1.00
N727   N     0.65011   0.15265   0.73783   0.00000  Uiso   1.00
N728   N     0.34989   0.18068   0.76217   0.00000  Uiso   1.00
O729   O     0.46308   0.24619   0.75299   0.00000  Uiso   1.00
O730   O     0.53692   0.08714   0.74702   0.00000  Uiso   1.00
O731   O     0.55946   0.23721   0.74519   0.00000  Uiso   1.00
O732   O     0.44054   0.09613   0.75482   0.00000  Uiso   1.00
O733   O     0.45181   0.17117   0.81998   0.00000  Uiso   1.00
O734   O     0.54819   0.16216   0.68003   0.00000  Uiso   1.00
O735   O     0.54819   0.16219   0.81218   0.00000  Uiso   1.00
O736   O     0.45181   0.17115   0.68783   0.00000  Uiso   1.00
Zn737  Zn    0.43565   0.17266   0.75521   0.00000  Uiso   1.00
Zn738  Zn    0.56435   0.16067   0.74479   0.00000  Uiso   1.00
N739   N     0.41042   0.10502   0.61885   0.00000  Uiso   1.00
H740   H     0.38303   0.13105   0.63516   0.00000  Uiso   1.00
H741   H     0.42831   0.08275   0.64257   0.00000  Uiso   1.00
N742   N     0.58431   0.23454   0.88019   0.00000  Uiso   1.00
H743   H     0.61325   0.21181   0.86160   0.00000  Uiso   1.00
H744   H     0.56229   0.25648   0.85858   0.00000  Uiso   1.00
O745   O     0.61081   0.27192   0.54660   0.00000  Uiso   1.00
C746   C     0.57941   0.31409   0.56365   0.00000  Uiso   1.00
H747   H     0.61056   0.01256   0.57335   0.00000  Uiso   1.00
H748   H     0.55199   0.30340   0.59411   0.00000  Uiso   1.00
H749   H     0.55189   0.32969   0.53862   0.00000  Uiso   1.00
O750   O     0.38750   0.06441   0.95366   0.00000  Uiso   1.00
C751   C     0.41449   0.02091   0.93424   0.00000  Uiso   1.00
H752   H     0.46238   0.02618   0.92877   0.00000  Uiso   1.00
H753   H     0.39699   0.01246   0.90101   0.00000  Uiso   1.00
H754   H     0.40320   0.31985   0.95515   0.00000  Uiso   1.00
O755   O     0.61885   0.27081   0.95520   0.00000  Uiso   1.00
C756   C     0.59643   0.31983   0.94980   0.00000  Uiso   1.00
H757   H     0.61272   0.01411   0.97561   0.00000  Uiso   1.00
H758   H     0.54832   0.31923   0.95062   0.00000  Uiso   1.00
H759   H     0.61296   0.00162   0.91674   0.00000  Uiso   1.00
O760   O     0.39062   0.05589   0.54398   0.00000  Uiso   1.00
C761   C     0.42374   0.01341   0.55239   0.00000  Uiso   1.00
H762   H     0.45544   0.02351   0.57795   0.00000  Uiso   1.00
H763   H     0.44703   0.33203   0.52153   0.00000  Uiso   1.00
H764   H     0.39426   0.31468   0.56570   0.00000  Uiso   1.00
N765   N     0.57340   0.00342   0.77728   0.00000  Uiso   1.00
H766   H     0.60274   0.02289   0.75470   0.00000  Uiso   1.00
H767   H     0.56226   0.02678   0.80516   0.00000  Uiso   1.00
N768   N     0.42720   0.32725   0.72505   0.00000  Uiso   1.00
H769   H     0.42512   0.01160   0.69417   0.00000  Uiso   1.00
H770   H     0.39088   0.00323   0.74543   0.00000  Uiso   1.00
C771   C     0.84831   0.26470   0.74904   0.00000  Uiso   1.00
C772   C     0.81847   0.06861   0.75148   0.00000  Uiso   1.00
C773   C     0.91083   0.23798   0.97698   0.00000  Uiso   1.00
C774   C     0.75964   0.09373   0.52275   0.00000  Uiso   1.00
C775   C     0.85570   0.31839   0.75520   0.00000  Uiso   1.00
C776   C     0.81158   0.01461   0.74586   0.00000  Uiso   1.00
C777   C     0.83462   0.16789   0.83641   0.00000  Uiso   1.00
C778   C     0.83210   0.16572   0.66354   0.00000  Uiso   1.00
C779   C     0.78931   0.13376   0.59386   0.00000  Uiso   1.00
C780   C     0.87685   0.20133   0.90575   0.00000  Uiso   1.00
C781   C     0.83004   0.16561   0.61588   0.00000  Uiso   1.00
C782   C     0.83690   0.16835   0.88401   0.00000  Uiso   1.00
C783   C     0.87117   0.19718   0.59257   0.00000  Uiso   1.00
C784   C     0.79711   0.13566   0.90734   0.00000  Uiso   1.00
C785   C     0.87068   0.20070   0.54658   0.00000  Uiso   1.00
C786   C     0.79730   0.13286   0.95335   0.00000  Uiso   1.00
C787   C     0.83322   0.16616   0.52327   0.00000  Uiso   1.00
C788   C     0.83528   0.16713   0.97652   0.00000  Uiso   1.00
C789   C     0.79371   0.13070   0.54686   0.00000  Uiso   1.00
C790   C     0.87493   0.20246   0.95287   0.00000  Uiso   1.00
C791   C     0.90769   0.23771   0.52377   0.00000  Uiso   1.00
C792   C     0.76030   0.09592   0.97621   0.00000  Uiso   1.00
H793   H     0.90261   0.22020   0.61098   0.00000  Uiso   1.00
H794   H     0.76699   0.11118   0.88887   0.00000  Uiso   1.00
H795   H     0.67130   0.12715   0.71660   0.00000  Uiso   1.00
H796   H     0.99537   0.20619   0.78338   0.00000  Uiso   1.00
N797   N     0.98344   0.15265   0.73783   0.00000  Uiso   1.00
N798   N     0.68322   0.18068   0.76217   0.00000  Uiso   1.00
O799   O     0.79642   0.24619   0.75299   0.00000  Uiso   1.00
O800   O     0.87025   0.08714   0.74702   0.00000  Uiso   1.00
O801   O     0.89280   0.23721   0.74519   0.00000  Uiso   1.00
O802   O     0.77387   0.09613   0.75482   0.00000  Uiso   1.00
O803   O     0.78514   0.17117   0.81998   0.00000  Uiso   1.00
O804   O     0.88153   0.16216   0.68003   0.00000  Uiso   1.00
O805   O     0.88152   0.16219   0.81218   0.00000  Uiso   1.00
O806   O     0.78515   0.17115   0.68783   0.00000  Uiso   1.00
Zn807  Zn    0.76898   0.17266   0.75521   0.00000  Uiso   1.00
Zn808  Zn    0.89769   0.16067   0.74479   0.00000  Uiso   1.00
N809   N     0.74376   0.10502   0.61885   0.00000  Uiso   1.00
H810   H     0.71636   0.13105   0.63516   0.00000  Uiso   1.00
H811   H     0.76164   0.08275   0.64257   0.00000  Uiso   1.00
N812   N     0.91764   0.23454   0.88019   0.00000  Uiso   1.00
H813   H     0.94659   0.21181   0.86160   0.00000  Uiso   1.00
H814   H     0.89563   0.25648   0.85858   0.00000  Uiso   1.00
O815   O     0.94415   0.27192   0.54660   0.00000  Uiso   1.00
C816   C     0.91274   0.31409   0.56365   0.00000  Uiso   1.00
H817   H     0.94389   0.01256   0.57335   0.00000  Uiso   1.00
H818   H     0.88533   0.30340   0.59411   0.00000  Uiso   1.00
H819   H     0.88522   0.32969   0.53862   0.00000  Uiso   1.00
O820   O     0.72083   0.06441   0.95366   0.00000  Uiso   1.00
C821   C     0.74782   0.02091   0.93424   0.00000  Uiso   1.00
H822   H     0.79571   0.02618   0.92877   0.00000  Uiso   1.00
H823   H     0.73033   0.01246   0.90101   0.00000  Uiso   1.00
H824   H     0.73654   0.31985   0.95515   0.00000  Uiso   1.00
O825   O     0.95218   0.27081   0.95520   0.00000  Uiso   1.00
C826   C     0.92977   0.31983   0.94980   0.00000  Uiso   1.00
H827   H     0.94605   0.01411   0.97561   0.00000  Uiso   1.00
H828   H     0.88165   0.31923   0.95062   0.00000  Uiso   1.00
H829   H     0.94629   0.00162   0.91674   0.00000  Uiso   1.00
O830   O     0.72395   0.05589   0.54398   0.00000  Uiso   1.00
C831   C     0.75708   0.01341   0.55239   0.00000  Uiso   1.00
H832   H     0.78877   0.02351   0.57795   0.00000  Uiso   1.00
H833   H     0.78036   0.33203   0.52153   0.00000  Uiso   1.00
H834   H     0.72759   0.31468   0.56570   0.00000  Uiso   1.00
N835   N     0.90673   0.00342   0.77728   0.00000  Uiso   1.00
H836   H     0.93608   0.02289   0.75470   0.00000  Uiso   1.00
H837   H     0.89560   0.02678   0.80516   0.00000  Uiso   1.00
N838   N     0.76054   0.32725   0.72505   0.00000  Uiso   1.00
H839   H     0.75845   0.01160   0.69417   0.00000  Uiso   1.00
H840   H     0.72421   0.00323   0.74543   0.00000  Uiso   1.00
C841   C     0.18165   0.59803   0.74904   0.00000  Uiso   1.00
C842   C     0.15180   0.40194   0.75148   0.00000  Uiso   1.00
C843   C     0.24417   0.57132   0.97698   0.00000  Uiso   1.00
C844   C     0.09297   0.42707   0.52275   0.00000  Uiso   1.00
C845   C     0.18903   0.65173   0.75520   0.00000  Uiso   1.00
C846   C     0.14492   0.34794   0.74586   0.00000  Uiso   1.00
C847   C     0.16795   0.50122   0.83641   0.00000  Uiso   1.00
C848   C     0.16543   0.49905   0.66354   0.00000  Uiso   1.00
C849   C     0.12264   0.46709   0.59386   0.00000  Uiso   1.00
C850   C     0.21018   0.53466   0.90575   0.00000  Uiso   1.00
C851   C     0.16337   0.49895   0.61588   0.00000  Uiso   1.00
C852   C     0.17023   0.50168   0.88401   0.00000  Uiso   1.00
C853   C     0.20450   0.53052   0.59257   0.00000  Uiso   1.00
C854   C     0.13044   0.46899   0.90734   0.00000  Uiso   1.00
C855   C     0.20401   0.53404   0.54658   0.00000  Uiso   1.00
C856   C     0.13064   0.46620   0.95335   0.00000  Uiso   1.00
C857   C     0.16655   0.49949   0.52327   0.00000  Uiso   1.00
C858   C     0.16861   0.50046   0.97652   0.00000  Uiso   1.00
C859   C     0.12705   0.46404   0.54686   0.00000  Uiso   1.00
C860   C     0.20827   0.53579   0.95287   0.00000  Uiso   1.00
C861   C     0.24103   0.57104   0.52377   0.00000  Uiso   1.00
C862   C     0.09363   0.42925   0.97621   0.00000  Uiso   1.00
H863   H     0.23594   0.55354   0.61098   0.00000  Uiso   1.00
H864   H     0.10032   0.44451   0.88887   0.00000  Uiso   1.00
H865   H     0.00464   0.46048   0.71660   0.00000  Uiso   1.00
H866   H     0.32870   0.53953   0.78338   0.00000  Uiso   1.00
N867   N     0.31678   0.48598   0.73783   0.00000  Uiso   1.00
N868   N     0.01656   0.51402   0.76217   0.00000  Uiso   1.00
O869   O     0.12975   0.57952   0.75299   0.00000  Uiso   1.00
O870   O     0.20358   0.42048   0.74702   0.00000  Uiso   1.00
O871   O     0.22613   0.57054   0.74519   0.00000  Uiso   1.00
O872   O     0.10720   0.42946   0.75482   0.00000  Uiso   1.00
O873   O     0.11847   0.50450   0.81998   0.00000  Uiso   1.00
O874   O     0.21486   0.49550   0.68003   0.00000  Uiso   1.00
O875   O     0.21485   0.49552   0.81218   0.00000  Uiso   1.00
O876   O     0.11848   0.50448   0.68783   0.00000  Uiso   1.00
Zn877  Zn    0.10231   0.50600   0.75521   0.00000  Uiso   1.00
Zn878  Zn    0.23102   0.49400   0.74479   0.00000  Uiso   1.00
N879   N     0.07709   0.43835   0.61885   0.00000  Uiso   1.00
H880   H     0.04970   0.46438   0.63516   0.00000  Uiso   1.00
H881   H     0.09497   0.41608   0.64257   0.00000  Uiso   1.00
N882   N     0.25098   0.56788   0.88019   0.00000  Uiso   1.00
H883   H     0.27992   0.54515   0.86160   0.00000  Uiso   1.00
H884   H     0.22896   0.58982   0.85858   0.00000  Uiso   1.00
O885   O     0.27748   0.60525   0.54660   0.00000  Uiso   1.00
C886   C     0.24607   0.64743   0.56365   0.00000  Uiso   1.00
H887   H     0.27722   0.34590   0.57335   0.00000  Uiso   1.00
H888   H     0.21866   0.63673   0.59411   0.00000  Uiso   1.00
H889   H     0.21855   0.66302   0.53862   0.00000  Uiso   1.00
O890   O     0.05417   0.39774   0.95366   0.00000  Uiso   1.00
C891   C     0.08115   0.35425   0.93424   0.00000  Uiso   1.00
H892   H     0.12904   0.35952   0.92877   0.00000  Uiso   1.00
H893   H     0.06366   0.34580   0.90101   0.00000  Uiso   1.00
H894   H     0.06987   0.65319   0.95515   0.00000  Uiso   1.00
O895   O     0.28552   0.60415   0.95520   0.00000  Uiso   1.00
C896   C     0.26310   0.65316   0.94980   0.00000  Uiso   1.00
H897   H     0.27939   0.34745   0.97561   0.00000  Uiso   1.00
H898   H     0.21499   0.65257   0.95062   0.00000  Uiso   1.00
H899   H     0.27962   0.33495   0.91674   0.00000  Uiso   1.00
O900   O     0.05729   0.38923   0.54398   0.00000  Uiso   1.00
C901   C     0.09041   0.34674   0.55239   0.00000  Uiso   1.00
H902   H     0.12210   0.35684   0.57795   0.00000  Uiso   1.00
H903   H     0.11370   0.66536   0.52153   0.00000  Uiso   1.00
H904   H     0.06092   0.64801   0.56570   0.00000  Uiso   1.00
N905   N     0.24006   0.33675   0.77728   0.00000  Uiso   1.00
H906   H     0.26941   0.35622   0.75470   0.00000  Uiso   1.00
H907   H     0.22893   0.36011   0.80516   0.00000  Uiso   1.00
N908   N     0.09387   0.66058   0.72505   0.00000  Uiso   1.00
H909   H     0.09178   0.34493   0.69417   0.00000  Uiso   1.00
H910   H     0.05755   0.33656   0.74543   0.00000  Uiso   1.00
C911   C     0.51498   0.59803   0.74904   0.00000  Uiso   1.00
C912   C     0.48513   0.40194   0.75148   0.00000  Uiso   1.00
C913   C     0.57750   0.57132   0.97698   0.00000  Uiso   1.00
C914   C     0.42631   0.42707   0.52275   0.00000  Uiso   1.00
C915   C     0.52237   0.65173   0.75520   0.00000  Uiso   1.00
C916   C     0.47825   0.34794   0.74586   0.00000  Uiso   1.00
C917   C     0.50128   0.50122   0.83641   0.00000  Uiso   1.00
C918   C     0.49877   0.49905   0.66354   0.00000  Uiso   1.00
C919   C     0.45597   0.46709   0.59386   0.00000  Uiso   1.00
C920   C     0.54352   0.53466   0.90575   0.00000  Uiso   1.00
C921   C     0.49670   0.49895   0.61588   0.00000  Uiso   1.00
C922   C     0.50357   0.50168   0.88401   0.00000  Uiso   1.00
C923   C     0.53783   0.53052   0.59257   0.00000  Uiso   1.00
C924   C     0.46377   0.46899   0.90734   0.00000  Uiso   1.00
C925   C     0.53734   0.53404   0.54658   0.00000  Uiso   1.00
C926   C     0.46397   0.46620   0.95335   0.00000  Uiso   1.00
C927   C     0.49988   0.49949   0.52327   0.00000  Uiso   1.00
C928   C     0.50195   0.50046   0.97652   0.00000  Uiso   1.00
C929   C     0.46038   0.46404   0.54686   0.00000  Uiso   1.00
C930   C     0.54160   0.53579   0.95287   0.00000  Uiso   1.00
C931   C     0.57436   0.57104   0.52377   0.00000  Uiso   1.00
C932   C     0.42696   0.42925   0.97621   0.00000  Uiso   1.00
H933   H     0.56927   0.55354   0.61098   0.00000  Uiso   1.00
H934   H     0.43365   0.44451   0.88887   0.00000  Uiso   1.00
H935   H     0.33797   0.46048   0.71660   0.00000  Uiso   1.00
H936   H     0.66204   0.53953   0.78338   0.00000  Uiso   1.00
N937   N     0.65011   0.48598   0.73783   0.00000  Uiso   1.00
N938   N     0.34989   0.51402   0.76217   0.00000  Uiso   1.00
O939   O     0.46308   0.57952   0.75299   0.00000  Uiso   1.00
O940   O     0.53692   0.42048   0.74702   0.00000  Uiso   1.00
O941   O     0.55946   0.57054   0.74519   0.00000  Uiso   1.00
O942   O     0.44054   0.42946   0.75482   0.00000  Uiso   1.00
O943   O     0.45181   0.50450   0.81998   0.00000  Uiso   1.00
O944   O     0.54819   0.49550   0.68003   0.00000  Uiso   1.00
O945   O     0.54819   0.49552   0.81218   0.00000  Uiso   1.00
O946   O     0.45181   0.50448   0.68783   0.00000  Uiso   1.00
Zn947  Zn    0.43565   0.50600   0.75521   0.00000  Uiso   1.00
Zn948  Zn    0.56435   0.49400   0.74479   0.00000  Uiso   1.00
N949   N     0.41042   0.43835   0.61885   0.00000  Uiso   1.00
H950   H     0.38303   0.46438   0.63516   0.00000  Uiso   1.00
H951   H     0.42831   0.41608   0.64257   0.00000  Uiso   1.00
N952   N     0.58431   0.56788   0.88019   0.00000  Uiso   1.00
H953   H     0.61325   0.54515   0.86160   0.00000  Uiso   1.00
H954   H     0.56229   0.58982   0.85858   0.00000  Uiso   1.00
O955   O     0.61081   0.60525   0.54660   0.00000  Uiso   1.00
C956   C     0.57941   0.64743   0.56365   0.00000  Uiso   1.00
H957   H     0.61056   0.34590   0.57335   0.00000  Uiso   1.00
H958   H     0.55199   0.63673   0.59411   0.00000  Uiso   1.00
H959   H     0.55189   0.66302   0.53862   0.00000  Uiso   1.00
O960   O     0.38750   0.39774   0.95366   0.00000  Uiso   1.00
C961   C     0.41449   0.35425   0.93424   0.00000  Uiso   1.00
H962   H     0.46238   0.35952   0.92877   0.00000  Uiso   1.00
H963   H     0.39699   0.34580   0.90101   0.00000  Uiso   1.00
H964   H     0.40320   0.65319   0.95515   0.00000  Uiso   1.00
O965   O     0.61885   0.60415   0.95520   0.00000  Uiso   1.00
C966   C     0.59643   0.65316   0.94980   0.00000  Uiso   1.00
H967   H     0.61272   0.34745   0.97561   0.00000  Uiso   1.00
H968   H     0.54832   0.65257   0.95062   0.00000  Uiso   1.00
H969   H     0.61296   0.33495   0.91674   0.00000  Uiso   1.00
O970   O     0.39062   0.38923   0.54398   0.00000  Uiso   1.00
C971   C     0.42374   0.34674   0.55239   0.00000  Uiso   1.00
H972   H     0.45544   0.35684   0.57795   0.00000  Uiso   1.00
H973   H     0.44703   0.66536   0.52153   0.00000  Uiso   1.00
H974   H     0.39426   0.64801   0.56570   0.00000  Uiso   1.00
N975   N     0.57340   0.33675   0.77728   0.00000  Uiso   1.00
H976   H     0.60274   0.35622   0.75470   0.00000  Uiso   1.00
H977   H     0.56226   0.36011   0.80516   0.00000  Uiso   1.00
N978   N     0.42720   0.66058   0.72505   0.00000  Uiso   1.00
H979   H     0.42512   0.34493   0.69417   0.00000  Uiso   1.00
H980   H     0.39088   0.33656   0.74543   0.00000  Uiso   1.00
C981   C     0.84831   0.59803   0.74904   0.00000  Uiso   1.00
C982   C     0.81847   0.40194   0.75148   0.00000  Uiso   1.00
C983   C     0.91083   0.57132   0.97698   0.00000  Uiso   1.00
C984   C     0.75964   0.42707   0.52275   0.00000  Uiso   1.00
C985   C     0.85570   0.65173   0.75520   0.00000  Uiso   1.00
C986   C     0.81158   0.34794   0.74586   0.00000  Uiso   1.00
C987   C     0.83462   0.50122   0.83641   0.00000  Uiso   1.00
C988   C     0.83210   0.49905   0.66354   0.00000  Uiso   1.00
C989   C     0.78931   0.46709   0.59386   0.00000  Uiso   1.00
C990   C     0.87685   0.53466   0.90575   0.00000  Uiso   1.00
C991   C     0.83004   0.49895   0.61588   0.00000  Uiso   1.00
C992   C     0.83690   0.50168   0.88401   0.00000  Uiso   1.00
C993   C     0.87117   0.53052   0.59257   0.00000  Uiso   1.00
C994   C     0.79711   0.46899   0.90734   0.00000  Uiso   1.00
C995   C     0.87068   0.53404   0.54658   0.00000  Uiso   1.00
C996   C     0.79730   0.46620   0.95335   0.00000  Uiso   1.00
C997   C     0.83322   0.49949   0.52327   0.00000  Uiso   1.00
C998   C     0.83528   0.50046   0.97652   0.00000  Uiso   1.00
C999   C     0.79371   0.46404   0.54686   0.00000  Uiso   1.00
C1000  C     0.87493   0.53579   0.95287   0.00000  Uiso   1.00
C1001  C     0.90769   0.57104   0.52377   0.00000  Uiso   1.00
C1002  C     0.76030   0.42925   0.97621   0.00000  Uiso   1.00
H1003  H     0.90261   0.55354   0.61098   0.00000  Uiso   1.00
H1004  H     0.76699   0.44451   0.88887   0.00000  Uiso   1.00
H1005  H     0.67130   0.46048   0.71660   0.00000  Uiso   1.00
H1006  H     0.99537   0.53953   0.78338   0.00000  Uiso   1.00
N1007  N     0.98344   0.48598   0.73783   0.00000  Uiso   1.00
N1008  N     0.68322   0.51402   0.76217   0.00000  Uiso   1.00
O1009  O     0.79642   0.57952   0.75299   0.00000  Uiso   1.00
O1010  O     0.87025   0.42048   0.74702   0.00000  Uiso   1.00
O1011  O     0.89280   0.57054   0.74519   0.00000  Uiso   1.00
O1012  O     0.77387   0.42946   0.75482   0.00000  Uiso   1.00
O1013  O     0.78514   0.50450   0.81998   0.00000  Uiso   1.00
O1014  O     0.88153   0.49550   0.68003   0.00000  Uiso   1.00
O1015  O     0.88152   0.49552   0.81218   0.00000  Uiso   1.00
O1016  O     0.78515   0.50448   0.68783   0.00000  Uiso   1.00
Zn1017 Zn    0.76898   0.50600   0.75521   0.00000  Uiso   1.00
Zn1018 Zn    0.89769   0.49400   0.74479   0.00000  Uiso   1.00
N1019  N     0.74376   0.43835   0.61885   0.00000  Uiso   1.00
H1020  H     0.71636   0.46438   0.63516   0.00000  Uiso   1.00
H1021  H     0.76164   0.41608   0.64257   0.00000  Uiso   1.00
N1022  N     0.91764   0.56788   0.88019   0.00000  Uiso   1.00
H1023  H     0.94659   0.54515   0.86160   0.00000  Uiso   1.00
H1024  H     0.89563   0.58982   0.85858   0.00000  Uiso   1.00
O1025  O     0.94415   0.60525   0.54660   0.00000  Uiso   1.00
C1026  C     0.91274   0.64743   0.56365   0.00000  Uiso   1.00
H1027  H     0.94389   0.34590   0.57335   0.00000  Uiso   1.00
H1028  H     0.88533   0.63673   0.59411   0.00000  Uiso   1.00
H1029  H     0.88522   0.66302   0.53862   0.00000  Uiso   1.00
O1030  O     0.72083   0.39774   0.95366   0.00000  Uiso   1.00
C1031  C     0.74782   0.35425   0.93424   0.00000  Uiso   1.00
H1032  H     0.79571   0.35952   0.92877   0.00000  Uiso   1.00
H1033  H     0.73033   0.34580   0.90101   0.00000  Uiso   1.00
H1034  H     0.73654   0.65319   0.95515   0.00000  Uiso   1.00
O1035  O     0.95218   0.60415   0.95520   0.00000  Uiso   1.00
C1036  C     0.92977   0.65316   0.94980   0.00000  Uiso   1.00
H1037  H     0.94605   0.34745   0.97561   0.00000  Uiso   1.00
H1038  H     0.88165   0.65257   0.95062   0.00000  Uiso   1.00
H1039  H     0.94629   0.33495   0.91674   0.00000  Uiso   1.00
O1040  O     0.72395   0.38923   0.54398   0.00000  Uiso   1.00
C1041  C     0.75708   0.34674   0.55239   0.00000  Uiso   1.00
H1042  H     0.78877   0.35684   0.57795   0.00000  Uiso   1.00
H1043  H     0.78036   0.66536   0.52153   0.00000  Uiso   1.00
H1044  H     0.72759   0.64801   0.56570   0.00000  Uiso   1.00
N1045  N     0.90673   0.33675   0.77728   0.00000  Uiso   1.00
H1046  H     0.93608   0.35622   0.75470   0.00000  Uiso   1.00
H1047  H     0.89560   0.36011   0.80516   0.00000  Uiso   1.00
N1048  N     0.76054   0.66058   0.72505   0.00000  Uiso   1.00
H1049  H     0.75845   0.34493   0.69417   0.00000  Uiso   1.00
H1050  H     0.72421   0.33656   0.74543   0.00000  Uiso   1.00
C1051  C     0.18165   0.93136   0.74904   0.00000  Uiso   1.00
C1052  C     0.15180   0.73528   0.75148   0.00000  Uiso   1.00
C1053  C     0.24417   0.90465   0.97698   0.00000  Uiso   1.00
C1054  C     0.09297   0.76040   0.52275   0.00000  Uiso   1.00
C1055  C     0.18903   0.98506   0.75520   0.00000  Uiso   1.00
C1056  C     0.14492   0.68127   0.74586   0.00000  Uiso   1.00
C1057  C     0.16795   0.83456   0.83641   0.00000  Uiso   1.00
C1058  C     0.16543   0.83239   0.66354   0.00000  Uiso   1.00
C1059  C     0.12264   0.80043   0.59386   0.00000  Uiso   1.00
C1060  C     0.21018   0.86800   0.90575   0.00000  Uiso   1.00
C1061  C     0.16337   0.83228   0.61588   0.00000  Uiso   1.00
C1062  C     0.17023   0.83501   0.88401   0.00000  Uiso   1.00
C1063  C     0.20450   0.86385   0.59257   0.00000  Uiso   1.00
C1064  C     0.13044   0.80233   0.90734   0.00000  Uiso   1.00
C1065  C     0.20401   0.86737   0.54658   0.00000  Uiso   1.00
C1066  C     0.13064   0.79953   0.95335   0.00000  Uiso   1.00
C1067  C     0.16655   0.83283   0.52327   0.00000  Uiso   1.00
C1068  C     0.16861   0.83379   0.97652   0.00000  Uiso   1.00
C1069  C     0.12705   0.79737   0.54686   0.00000  Uiso   1.00
C1070  C     0.20827   0.86913   0.95287   0.00000  Uiso   1.00
C1071  C     0.24103   0.90438   0.52377   0.00000  Uiso   1.00
C1072  C     0.09363   0.76258   0.97621   0.00000  Uiso   1.00
H1073  H     0.23594   0.88687   0.61098   0.00000  Uiso   1.00
H1074  H     0.10032   0.77784   0.88887   0.00000  Uiso   1.00
H1075  H     0.00464   0.79382   0.71660   0.00000  Uiso   1.00
H1076  H     0.32870   0.87286   0.78338   0.00000  Uiso   1.00
N1077  N     0.31678   0.81932   0.73783   0.00000  Uiso   1.00
N1078  N     0.01656   0.84735   0.76217   0.00000  Uiso   1.00
O1079  O     0.12975   0.91286   0.75299   0.00000  Uiso   1.00
O1080  O     0.20358   0.75381   0.74702   0.00000  Uiso   1.00
O1081  O     0.22613   0.90387   0.74519   0.00000  Uiso   1.00
O1082  O     0.10720   0.76279   0.75482   0.00000  Uiso   1.00
O1083  O     0.11847   0.83784   0.81998   0.00000  Uiso   1.00
O1084  O     0.21486   0.82883   0.68003   0.00000  Uiso   1.00
O1085  O     0.21485   0.82885   0.81218   0.00000  Uiso   1.00
O1086  O     0.11848   0.83781   0.68783   0.00000  Uiso   1.00
Zn1087 Zn    0.10231   0.83933   0.75521   0.00000  Uiso   1.00
Zn1088 Zn    0.23102   0.82734   0.74479   0.00000  Uiso   1.00
N1089  N     0.07709   0.77169   0.61885   0.00000  Uiso   1.00
H1090  H     0.04970   0.79772   0.63516   0.00000  Uiso   1.00
H1091  H     0.09497   0.74941   0.64257   0.00000  Uiso   1.00
N1092  N     0.25098   0.90121   0.88019   0.00000  Uiso   1.00
H1093  H     0.27992   0.87848   0.86160   0.00000  Uiso   1.00
H1094  H     0.22896   0.92315   0.85858   0.00000  Uiso   1.00
O1095  O     0.27748   0.93859   0.54660   0.00000  Uiso   1.00
C1096  C     0.24607   0.98076   0.56365   0.00000  Uiso   1.00
H1097  H     0.27722   0.67923   0.57335   0.00000  Uiso   1.00
H1098  H     0.21866   0.97006   0.59411   0.00000  Uiso   1.00
H1099  H     0.21855   0.99636   0.53862   0.00000  Uiso   1.00
O1100  O     0.05417   0.73108   0.95366   0.00000  Uiso   1.00
C1101  C     0.08115   0.68758   0.93424   0.00000  Uiso   1.00
H1102  H     0.12904   0.69285   0.92877   0.00000  Uiso   1.00
H1103  H     0.06366   0.67913   0.90101   0.00000  Uiso   1.00
H1104  H     0.06987   0.98652   0.95515   0.00000  Uiso   1.00
O1105  O     0.28552   0.93748   0.95520   0.00000  Uiso   1.00
C1106  C     0.26310   0.98649   0.94980   0.00000  Uiso   1.00
H1107  H     0.27939   0.68078   0.97561   0.00000  Uiso   1.00
H1108  H     0.21499   0.98590   0.95062   0.00000  Uiso   1.00
H1109  H     0.27962   0.66829   0.91674   0.00000  Uiso   1.00
O1110  O     0.05729   0.72256   0.54398   0.00000  Uiso   1.00
C1111  C     0.09041   0.68007   0.55239   0.00000  Uiso   1.00
H1112  H     0.12210   0.69018   0.57795   0.00000  Uiso   1.00
H1113  H     0.11370   0.99869   0.52153   0.00000  Uiso   1.00
H1114  H     0.06092   0.98135   0.56570   0.00000  Uiso   1.00
N1115  N     0.24006   0.67008   0.77728   0.00000  Uiso   1.00
H1116  H     0.26941   0.68955   0.75470   0.00000  Uiso   1.00
H1117  H     0.22893   0.69344   0.80516   0.00000  Uiso   1.00
N1118  N     0.09387   0.99391   0.72505   0.00000  Uiso   1.00
H1119  H     0.09178   0.67827   0.69417   0.00000  Uiso   1.00
H1120  H     0.05755   0.66990   0.74543   0.00000  Uiso   1.00
C1121  C     0.51498   0.93136   0.74904   0.00000  Uiso   1.00
C1122  C     0.48513   0.73528   0.75148   0.00000  Uiso   1.00
C1123  C     0.57750   0.90465   0.97698   0.00000  Uiso   1.00
C1124  C     0.42631   0.76040   0.52275   0.00000  Uiso   1.00
C1125  C     0.52237   0.98506   0.75520   0.00000  Uiso   1.00
C1126  C     0.47825   0.68127   0.74586   0.00000  Uiso   1.00
C1127  C     0.50128   0.83456   0.83641   0.00000  Uiso   1.00
C1128  C     0.49877   0.83239   0.66354   0.00000  Uiso   1.00
C1129  C     0.45597   0.80043   0.59386   0.00000  Uiso   1.00
C1130  C     0.54352   0.86800   0.90575   0.00000  Uiso   1.00
C1131  C     0.49670   0.83228   0.61588   0.00000  Uiso   1.00
C1132  C     0.50357   0.83501   0.88401   0.00000  Uiso   1.00
C1133  C     0.53783   0.86385   0.59257   0.00000  Uiso   1.00
C1134  C     0.46377   0.80233   0.90734   0.00000  Uiso   1.00
C1135  C     0.53734   0.86737   0.54658   0.00000  Uiso   1.00
C1136  C     0.46397   0.79953   0.95335   0.00000  Uiso   1.00
C1137  C     0.49988   0.83283   0.52327   0.00000  Uiso   1.00
C1138  C     0.50195   0.83379   0.97652   0.00000  Uiso   1.00
C1139  C     0.46038   0.79737   0.54686   0.00000  Uiso   1.00
C1140  C     0.54160   0.86913   0.95287   0.00000  Uiso   1.00
C1141  C     0.57436   0.90438   0.52377   0.00000  Uiso   1.00
C1142  C     0.42696   0.76258   0.97621   0.00000  Uiso   1.00
H1143  H     0.56927   0.88687   0.61098   0.00000  Uiso   1.00
H1144  H     0.43365   0.77784   0.88887   0.00000  Uiso   1.00
H1145  H     0.33797   0.79382   0.71660   0.00000  Uiso   1.00
H1146  H     0.66204   0.87286   0.78338   0.00000  Uiso   1.00
N1147  N     0.65011   0.81932   0.73783   0.00000  Uiso   1.00
N1148  N     0.34989   0.84735   0.76217   0.00000  Uiso   1.00
O1149  O     0.46308   0.91286   0.75299   0.00000  Uiso   1.00
O1150  O     0.53692   0.75381   0.74702   0.00000  Uiso   1.00
O1151  O     0.55946   0.90387   0.74519   0.00000  Uiso   1.00
O1152  O     0.44054   0.76279   0.75482   0.00000  Uiso   1.00
O1153  O     0.45181   0.83784   0.81998   0.00000  Uiso   1.00
O1154  O     0.54819   0.82883   0.68003   0.00000  Uiso   1.00
O1155  O     0.54819   0.82885   0.81218   0.00000  Uiso   1.00
O1156  O     0.45181   0.83781   0.68783   0.00000  Uiso   1.00
Zn1157 Zn    0.43565   0.83933   0.75521   0.00000  Uiso   1.00
Zn1158 Zn    0.56435   0.82734   0.74479   0.00000  Uiso   1.00
N1159  N     0.41042   0.77169   0.61885   0.00000  Uiso   1.00
H1160  H     0.38303   0.79772   0.63516   0.00000  Uiso   1.00
H1161  H     0.42831   0.74941   0.64257   0.00000  Uiso   1.00
N1162  N     0.58431   0.90121   0.88019   0.00000  Uiso   1.00
H1163  H     0.61325   0.87848   0.86160   0.00000  Uiso   1.00
H1164  H     0.56229   0.92315   0.85858   0.00000  Uiso   1.00
O1165  O     0.61081   0.93859   0.54660   0.00000  Uiso   1.00
C1166  C     0.57941   0.98076   0.56365   0.00000  Uiso   1.00
H1167  H     0.61056   0.67923   0.57335   0.00000  Uiso   1.00
H1168  H     0.55199   0.97006   0.59411   0.00000  Uiso   1.00
H1169  H     0.55189   0.99636   0.53862   0.00000  Uiso   1.00
O1170  O     0.38750   0.73108   0.95366   0.00000  Uiso   1.00
C1171  C     0.41449   0.68758   0.93424   0.00000  Uiso   1.00
H1172  H     0.46238   0.69285   0.92877   0.00000  Uiso   1.00
H1173  H     0.39699   0.67913   0.90101   0.00000  Uiso   1.00
H1174  H     0.40320   0.98652   0.95515   0.00000  Uiso   1.00
O1175  O     0.61885   0.93748   0.95520   0.00000  Uiso   1.00
C1176  C     0.59643   0.98649   0.94980   0.00000  Uiso   1.00
H1177  H     0.61272   0.68078   0.97561   0.00000  Uiso   1.00
H1178  H     0.54832   0.98590   0.95062   0.00000  Uiso   1.00
H1179  H     0.61296   0.66829   0.91674   0.00000  Uiso   1.00
O1180  O     0.39062   0.72256   0.54398   0.00000  Uiso   1.00
C1181  C     0.42374   0.68007   0.55239   0.00000  Uiso   1.00
H1182  H     0.45544   0.69018   0.57795   0.00000  Uiso   1.00
H1183  H     0.44703   0.99869   0.52153   0.00000  Uiso   1.00
H1184  H     0.39426   0.98135   0.56570   0.00000  Uiso   1.00
N1185  N     0.57340   0.67008   0.77728   0.00000  Uiso   1.00
H1186  H     0.60274   0.68955   0.75470   0.00000  Uiso   1.00
H1187  H     0.56226   0.69344   0.80516   0.00000  Uiso   1.00
N1188  N     0.42720   0.99391   0.72505   0.00000  Uiso   1.00
H1189  H     0.42512   0.67827   0.69417   0.00000  Uiso   1.00
H1190  H     0.39088   0.66990   0.74543   0.00000  Uiso   1.00
C1191  C     0.84831   0.93136   0.74904   0.00000  Uiso   1.00
C1192  C     0.81847   0.73528   0.75148   0.00000  Uiso   1.00
C1193  C     0.91083   0.90465   0.97698   0.00000  Uiso   1.00
C1194  C     0.75964   0.76040   0.52275   0.00000  Uiso   1.00
C1195  C     0.85570   0.98506   0.75520   0.00000  Uiso   1.00
C1196  C     0.81158   0.68127   0.74586   0.00000  Uiso   1.00
C1197  C     0.83462   0.83456   0.83641   0.00000  Uiso   1.00
C1198  C     0.83210   0.83239   0.66354   0.00000  Uiso   1.00
C1199  C     0.78931   0.80043   0.59386   0.00000  Uiso   1.00
C1200  C     0.87685   0.86800   0.90575   0.00000  Uiso   1.00
C1201  C     0.83004   0.83228   0.61588   0.00000  Uiso   1.00
C1202  C     0.83690   0.83501   0.88401   0.00000  Uiso   1.00
C1203  C     0.87117   0.86385   0.59257   0.00000  Uiso   1.00
C1204  C     0.79711   0.80233   0.90734   0.00000  Uiso   1.00
C1205  C     0.87068   0.86737   0.54658   0.00000  Uiso   1.00
C1206  C     0.79730   0.79953   0.95335   0.00000  Uiso   1.00
C1207  C     0.83322   0.83283   0.52327   0.00000  Uiso   1.00
C1208  C     0.83528   0.83379   0.97652   0.00000  Uiso   1.00
C1209  C     0.79371   0.79737   0.54686   0.00000  Uiso   1.00
C1210  C     0.87493   0.86913   0.95287   0.00000  Uiso   1.00
C1211  C     0.90769   0.90438   0.52377   0.00000  Uiso   1.00
C1212  C     0.76030   0.76258   0.97621   0.00000  Uiso   1.00
H1213  H     0.90261   0.88687   0.61098   0.00000  Uiso   1.00
H1214  H     0.76699   0.77784   0.88887   0.00000  Uiso   1.00
H1215  H     0.67130   0.79382   0.71660   0.00000  Uiso   1.00
H1216  H     0.99537   0.87286   0.78338   0.00000  Uiso   1.00
N1217  N     0.98344   0.81932   0.73783   0.00000  Uiso   1.00
N1218  N     0.68322   0.84735   0.76217   0.00000  Uiso   1.00
O1219  O     0.79642   0.91286   0.75299   0.00000  Uiso   1.00
O1220  O     0.87025   0.75381   0.74702   0.00000  Uiso   1.00
O1221  O     0.89280   0.90387   0.74519   0.00000  Uiso   1.00
O1222  O     0.77387   0.76279   0.75482   0.00000  Uiso   1.00
O1223  O     0.78514   0.83784   0.81998   0.00000  Uiso   1.00
O1224  O     0.88153   0.82883   0.68003   0.00000  Uiso   1.00
O1225  O     0.88152   0.82885   0.81218   0.00000  Uiso   1.00
O1226  O     0.78515   0.83781   0.68783   0.00000  Uiso   1.00
Zn1227 Zn    0.76898   0.83933   0.75521   0.00000  Uiso   1.00
Zn1228 Zn    0.89769   0.82734   0.74479   0.00000  Uiso   1.00
N1229  N     0.74376   0.77169   0.61885   0.00000  Uiso   1.00
H1230  H     0.71636   0.79772   0.63516   0.00000  Uiso   1.00
H1231  H     0.76164   0.74941   0.64257   0.00000  Uiso   1.00
N1232  N     0.91764   0.90121   0.88019   0.00000  Uiso   1.00
H1233  H     0.94659   0.87848   0.86160   0.00000  Uiso   1.00
H1234  H     0.89563   0.92315   0.85858   0.00000  Uiso   1.00
O1235  O     0.94415   0.93859   0.54660   0.00000  Uiso   1.00
C1236  C     0.91274   0.98076   0.56365   0.00000  Uiso   1.00
H1237  H     0.94389   0.67923   0.57335   0.00000  Uiso   1.00
H1238  H     0.88533   0.97006   0.59411   0.00000  Uiso   1.00
H1239  H     0.88522   0.99636   0.53862   0.00000  Uiso   1.00
O1240  O     0.72083   0.73108   0.95366   0.00000  Uiso   1.00
C1241  C     0.74782   0.68758   0.93424   0.00000  Uiso   1.00
H1242  H     0.79571   0.69285   0.92877   0.00000  Uiso   1.00
H1243  H     0.73033   0.67913   0.90101   0.00000  Uiso   1.00
H1244  H     0.73654   0.98652   0.95515   0.00000  Uiso   1.00
O1245  O     0.95218   0.93748   0.95520   0.00000  Uiso   1.00
C1246  C     0.92977   0.98649   0.94980   0.00000  Uiso   1.00
H1247  H     0.94605   0.68078   0.97561   0.00000  Uiso   1.00
H1248  H     0.88165   0.98590   0.95062   0.00000  Uiso   1.00
H1249  H     0.94629   0.66829   0.91674   0.00000  Uiso   1.00
O1250  O     0.72395   0.72256   0.54398   0.00000  Uiso   1.00
C1251  C     0.75708   0.68007   0.55239   0.00000  Uiso   1.00
H1252  H     0.78877   0.69018   0.57795   0.00000  Uiso   1.00
H1253  H     0.78036   0.99869   0.52153   0.00000  Uiso   1.00
H1254  H     0.72759   0.98135   0.56570   0.00000  Uiso   1.00
N1255  N     0.90673   0.67008   0.77728   0.00000  Uiso   1.00
H1256  H     0.93608   0.68955   0.75470   0.00000  Uiso   1.00
H1257  H     0.89560   0.69344   0.80516   0.00000  Uiso   1.00
N1258  N     0.76054   0.99391   0.72505   0.00000  Uiso   1.00
H1259  H     0.75845   0.67827   0.69417   0.00000  Uiso   1.00
H1260  H     0.72421   0.66990   0.74543   0.00000  Uiso   1.00
loop_
_geom_bond_atom_site_label_1
_geom_bond_atom_site_label_2
_geom_bond_distance
_geom_bond_site_symmetry_2
_ccdc_geom_bond_type
C1     O31     1.286   .     A
C1     C5      1.398   .     S
C1     O29     1.270   .     A
C2     O30     1.269   .     A
C2     C6      1.404   .     S
C2     O32     1.288   .     A
C3     C20     1.419   .     A
C3     O55     1.386   .     S
C3     C651    1.397   .     S
C4     O60     1.384   .     S
C4     C19     1.418   .     A
C4     C652    1.393   1_554 S
C5     C216    1.360   .     S
C5     N275    1.444   .     S
C6     C425    1.360   1_545 S
C6     N488    1.443   1_545 S
C7     C12     1.428   .     S
C7     O33     1.286   .     A
C7     O35     1.284   .     A
C8     O34     1.287   .     A
C8     C11     1.429   .     S
C8     O36     1.285   .     A
C9     C11     1.403   .     A
C9     C19     1.404   .     A
C9     N39     1.437   .     S
C10    C12     1.403   .     A
C10    N42     1.437   .     S
C10    C20     1.407   .     A
C11    C13     1.385   .     A
C12    C14     1.383   .     A
C13    C15     1.381   .     A
C13    H23     1.084   .     S
C14    C16     1.380   .     A
C14    H24     1.084   .     S
C15    C17     1.413   .     A
C15    C21     1.408   .     A
C16    C18     1.414   .     A
C16    C22     1.407   .     A
C17    C19     1.425   .     A
C17    C648    1.397   1_554 S
C18    C20     1.426   .     A
C18    C647    1.397   .     S
C21    O45     1.387   .     S
C21    C633    1.397   1_554 S
C22    O50     1.387   .     S
C22    C634    1.393   .     S
H25    N167    1.029   1_455 S
H26    N98     1.029   .     S
N27    Zn38    2.012   .     S
N27    H95     1.029   .     S
N27    N98     1.276   .     S
N28    Zn37    2.012   .     S
N28    H166    1.029   1_455 S
N28    N167    1.276   1_455 S
O29    Zn37    1.971   .     S
O30    Zn38    1.971   .     S
O31    Zn38    1.989   .     S
O32    Zn37    1.989   .     S
O33    Zn37    1.998   .     S
O34    Zn38    1.998   .     S
O35    Zn38    2.027   .     S
O36    Zn37    2.027   .     S
N39    H41     1.045   .     S
N39    H40     1.045   .     S
N42    H44     1.046   .     S
N42    H43     1.044   .     S
O45    C46     1.415   .     S
C46    H49     1.112   .     S
C46    H48     1.109   .     S
C46    H257    1.109   .     S
H47    C466    1.109   1_545 S
O50    C51     1.415   .     S
C51    H52     1.115   .     S
C51    H53     1.109   .     S
C51    H474    1.109   1_545 S
H54    C261    1.109   .     S
O55    C56     1.415   .     S
C56    H58     1.116   .     S
C56    H267    1.108   .     S
C56    H269    1.109   .     S
H57    C476    1.108   1_545 S
H59    C476    1.109   1_545 S
O60    C61     1.414   .     S
C61    H62     1.111   .     S
C61    H483    1.111   1_545 S
C61    H484    1.109   1_545 S
H63    C271    1.111   .     S
H64    C271    1.109   .     S
N65    H66     1.045   .     S
N65    H67     1.046   .     S
N65    C425    1.444   1_545 S
N68    C216    1.443   .     S
N68    H279    1.045   .     S
N68    H280    1.046   .     S
H69    N488    1.045   1_545 S
H70    N488    1.046   1_545 S
C71    O101    1.286   .     A
C71    C75     1.398   .     S
C71    O99     1.270   .     A
C72    O100    1.269   .     A
C72    C76     1.404   .     S
C72    O102    1.288   .     A
C73    C90     1.419   .     A
C73    O125    1.386   .     S
C73    C721    1.397   .     S
C74    O130    1.384   .     S
C74    C89     1.418   .     A
C74    C722    1.393   1_554 S
C75    C286    1.360   .     S
C75    N345    1.444   .     S
C76    C495    1.360   1_545 S
C76    N558    1.443   1_545 S
C77    C82     1.428   .     S
C77    O103    1.286   .     A
C77    O105    1.284   .     A
C78    O104    1.287   .     A
C78    C81     1.429   .     S
C78    O106    1.285   .     A
C79    C81     1.403   .     A
C79    C89     1.404   .     A
C79    N109    1.437   .     S
C80    C82     1.403   .     A
C80    N112    1.437   .     S
C80    C90     1.407   .     A
C81    C83     1.385   .     A
C82    C84     1.383   .     A
C83    C85     1.381   .     A
C83    H93     1.084   .     S
C84    C86     1.380   .     A
C84    H94     1.084   .     S
C85    C87     1.413   .     A
C85    C91     1.408   .     A
C86    C88     1.414   .     A
C86    C92     1.407   .     A
C87    C89     1.425   .     A
C87    C718    1.397   1_554 S
C88    C90     1.426   .     A
C88    C717    1.397   .     S
C91    O115    1.387   .     S
C91    C703    1.397   1_554 S
C92    O120    1.387   .     S
C92    C704    1.393   .     S
H96    N168    1.029   .     S
N97    Zn108   2.012   .     S
N97    H165    1.029   .     S
N97    N168    1.276   .     S
N98    Zn107   2.012   .     S
O99    Zn107   1.971   .     S
O100   Zn108   1.971   .     S
O101   Zn108   1.989   .     S
O102   Zn107   1.989   .     S
O103   Zn107   1.998   .     S
O104   Zn108   1.998   .     S
O105   Zn108   2.027   .     S
O106   Zn107   2.027   .     S
N109   H111    1.045   .     S
N109   H110    1.045   .     S
N112   H114    1.046   .     S
N112   H113    1.044   .     S
O115   C116    1.415   .     S
C116   H119    1.112   .     S
C116   H118    1.109   .     S
C116   H327    1.109   .     S
H117   C536    1.109   1_545 S
O120   C121    1.415   .     S
C121   H122    1.115   .     S
C121   H123    1.109   .     S
C121   H544    1.109   1_545 S
H124   C331    1.109   .     S
O125   C126    1.415   .     S
C126   H128    1.116   .     S
C126   H337    1.108   .     S
C126   H339    1.109   .     S
H127   C546    1.108   1_545 S
H129   C546    1.109   1_545 S
O130   C131    1.414   .     S
C131   H132    1.111   .     S
C131   H553    1.111   1_545 S
C131   H554    1.109   1_545 S
H133   C341    1.111   .     S
H134   C341    1.109   .     S
N135   H136    1.045   .     S
N135   H137    1.046   .     S
N135   C495    1.444   1_545 S
N138   C286    1.443   .     S
N138   H349    1.045   .     S
N138   H350    1.046   .     S
H139   N558    1.045   1_545 S
H140   N558    1.046   1_545 S
C141   O171    1.286   .     A
C141   C145    1.398   .     S
C141   O169    1.270   .     A
C142   O170    1.269   .     A
C142   C146    1.404   .     S
C142   O172    1.288   .     A
C143   C160    1.419   .     A
C143   O195    1.386   .     S
C143   C791    1.397   .     S
C144   O200    1.384   .     S
C144   C159    1.418   .     A
C144   C792    1.393   1_554 S
C145   C356    1.360   .     S
C145   N415    1.444   .     S
C146   C565    1.360   1_545 S
C146   N628    1.443   1_545 S
C147   C152    1.428   .     S
C147   O173    1.286   .     A
C147   O175    1.284   .     A
C148   O174    1.287   .     A
C148   C151    1.429   .     S
C148   O176    1.285   .     A
C149   C151    1.403   .     A
C149   C159    1.404   .     A
C149   N179    1.437   .     S
C150   C152    1.403   .     A
C150   N182    1.437   .     S
C150   C160    1.407   .     A
C151   C153    1.385   .     A
C152   C154    1.383   .     A
C153   C155    1.381   .     A
C153   H163    1.084   .     S
C154   C156    1.380   .     A
C154   H164    1.084   .     S
C155   C157    1.413   .     A
C155   C161    1.408   .     A
C156   C158    1.414   .     A
C156   C162    1.407   .     A
C157   C159    1.425   .     A
C157   C788    1.397   1_554 S
C158   C160    1.426   .     A
C158   C787    1.397   .     S
C161   O185    1.387   .     S
C161   C773    1.397   1_554 S
C162   O190    1.387   .     S
C162   C774    1.393   .     S
H166   N28     1.029   1_655 S
N167   Zn178   2.012   .     S
N167   H25     1.029   1_655 S
N167   N28     1.276   1_655 S
N168   Zn177   2.012   .     S
O169   Zn177   1.971   .     S
O170   Zn178   1.971   .     S
O171   Zn178   1.989   .     S
O172   Zn177   1.989   .     S
O173   Zn177   1.998   .     S
O174   Zn178   1.998   .     S
O175   Zn178   2.027   .     S
O176   Zn177   2.027   .     S
N179   H181    1.045   .     S
N179   H180    1.045   .     S
N182   H184    1.046   .     S
N182   H183    1.044   .     S
O185   C186    1.415   .     S
C186   H189    1.112   .     S
C186   H188    1.109   .     S
C186   H397    1.109   .     S
H187   C606    1.109   1_545 S
O190   C191    1.415   .     S
C191   H192    1.115   .     S
C191   H193    1.109   .     S
C191   H614    1.109   1_545 S
H194   C401    1.109   .     S
O195   C196    1.415   .     S
C196   H198    1.116   .     S
C196   H407    1.108   .     S
C196   H409    1.109   .     S
H197   C616    1.108   1_545 S
H199   C616    1.109   1_545 S
O200   C201    1.414   .     S
C201   H202    1.111   .     S
C201   H623    1.111   1_545 S
C201   H624    1.109   1_545 S
H203   C411    1.111   .     S
H204   C411    1.109   .     S
N205   H206    1.045   .     S
N205   H207    1.046   .     S
N205   C565    1.444   1_545 S
N208   C356    1.443   .     S
N208   H419    1.045   .     S
N208   H420    1.046   .     S
H209   N628    1.045   1_545 S
H210   N628    1.046   1_545 S
C211   O241    1.286   .     A
C211   C215    1.398   .     S
C211   O239    1.270   .     A
C212   O240    1.269   .     A
C212   C216    1.404   .     S
C212   O242    1.288   .     A
C213   C230    1.419   .     A
C213   O265    1.386   .     S
C213   C861    1.397   .     S
C214   O270    1.384   .     S
C214   C229    1.418   .     A
C214   C862    1.393   1_554 S
C215   C426    1.360   .     S
C215   N485    1.444   .     S
C217   C222    1.428   .     S
C217   O243    1.286   .     A
C217   O245    1.284   .     A
C218   O244    1.287   .     A
C218   C221    1.429   .     S
C218   O246    1.285   .     A
C219   C221    1.403   .     A
C219   C229    1.404   .     A
C219   N249    1.437   .     S
C220   C222    1.403   .     A
C220   N252    1.437   .     S
C220   C230    1.407   .     A
C221   C223    1.385   .     A
C222   C224    1.383   .     A
C223   C225    1.381   .     A
C223   H233    1.084   .     S
C224   C226    1.380   .     A
C224   H234    1.084   .     S
C225   C227    1.413   .     A
C225   C231    1.408   .     A
C226   C228    1.414   .     A
C226   C232    1.407   .     A
C227   C229    1.425   .     A
C227   C858    1.397   1_554 S
C228   C230    1.426   .     A
C228   C857    1.397   .     S
C231   O255    1.387   .     S
C231   C843    1.397   1_554 S
C232   O260    1.387   .     S
C232   C844    1.393   .     S
H235   N377    1.029   1_455 S
H236   N308    1.029   .     S
N237   Zn248   2.012   .     S
N237   H305    1.029   .     S
N237   N308    1.276   .     S
N238   Zn247   2.012   .     S
N238   H376    1.029   1_455 S
N238   N377    1.276   1_455 S
O239   Zn247   1.971   .     S
O240   Zn248   1.971   .     S
O241   Zn248   1.989   .     S
O242   Zn247   1.989   .     S
O243   Zn247   1.998   .     S
O244   Zn248   1.998   .     S
O245   Zn248   2.027   .     S
O246   Zn247   2.027   .     S
N249   H251    1.045   .     S
N249   H250    1.045   .     S
N252   H254    1.046   .     S
N252   H253    1.044   .     S
O255   C256    1.415   .     S
C256   H259    1.112   .     S
C256   H258    1.109   .     S
C256   H467    1.109   .     S
O260   C261    1.415   .     S
C261   H262    1.115   .     S
C261   H263    1.109   .     S
H264   C471    1.109   .     S
O265   C266    1.415   .     S
C266   H268    1.116   .     S
C266   H477    1.108   .     S
C266   H479    1.109   .     S
O270   C271    1.414   .     S
C271   H272    1.111   .     S
H273   C481    1.111   .     S
H274   C481    1.109   .     S
N275   H276    1.045   .     S
N275   H277    1.046   .     S
N278   C426    1.443   .     S
N278   H489    1.045   .     S
N278   H490    1.046   .     S
C281   O311    1.286   .     A
C281   C285    1.398   .     S
C281   O309    1.270   .     A
C282   O310    1.269   .     A
C282   C286    1.404   .     S
C282   O312    1.288   .     A
C283   C300    1.419   .     A
C283   O335    1.386   .     S
C283   C931    1.397   .     S
C284   O340    1.384   .     S
C284   C299    1.418   .     A
C284   C932    1.393   1_554 S
C285   C496    1.360   .     S
C285   N555    1.444   .     S
C287   C292    1.428   .     S
C287   O313    1.286   .     A
C287   O315    1.284   .     A
C288   O314    1.287   .     A
C288   C291    1.429   .     S
C288   O316    1.285   .     A
C289   C291    1.403   .     A
C289   C299    1.404   .     A
C289   N319    1.437   .     S
C290   C292    1.403   .     A
C290   N322    1.437   .     S
C290   C300    1.407   .     A
C291   C293    1.385   .     A
C292   C294    1.383   .     A
C293   C295    1.381   .     A
C293   H303    1.084   .     S
C294   C296    1.380   .     A
C294   H304    1.084   .     S
C295   C297    1.413   .     A
C295   C301    1.408   .     A
C296   C298    1.414   .     A
C296   C302    1.407   .     A
C297   C299    1.425   .     A
C297   C928    1.397   1_554 S
C298   C300    1.426   .     A
C298   C927    1.397   .     S
C301   O325    1.387   .     S
C301   C913    1.397   1_554 S
C302   O330    1.387   .     S
C302   C914    1.393   .     S
H306   N378    1.029   .     S
N307   Zn318   2.012   .     S
N307   H375    1.029   .     S
N307   N378    1.276   .     S
N308   Zn317   2.012   .     S
O309   Zn317   1.971   .     S
O310   Zn318   1.971   .     S
O311   Zn318   1.989   .     S
O312   Zn317   1.989   .     S
O313   Zn317   1.998   .     S
O314   Zn318   1.998   .     S
O315   Zn318   2.027   .     S
O316   Zn317   2.027   .     S
N319   H321    1.045   .     S
N319   H320    1.045   .     S
N322   H324    1.046   .     S
N322   H323    1.044   .     S
O325   C326    1.415   .     S
C326   H329    1.112   .     S
C326   H328    1.109   .     S
C326   H537    1.109   .     S
O330   C331    1.415   .     S
C331   H332    1.115   .     S
C331   H333    1.109   .     S
H334   C541    1.109   .     S
O335   C336    1.415   .     S
C336   H338    1.116   .     S
C336   H547    1.108   .     S
C336   H549    1.109   .     S
O340   C341    1.414   .     S
C341   H342    1.111   .     S
H343   C551    1.111   .     S
H344   C551    1.109   .     S
N345   H346    1.045   .     S
N345   H347    1.046   .     S
N348   C496    1.443   .     S
N348   H559    1.045   .     S
N348   H560    1.046   .     S
C351   O381    1.286   .     A
C351   C355    1.398   .     S
C351   O379    1.270   .     A
C352   O380    1.269   .     A
C352   C356    1.404   .     S
C352   O382    1.288   .     A
C353   C370    1.419   .     A
C353   O405    1.386   .     S
C353   C1001   1.397   .     S
C354   O410    1.384   .     S
C354   C369    1.418   .     A
C354   C1002   1.393   1_554 S
C355   C566    1.360   .     S
C355   N625    1.444   .     S
C357   C362    1.428   .     S
C357   O383    1.286   .     A
C357   O385    1.284   .     A
C358   O384    1.287   .     A
C358   C361    1.429   .     S
C358   O386    1.285   .     A
C359   C361    1.403   .     A
C359   C369    1.404   .     A
C359   N389    1.437   .     S
C360   C362    1.403   .     A
C360   N392    1.437   .     S
C360   C370    1.407   .     A
C361   C363    1.385   .     A
C362   C364    1.383   .     A
C363   C365    1.381   .     A
C363   H373    1.084   .     S
C364   C366    1.380   .     A
C364   H374    1.084   .     S
C365   C367    1.413   .     A
C365   C371    1.408   .     A
C366   C368    1.414   .     A
C366   C372    1.407   .     A
C367   C369    1.425   .     A
C367   C998    1.397   1_554 S
C368   C370    1.426   .     A
C368   C997    1.397   .     S
C371   O395    1.387   .     S
C371   C983    1.397   1_554 S
C372   O400    1.387   .     S
C372   C984    1.393   .     S
H376   N238    1.029   1_655 S
N377   Zn388   2.012   .     S
N377   H235    1.029   1_655 S
N377   N238    1.276   1_655 S
N378   Zn387   2.012   .     S
O379   Zn387   1.971   .     S
O380   Zn388   1.971   .     S
O381   Zn388   1.989   .     S
O382   Zn387   1.989   .     S
O383   Zn387   1.998   .     S
O384   Zn388   1.998   .     S
O385   Zn388   2.027   .     S
O386   Zn387   2.027   .     S
N389   H391    1.045   .     S
N389   H390    1.045   .     S
N392   H394    1.046   .     S
N392   H393    1.044   .     S
O395   C396    1.415   .     S
C396   H399    1.112   .     S
C396   H398    1.109   .     S
C396   H607    1.109   .     S
O400   C401    1.415   .     S
C401   H402    1.115   .     S
C401   H403    1.109   .     S
H404   C611    1.109   .     S
O405   C406    1.415   .     S
C406   H408    1.116   .     S
C406   H617    1.108   .     S
C406   H619    1.109   .     S
O410   C411    1.414   .     S
C411   H412    1.111   .     S
H413   C621    1.111   .     S
H414   C621    1.109   .     S
N415   H416    1.045   .     S
N415   H417    1.046   .     S
N418   C566    1.443   .     S
N418   H629    1.045   .     S
N418   H630    1.046   .     S
C421   O451    1.286   .     A
C421   C425    1.398   .     S
C421   O449    1.270   .     A
C422   O450    1.269   .     A
C422   C426    1.404   .     S
C422   O452    1.288   .     A
C423   C440    1.419   .     A
C423   O475    1.386   .     S
C423   C1071   1.397   .     S
C424   O480    1.384   .     S
C424   C439    1.418   .     A
C424   C1072   1.393   1_554 S
C425   C6      1.360   1_565 S
C425   N65     1.444   1_565 S
C427   C432    1.428   .     S
C427   O453    1.286   .     A
C427   O455    1.284   .     A
C428   O454    1.287   .     A
C428   C431    1.429   .     S
C428   O456    1.285   .     A
C429   C431    1.403   .     A
C429   C439    1.404   .     A
C429   N459    1.437   .     S
C430   C432    1.403   .     A
C430   N462    1.437   .     S
C430   C440    1.407   .     A
C431   C433    1.385   .     A
C432   C434    1.383   .     A
C433   C435    1.381   .     A
C433   H443    1.084   .     S
C434   C436    1.380   .     A
C434   H444    1.084   .     S
C435   C437    1.413   .     A
C435   C441    1.408   .     A
C436   C438    1.414   .     A
C436   C442    1.407   .     A
C437   C439    1.425   .     A
C437   C1068   1.397   1_554 S
C438   C440    1.426   .     A
C438   C1067   1.397   .     S
C441   O465    1.387   .     S
C441   C1053   1.397   1_554 S
C442   O470    1.387   .     S
C442   C1054   1.393   .     S
H445   N587    1.029   1_455 S
H446   N518    1.029   .     S
N447   Zn458   2.012   .     S
N447   H515    1.029   .     S
N447   N518    1.276   .     S
N448   Zn457   2.012   .     S
N448   H586    1.029   1_455 S
N448   N587    1.276   1_455 S
O449   Zn457   1.971   .     S
O450   Zn458   1.971   .     S
O451   Zn458   1.989   .     S
O452   Zn457   1.989   .     S
O453   Zn457   1.998   .     S
O454   Zn458   1.998   .     S
O455   Zn458   2.027   .     S
O456   Zn457   2.027   .     S
N459   H461    1.045   .     S
N459   H460    1.045   .     S
N462   H464    1.046   .     S
N462   H463    1.044   .     S
O465   C466    1.415   .     S
C466   H469    1.112   .     S
C466   H468    1.109   .     S
C466   H47     1.109   1_565 S
O470   C471    1.415   .     S
C471   H472    1.115   .     S
C471   H473    1.109   .     S
H474   C51     1.109   1_565 S
O475   C476    1.415   .     S
C476   H478    1.116   .     S
C476   H57     1.108   1_565 S
C476   H59     1.109   1_565 S
O480   C481    1.414   .     S
C481   H482    1.111   .     S
H483   C61     1.111   1_565 S
H484   C61     1.109   1_565 S
N485   H486    1.045   .     S
N485   H487    1.046   .     S
N488   C6      1.443   1_565 S
N488   H69     1.045   1_565 S
N488   H70     1.046   1_565 S
C491   O521    1.286   .     A
C491   C495    1.398   .     S
C491   O519    1.270   .     A
C492   O520    1.269   .     A
C492   C496    1.404   .     S
C492   O522    1.288   .     A
C493   C510    1.419   .     A
C493   O545    1.386   .     S
C493   C1141   1.397   .     S
C494   O550    1.384   .     S
C494   C509    1.418   .     A
C494   C1142   1.393   1_554 S
C495   C76     1.360   1_565 S
C495   N135    1.444   1_565 S
C497   C502    1.428   .     S
C497   O523    1.286   .     A
C497   O525    1.284   .     A
C498   O524    1.287   .     A
C498   C501    1.429   .     S
C498   O526    1.285   .     A
C499   C501    1.403   .     A
C499   C509    1.404   .     A
C499   N529    1.437   .     S
C500   C502    1.403   .     A
C500   N532    1.437   .     S
C500   C510    1.407   .     A
C501   C503    1.385   .     A
C502   C504    1.383   .     A
C503   C505    1.381   .     A
C503   H513    1.084   .     S
C504   C506    1.380   .     A
C504   H514    1.084   .     S
C505   C507    1.413   .     A
C505   C511    1.408   .     A
C506   C508    1.414   .     A
C506   C512    1.407   .     A
C507   C509    1.425   .     A
C507   C1138   1.397   1_554 S
C508   C510    1.426   .     A
C508   C1137   1.397   .     S
C511   O535    1.387   .     S
C511   C1123   1.397   1_554 S
C512   O540    1.387   .     S
C512   C1124   1.393   .     S
H516   N588    1.029   .     S
N517   Zn528   2.012   .     S
N517   H585    1.029   .     S
N517   N588    1.276   .     S
N518   Zn527   2.012   .     S
O519   Zn527   1.971   .     S
O520   Zn528   1.971   .     S
O521   Zn528   1.989   .     S
O522   Zn527   1.989   .     S
O523   Zn527   1.998   .     S
O524   Zn528   1.998   .     S
O525   Zn528   2.027   .     S
O526   Zn527   2.027   .     S
N529   H531    1.045   .     S
N529   H530    1.045   .     S
N532   H534    1.046   .     S
N532   H533    1.044   .     S
O535   C536    1.415   .     S
C536   H539    1.112   .     S
C536   H538    1.109   .     S
C536   H117    1.109   1_565 S
O540   C541    1.415   .     S
C541   H542    1.115   .     S
C541   H543    1.109   .     S
H544   C121    1.109   1_565 S
O545   C546    1.415   .     S
C546   H548    1.116   .     S
C546   H127    1.108   1_565 S
C546   H129    1.109   1_565 S
O550   C551    1.414   .     S
C551   H552    1.111   .     S
H553   C131    1.111   1_565 S
H554   C131    1.109   1_565 S
N555   H556    1.045   .     S
N555   H557    1.046   .     S
N558   C76     1.443   1_565 S
N558   H139    1.045   1_565 S
N558   H140    1.046   1_565 S
C561   O591    1.286   .     A
C561   C565    1.398   .     S
C561   O589    1.270   .     A
C562   O590    1.269   .     A
C562   C566    1.404   .     S
C562   O592    1.288   .     A
C563   C580    1.419   .     A
C563   O615    1.386   .     S
C563   C1211   1.397   .     S
C564   O620    1.384   .     S
C564   C579    1.418   .     A
C564   C1212   1.393   1_554 S
C565   C146    1.360   1_565 S
C565   N205    1.444   1_565 S
C567   C572    1.428   .     S
C567   O593    1.286   .     A
C567   O595    1.284   .     A
C568   O594    1.287   .     A
C568   C571    1.429   .     S
C568   O596    1.285   .     A
C569   C571    1.403   .     A
C569   C579    1.404   .     A
C569   N599    1.437   .     S
C570   C572    1.403   .     A
C570   N602    1.437   .     S
C570   C580    1.407   .     A
C571   C573    1.385   .     A
C572   C574    1.383   .     A
C573   C575    1.381   .     A
C573   H583    1.084   .     S
C574   C576    1.380   .     A
C574   H584    1.084   .     S
C575   C577    1.413   .     A
C575   C581    1.408   .     A
C576   C578    1.414   .     A
C576   C582    1.407   .     A
C577   C579    1.425   .     A
C577   C1208   1.397   1_554 S
C578   C580    1.426   .     A
C578   C1207   1.397   .     S
C581   O605    1.387   .     S
C581   C1193   1.397   1_554 S
C582   O610    1.387   .     S
C582   C1194   1.393   .     S
H586   N448    1.029   1_655 S
N587   Zn598   2.012   .     S
N587   H445    1.029   1_655 S
N587   N448    1.276   1_655 S
N588   Zn597   2.012   .     S
O589   Zn597   1.971   .     S
O590   Zn598   1.971   .     S
O591   Zn598   1.989   .     S
O592   Zn597   1.989   .     S
O593   Zn597   1.998   .     S
O594   Zn598   1.998   .     S
O595   Zn598   2.027   .     S
O596   Zn597   2.027   .     S
N599   H601    1.045   .     S
N599   H600    1.045   .     S
N602   H604    1.046   .     S
N602   H603    1.044   .     S
O605   C606    1.415   .     S
C606   H609    1.112   .     S
C606   H608    1.109   .     S
C606   H187    1.109   1_565 S
O610   C611    1.415   .     S
C611   H612    1.115   .     S
C611   H613    1.109   .     S
H614   C191    1.109   1_565 S
O615   C616    1.415   .     S
C616   H618    1.116   .     S
C616   H197    1.108   1_565 S
C616   H199    1.109   1_565 S
O620   C621    1.414   .     S
C621   H622    1.111   .     S
H623   C201    1.111   1_565 S
H624   C201    1.109   1_565 S
N625   H626    1.045   .     S
N625   H627    1.046   .     S
N628   C146    1.443   1_565 S
N628   H209    1.045   1_565 S
N628   H210    1.046   1_565 S
C631   O661    1.286   .     A
C631   C635    1.398   .     S
C631   O659    1.270   .     A
C632   O660    1.269   .     A
C632   C636    1.404   .     S
C632   O662    1.288   .     A
C633   C650    1.419   .     A
C633   O685    1.386   .     S
C633   C21     1.397   1_556 S
C634   O690    1.384   .     S
C634   C649    1.418   .     A
C635   C846    1.360   .     S
C635   N905    1.444   .     S
C636   C1055   1.360   1_545 S
C636   N1118   1.443   1_545 S
C637   C642    1.428   .     S
C637   O663    1.286   .     A
C637   O665    1.284   .     A
C638   O664    1.287   .     A
C638   C641    1.429   .     S
C638   O666    1.285   .     A
C639   C641    1.403   .     A
C639   C649    1.404   .     A
C639   N669    1.437   .     S
C640   C642    1.403   .     A
C640   N672    1.437   .     S
C640   C650    1.407   .     A
C641   C643    1.385   .     A
C642   C644    1.383   .     A
C643   C645    1.381   .     A
C643   H653    1.084   .     S
C644   C646    1.380   .     A
C644   H654    1.084   .     S
C645   C647    1.413   .     A
C645   C651    1.408   .     A
C646   C648    1.414   .     A
C646   C652    1.407   .     A
C647   C649    1.425   .     A
C648   C650    1.426   .     A
C648   C17     1.397   1_556 S
C651   O675    1.387   .     S
C652   O680    1.387   .     S
C652   C4      1.393   1_556 S
H655   N797    1.029   1_455 S
H656   N728    1.029   .     S
N657   Zn668   2.012   .     S
N657   H725    1.029   .     S
N657   N728    1.276   .     S
N658   Zn667   2.012   .     S
N658   H796    1.029   1_455 S
N658   N797    1.276   1_455 S
O659   Zn667   1.971   .     S
O660   Zn668   1.971   .     S
O661   Zn668   1.989   .     S
O662   Zn667   1.989   .     S
O663   Zn667   1.998   .     S
O664   Zn668   1.998   .     S
O665   Zn668   2.027   .     S
O666   Zn667   2.027   .     S
N669   H671    1.045   .     S
N669   H670    1.045   .     S
N672   H674    1.046   .     S
N672   H673    1.044   .     S
O675   C676    1.415   .     S
C676   H679    1.112   .     S
C676   H678    1.109   .     S
C676   H887    1.109   .     S
H677   C1096   1.109   1_545 S
O680   C681    1.415   .     S
C681   H682    1.115   .     S
C681   H683    1.109   .     S
C681   H1104   1.109   1_545 S
H684   C891    1.109   .     S
O685   C686    1.415   .     S
C686   H688    1.116   .     S
C686   H897    1.108   .     S
C686   H899    1.109   .     S
H687   C1106   1.108   1_545 S
H689   C1106   1.109   1_545 S
O690   C691    1.414   .     S
C691   H692    1.111   .     S
C691   H1113   1.111   1_545 S
C691   H1114   1.109   1_545 S
H693   C901    1.111   .     S
H694   C901    1.109   .     S
N695   H696    1.045   .     S
N695   H697    1.046   .     S
N695   C1055   1.444   1_545 S
N698   C846    1.443   .     S
N698   H909    1.045   .     S
N698   H910    1.046   .     S
H699   N1118   1.045   1_545 S
H700   N1118   1.046   1_545 S
C701   O731    1.286   .     A
C701   C705    1.398   .     S
C701   O729    1.270   .     A
C702   O730    1.269   .     A
C702   C706    1.404   .     S
C702   O732    1.288   .     A
C703   C720    1.419   .     A
C703   O755    1.386   .     S
C703   C91     1.397   1_556 S
C704   O760    1.384   .     S
C704   C719    1.418   .     A
C705   C916    1.360   .     S
C705   N975    1.444   .     S
C706   C1125   1.360   1_545 S
C706   N1188   1.443   1_545 S
C707   C712    1.428   .     S
C707   O733    1.286   .     A
C707   O735    1.284   .     A
C708   O734    1.287   .     A
C708   C711    1.429   .     S
C708   O736    1.285   .     A
C709   C711    1.403   .     A
C709   C719    1.404   .     A
C709   N739    1.437   .     S
C710   C712    1.403   .     A
C710   N742    1.437   .     S
C710   C720    1.407   .     A
C711   C713    1.385   .     A
C712   C714    1.383   .     A
C713   C715    1.381   .     A
C713   H723    1.084   .     S
C714   C716    1.380   .     A
C714   H724    1.084   .     S
C715   C717    1.413   .     A
C715   C721    1.408   .     A
C716   C718    1.414   .     A
C716   C722    1.407   .     A
C717   C719    1.425   .     A
C718   C720    1.426   .     A
C718   C87     1.397   1_556 S
C721   O745    1.387   .     S
C722   O750    1.387   .     S
C722   C74     1.393   1_556 S
H726   N798    1.029   .     S
N727   Zn738   2.012   .     S
N727   H795    1.029   .     S
N727   N798    1.276   .     S
N728   Zn737   2.012   .     S
O729   Zn737   1.971   .     S
O730   Zn738   1.971   .     S
O731   Zn738   1.989   .     S
O732   Zn737   1.989   .     S
O733   Zn737   1.998   .     S
O734   Zn738   1.998   .     S
O735   Zn738   2.027   .     S
O736   Zn737   2.027   .     S
N739   H741    1.045   .     S
N739   H740    1.045   .     S
N742   H744    1.046   .     S
N742   H743    1.044   .     S
O745   C746    1.415   .     S
C746   H749    1.112   .     S
C746   H748    1.109   .     S
C746   H957    1.109   .     S
H747   C1166   1.109   1_545 S
O750   C751    1.415   .     S
C751   H752    1.115   .     S
C751   H753    1.109   .     S
C751   H1174   1.109   1_545 S
H754   C961    1.109   .     S
O755   C756    1.415   .     S
C756   H758    1.116   .     S
C756   H967    1.108   .     S
C756   H969    1.109   .     S
H757   C1176   1.108   1_545 S
H759   C1176   1.109   1_545 S
O760   C761    1.414   .     S
C761   H762    1.111   .     S
C761   H1183   1.111   1_545 S
C761   H1184   1.109   1_545 S
H763   C971    1.111   .     S
H764   C971    1.109   .     S
N765   H766    1.045   .     S
N765   H767    1.046   .     S
N765   C1125   1.444   1_545 S
N768   C916    1.443   .     S
N768   H979    1.045   .     S
N768   H980    1.046   .     S
H769   N1188   1.045   1_545 S
H770   N1188   1.046   1_545 S
C771   O801    1.286   .     A
C771   C775    1.398   .     S
C771   O799    1.270   .     A
C772   O800    1.269   .     A
C772   C776    1.404   .     S
C772   O802    1.288   .     A
C773   C790    1.419   .     A
C773   O825    1.386   .     S
C773   C161    1.397   1_556 S
C774   O830    1.384   .     S
C774   C789    1.418   .     A
C775   C986    1.360   .     S
C775   N1045   1.444   .     S
C776   C1195   1.360   1_545 S
C776   N1258   1.443   1_545 S
C777   C782    1.428   .     S
C777   O803    1.286   .     A
C777   O805    1.284   .     A
C778   O804    1.287   .     A
C778   C781    1.429   .     S
C778   O806    1.285   .     A
C779   C781    1.403   .     A
C779   C789    1.404   .     A
C779   N809    1.437   .     S
C780   C782    1.403   .     A
C780   N812    1.437   .     S
C780   C790    1.407   .     A
C781   C783    1.385   .     A
C782   C784    1.383   .     A
C783   C785    1.381   .     A
C783   H793    1.084   .     S
C784   C786    1.380   .     A
C784   H794    1.084   .     S
C785   C787    1.413   .     A
C785   C791    1.408   .     A
C786   C788    1.414   .     A
C786   C792    1.407   .     A
C787   C789    1.425   .     A
C788   C790    1.426   .     A
C788   C157    1.397   1_556 S
C791   O815    1.387   .     S
C792   O820    1.387   .     S
C792   C144    1.393   1_556 S
H796   N658    1.029   1_655 S
N797   Zn808   2.012   .     S
N797   H655    1.029   1_655 S
N797   N658    1.276   1_655 S
N798   Zn807   2.012   .     S
O799   Zn807   1.971   .     S
O800   Zn808   1.971   .     S
O801   Zn808   1.989   .     S
O802   Zn807   1.989   .     S
O803   Zn807   1.998   .     S
O804   Zn808   1.998   .     S
O805   Zn808   2.027   .     S
O806   Zn807   2.027   .     S
N809   H811    1.045   .     S
N809   H810    1.045   .     S
N812   H814    1.046   .     S
N812   H813    1.044   .     S
O815   C816    1.415   .     S
C816   H819    1.112   .     S
C816   H818    1.109   .     S
C816   H1027   1.109   .     S
H817   C1236   1.109   1_545 S
O820   C821    1.415   .     S
C821   H822    1.115   .     S
C821   H823    1.109   .     S
C821   H1244   1.109   1_545 S
H824   C1031   1.109   .     S
O825   C826    1.415   .     S
C826   H828    1.116   .     S
C826   H1037   1.108   .     S
C826   H1039   1.109   .     S
H827   C1246   1.108   1_545 S
H829   C1246   1.109   1_545 S
O830   C831    1.414   .     S
C831   H832    1.111   .     S
C831   H1253   1.111   1_545 S
C831   H1254   1.109   1_545 S
H833   C1041   1.111   .     S
H834   C1041   1.109   .     S
N835   H836    1.045   .     S
N835   H837    1.046   .     S
N835   C1195   1.444   1_545 S
N838   C986    1.443   .     S
N838   H1049   1.045   .     S
N838   H1050   1.046   .     S
H839   N1258   1.045   1_545 S
H840   N1258   1.046   1_545 S
C841   O871    1.286   .     A
C841   C845    1.398   .     S
C841   O869    1.270   .     A
C842   O870    1.269   .     A
C842   C846    1.404   .     S
C842   O872    1.288   .     A
C843   C860    1.419   .     A
C843   O895    1.386   .     S
C843   C231    1.397   1_556 S
C844   O900    1.384   .     S
C844   C859    1.418   .     A
C845   C1056   1.360   .     S
C845   N1115   1.444   .     S
C847   C852    1.428   .     S
C847   O873    1.286   .     A
C847   O875    1.284   .     A
C848   O874    1.287   .     A
C848   C851    1.429   .     S
C848   O876    1.285   .     A
C849   C851    1.403   .     A
C849   C859    1.404   .     A
C849   N879    1.437   .     S
C850   C852    1.403   .     A
C850   N882    1.437   .     S
C850   C860    1.407   .     A
C851   C853    1.385   .     A
C852   C854    1.383   .     A
C853   C855    1.381   .     A
C853   H863    1.084   .     S
C854   C856    1.380   .     A
C854   H864    1.084   .     S
C855   C857    1.413   .     A
C855   C861    1.408   .     A
C856   C858    1.414   .     A
C856   C862    1.407   .     A
C857   C859    1.425   .     A
C858   C860    1.426   .     A
C858   C227    1.397   1_556 S
C861   O885    1.387   .     S
C862   O890    1.387   .     S
C862   C214    1.393   1_556 S
H865   N1007   1.029   1_455 S
H866   N938    1.029   .     S
N867   Zn878   2.012   .     S
N867   H935    1.029   .     S
N867   N938    1.276   .     S
N868   Zn877   2.012   .     S
N868   H1006   1.029   1_455 S
N868   N1007   1.276   1_455 S
O869   Zn877   1.971   .     S
O870   Zn878   1.971   .     S
O871   Zn878   1.989   .     S
O872   Zn877   1.989   .     S
O873   Zn877   1.998   .     S
O874   Zn878   1.998   .     S
O875   Zn878   2.027   .     S
O876   Zn877   2.027   .     S
N879   H881    1.045   .     S
N879   H880    1.045   .     S
N882   H884    1.046   .     S
N882   H883    1.044   .     S
O885   C886    1.415   .     S
C886   H889    1.112   .     S
C886   H888    1.109   .     S
C886   H1097   1.109   .     S
O890   C891    1.415   .     S
C891   H892    1.115   .     S
C891   H893    1.109   .     S
H894   C1101   1.109   .     S
O895   C896    1.415   .     S
C896   H898    1.116   .     S
C896   H1107   1.108   .     S
C896   H1109   1.109   .     S
O900   C901    1.414   .     S
C901   H902    1.111   .     S
H903   C1111   1.111   .     S
H904   C1111   1.109   .     S
N905   H906    1.045   .     S
N905   H907    1.046   .     S
N908   C1056   1.443   .     S
N908   H1119   1.045   .     S
N908   H1120   1.046   .     S
C911   O941    1.286   .     A
C911   C915    1.398   .     S
C911   O939    1.270   .     A
C912   O940    1.269   .     A
C912   C916    1.404   .     S
C912   O942    1.288   .     A
C913   C930    1.419   .     A
C913   O965    1.386   .     S
C913   C301    1.397   1_556 S
C914   O970    1.384   .     S
C914   C929    1.418   .     A
C915   C1126   1.360   .     S
C915   N1185   1.444   .     S
C917   C922    1.428   .     S
C917   O943    1.286   .     A
C917   O945    1.284   .     A
C918   O944    1.287   .     A
C918   C921    1.429   .     S
C918   O946    1.285   .     A
C919   C921    1.403   .     A
C919   C929    1.404   .     A
C919   N949    1.437   .     S
C920   C922    1.403   .     A
C920   N952    1.437   .     S
C920   C930    1.407   .     A
C921   C923    1.385   .     A
C922   C924    1.383   .     A
C923   C925    1.381   .     A
C923   H933    1.084   .     S
C924   C926    1.380   .     A
C924   H934    1.084   .     S
C925   C927    1.413   .     A
C925   C931    1.408   .     A
C926   C928    1.414   .     A
C926   C932    1.407   .     A
C927   C929    1.425   .     A
C928   C930    1.426   .     A
C928   C297    1.397   1_556 S
C931   O955    1.387   .     S
C932   O960    1.387   .     S
C932   C284    1.393   1_556 S
H936   N1008   1.029   .     S
N937   Zn948   2.012   .     S
N937   H1005   1.029   .     S
N937   N1008   1.276   .     S
N938   Zn947   2.012   .     S
O939   Zn947   1.971   .     S
O940   Zn948   1.971   .     S
O941   Zn948   1.989   .     S
O942   Zn947   1.989   .     S
O943   Zn947   1.998   .     S
O944   Zn948   1.998   .     S
O945   Zn948   2.027   .     S
O946   Zn947   2.027   .     S
N949   H951    1.045   .     S
N949   H950    1.045   .     S
N952   H954    1.046   .     S
N952   H953    1.044   .     S
O955   C956    1.415   .     S
C956   H959    1.112   .     S
C956   H958    1.109   .     S
C956   H1167   1.109   .     S
O960   C961    1.415   .     S
C961   H962    1.115   .     S
C961   H963    1.109   .     S
H964   C1171   1.109   .     S
O965   C966    1.415   .     S
C966   H968    1.116   .     S
C966   H1177   1.108   .     S
C966   H1179   1.109   .     S
O970   C971    1.414   .     S
C971   H972    1.111   .     S
H973   C1181   1.111   .     S
H974   C1181   1.109   .     S
N975   H976    1.045   .     S
N975   H977    1.046   .     S
N978   C1126   1.443   .     S
N978   H1189   1.045   .     S
N978   H1190   1.046   .     S
C981   O1011   1.286   .     A
C981   C985    1.398   .     S
C981   O1009   1.270   .     A
C982   O1010   1.269   .     A
C982   C986    1.404   .     S
C982   O1012   1.288   .     A
C983   C1000   1.419   .     A
C983   O1035   1.386   .     S
C983   C371    1.397   1_556 S
C984   O1040   1.384   .     S
C984   C999    1.418   .     A
C985   C1196   1.360   .     S
C985   N1255   1.444   .     S
C987   C992    1.428   .     S
C987   O1013   1.286   .     A
C987   O1015   1.284   .     A
C988   O1014   1.287   .     A
C988   C991    1.429   .     S
C988   O1016   1.285   .     A
C989   C991    1.403   .     A
C989   C999    1.404   .     A
C989   N1019   1.437   .     S
C990   C992    1.403   .     A
C990   N1022   1.437   .     S
C990   C1000   1.407   .     A
C991   C993    1.385   .     A
C992   C994    1.383   .     A
C993   C995    1.381   .     A
C993   H1003   1.084   .     S
C994   C996    1.380   .     A
C994   H1004   1.084   .     S
C995   C997    1.413   .     A
C995   C1001   1.408   .     A
C996   C998    1.414   .     A
C996   C1002   1.407   .     A
C997   C999    1.425   .     A
C998   C1000   1.426   .     A
C998   C367    1.397   1_556 S
C1001  O1025   1.387   .     S
C1002  O1030   1.387   .     S
C1002  C354    1.393   1_556 S
H1006  N868    1.029   1_655 S
N1007  Zn1018  2.012   .     S
N1007  H865    1.029   1_655 S
N1007  N868    1.276   1_655 S
N1008  Zn1017  2.012   .     S
O1009  Zn1017  1.971   .     S
O1010  Zn1018  1.971   .     S
O1011  Zn1018  1.989   .     S
O1012  Zn1017  1.989   .     S
O1013  Zn1017  1.998   .     S
O1014  Zn1018  1.998   .     S
O1015  Zn1018  2.027   .     S
O1016  Zn1017  2.027   .     S
N1019  H1021   1.045   .     S
N1019  H1020   1.045   .     S
N1022  H1024   1.046   .     S
N1022  H1023   1.044   .     S
O1025  C1026   1.415   .     S
C1026  H1029   1.112   .     S
C1026  H1028   1.109   .     S
C1026  H1237   1.109   .     S
O1030  C1031   1.415   .     S
C1031  H1032   1.115   .     S
C1031  H1033   1.109   .     S
H1034  C1241   1.109   .     S
O1035  C1036   1.415   .     S
C1036  H1038   1.116   .     S
C1036  H1247   1.108   .     S
C1036  H1249   1.109   .     S
O1040  C1041   1.414   .     S
C1041  H1042   1.111   .     S
H1043  C1251   1.111   .     S
H1044  C1251   1.109   .     S
N1045  H1046   1.045   .     S
N1045  H1047   1.046   .     S
N1048  C1196   1.443   .     S
N1048  H1259   1.045   .     S
N1048  H1260   1.046   .     S
C1051  O1081   1.286   .     A
C1051  C1055   1.398   .     S
C1051  O1079   1.270   .     A
C1052  O1080   1.269   .     A
C1052  C1056   1.404   .     S
C1052  O1082   1.288   .     A
C1053  C1070   1.419   .     A
C1053  O1105   1.386   .     S
C1053  C441    1.397   1_556 S
C1054  O1110   1.384   .     S
C1054  C1069   1.418   .     A
C1055  C636    1.360   1_565 S
C1055  N695    1.444   1_565 S
C1057  C1062   1.428   .     S
C1057  O1083   1.286   .     A
C1057  O1085   1.284   .     A
C1058  O1084   1.287   .     A
C1058  C1061   1.429   .     S
C1058  O1086   1.285   .     A
C1059  C1061   1.403   .     A
C1059  C1069   1.404   .     A
C1059  N1089   1.437   .     S
C1060  C1062   1.403   .     A
C1060  N1092   1.437   .     S
C1060  C1070   1.407   .     A
C1061  C1063   1.385   .     A
C1062  C1064   1.383   .     A
C1063  C1065   1.381   .     A
C1063  H1073   1.084   .     S
C1064  C1066   1.380   .     A
C1064  H1074   1.084   .     S
C1065  C1067   1.413   .     A
C1065  C1071   1.408   .     A
C1066  C1068   1.414   .     A
C1066  C1072   1.407   .     A
C1067  C1069   1.425   .     A
C1068  C1070   1.426   .     A
C1068  C437    1.397   1_556 S
C1071  O1095   1.387   .     S
C1072  O1100   1.387   .     S
C1072  C424    1.393   1_556 S
H1075  N1217   1.029   1_455 S
H1076  N1148   1.029   .     S
N1077  Zn1088  2.012   .     S
N1077  H1145   1.029   .     S
N1077  N1148   1.276   .     S
N1078  Zn1087  2.012   .     S
N1078  H1216   1.029   1_455 S
N1078  N1217   1.276   1_455 S
O1079  Zn1087  1.971   .     S
O1080  Zn1088  1.971   .     S
O1081  Zn1088  1.989   .     S
O1082  Zn1087  1.989   .     S
O1083  Zn1087  1.998   .     S
O1084  Zn1088  1.998   .     S
O1085  Zn1088  2.027   .     S
O1086  Zn1087  2.027   .     S
N1089  H1091   1.045   .     S
N1089  H1090   1.045   .     S
N1092  H1094   1.046   .     S
N1092  H1093   1.044   .     S
O1095  C1096   1.415   .     S
C1096  H1099   1.112   .     S
C1096  H1098   1.109   .     S
C1096  H677    1.109   1_565 S
O1100  C1101   1.415   .     S
C1101  H1102   1.115   .     S
C1101  H1103   1.109   .     S
H1104  C681    1.109   1_565 S
O1105  C1106   1.415   .     S
C1106  H1108   1.116   .     S
C1106  H687    1.108   1_565 S
C1106  H689    1.109   1_565 S
O1110  C1111   1.414   .     S
C1111  H1112   1.111   .     S
H1113  C691    1.111   1_565 S
H1114  C691    1.109   1_565 S
N1115  H1116   1.045   .     S
N1115  H1117   1.046   .     S
N1118  C636    1.443   1_565 S
N1118  H699    1.045   1_565 S
N1118  H700    1.046   1_565 S
C1121  O1151   1.286   .     A
C1121  C1125   1.398   .     S
C1121  O1149   1.270   .     A
C1122  O1150   1.269   .     A
C1122  C1126   1.404   .     S
C1122  O1152   1.288   .     A
C1123  C1140   1.419   .     A
C1123  O1175   1.386   .     S
C1123  C511    1.397   1_556 S
C1124  O1180   1.384   .     S
C1124  C1139   1.418   .     A
C1125  C706    1.360   1_565 S
C1125  N765    1.444   1_565 S
C1127  C1132   1.428   .     S
C1127  O1153   1.286   .     A
C1127  O1155   1.284   .     A
C1128  O1154   1.287   .     A
C1128  C1131   1.429   .     S
C1128  O1156   1.285   .     A
C1129  C1131   1.403   .     A
C1129  C1139   1.404   .     A
C1129  N1159   1.437   .     S
C1130  C1132   1.403   .     A
C1130  N1162   1.437   .     S
C1130  C1140   1.407   .     A
C1131  C1133   1.385   .     A
C1132  C1134   1.383   .     A
C1133  C1135   1.381   .     A
C1133  H1143   1.084   .     S
C1134  C1136   1.380   .     A
C1134  H1144   1.084   .     S
C1135  C1137   1.413   .     A
C1135  C1141   1.408   .     A
C1136  C1138   1.414   .     A
C1136  C1142   1.407   .     A
C1137  C1139   1.425   .     A
C1138  C1140   1.426   .     A
C1138  C507    1.397   1_556 S
C1141  O1165   1.387   .     S
C1142  O1170   1.387   .     S
C1142  C494    1.393   1_556 S
H1146  N1218   1.029   .     S
N1147  Zn1158  2.012   .     S
N1147  H1215   1.029   .     S
N1147  N1218   1.276   .     S
N1148  Zn1157  2.012   .     S
O1149  Zn1157  1.971   .     S
O1150  Zn1158  1.971   .     S
O1151  Zn1158  1.989   .     S
O1152  Zn1157  1.989   .     S
O1153  Zn1157  1.998   .     S
O1154  Zn1158  1.998   .     S
O1155  Zn1158  2.027   .     S
O1156  Zn1157  2.027   .     S
N1159  H1161   1.045   .     S
N1159  H1160   1.045   .     S
N1162  H1164   1.046   .     S
N1162  H1163   1.044   .     S
O1165  C1166   1.415   .     S
C1166  H1169   1.112   .     S
C1166  H1168   1.109   .     S
C1166  H747    1.109   1_565 S
O1170  C1171   1.415   .     S
C1171  H1172   1.115   .     S
C1171  H1173   1.109   .     S
H1174  C751    1.109   1_565 S
O1175  C1176   1.415   .     S
C1176  H1178   1.116   .     S
C1176  H757    1.108   1_565 S
C1176  H759    1.109   1_565 S
O1180  C1181   1.414   .     S
C1181  H1182   1.111   .     S
H1183  C761    1.111   1_565 S
H1184  C761    1.109   1_565 S
N1185  H1186   1.045   .     S
N1185  H1187   1.046   .     S
N1188  C706    1.443   1_565 S
N1188  H769    1.045   1_565 S
N1188  H770    1.046   1_565 S
C1191  O1221   1.286   .     A
C1191  C1195   1.398   .     S
C1191  O1219   1.270   .     A
C1192  O1220   1.269   .     A
C1192  C1196   1.404   .     S
C1192  O1222   1.288   .     A
C1193  C1210   1.419   .     A
C1193  O1245   1.386   .     S
C1193  C581    1.397   1_556 S
C1194  O1250   1.384   .     S
C1194  C1209   1.418   .     A
C1195  C776    1.360   1_565 S
C1195  N835    1.444   1_565 S
C1197  C1202   1.428   .     S
C1197  O1223   1.286   .     A
C1197  O1225   1.284   .     A
C1198  O1224   1.287   .     A
C1198  C1201   1.429   .     S
C1198  O1226   1.285   .     A
C1199  C1201   1.403   .     A
C1199  C1209   1.404   .     A
C1199  N1229   1.437   .     S
C1200  C1202   1.403   .     A
C1200  N1232   1.437   .     S
C1200  C1210   1.407   .     A
C1201  C1203   1.385   .     A
C1202  C1204   1.383   .     A
C1203  C1205   1.381   .     A
C1203  H1213   1.084   .     S
C1204  C1206   1.380   .     A
C1204  H1214   1.084   .     S
C1205  C1207   1.413   .     A
C1205  C1211   1.408   .     A
C1206  C1208   1.414   .     A
C1206  C1212   1.407   .     A
C1207  C1209   1.425   .     A
C1208  C1210   1.426   .     A
C1208  C577    1.397   1_556 S
C1211  O1235   1.387   .     S
C1212  O1240   1.387   .     S
C1212  C564    1.393   1_556 S
H1216  N1078   1.029   1_655 S
N1217  Zn1228  2.012   .     S
N1217  H1075   1.029   1_655 S
N1217  N1078   1.276   1_655 S
N1218  Zn1227  2.012   .     S
O1219  Zn1227  1.971   .     S
O1220  Zn1228  1.971   .     S
O1221  Zn1228  1.989   .     S
O1222  Zn1227  1.989   .     S
O1223  Zn1227  1.998   .     S
O1224  Zn1228  1.998   .     S
O1225  Zn1228  2.027   .     S
O1226  Zn1227  2.027   .     S
N1229  H1231   1.045   .     S
N1229  H1230   1.045   .     S
N1232  H1234   1.046   .     S
N1232  H1233   1.044   .     S
O1235  C1236   1.415   .     S
C1236  H1239   1.112   .     S
C1236  H1238   1.109   .     S
C1236  H817    1.109   1_565 S
O1240  C1241   1.415   .     S
C1241  H1242   1.115   .     S
C1241  H1243   1.109   .     S
H1244  C821    1.109   1_565 S
O1245  C1246   1.415   .     S
C1246  H1248   1.116   .     S
C1246  H827    1.108   1_565 S
C1246  H829    1.109   1_565 S
O1250  C1251   1.414   .     S
C1251  H1252   1.111   .     S
H1253  C831    1.111   1_565 S
H1254  C831    1.109   1_565 S
N1255  H1256   1.045   .     S
N1255  H1257   1.046   .     S
N1258  C776    1.443   1_565 S
N1258  H839    1.045   1_565 S
N1258  H840    1.046   1_565 S
