data_str_m3_o1_o10_pcu_sym.86
_audit_creation_date              2020-01-03
_audit_creation_method            'Materials Studio'
_symmetry_space_group_name_H-M    'P1'
_symmetry_Int_Tables_number       1
_symmetry_cell_setting            triclinic
loop_
_symmetry_equiv_pos_as_xyz
  x,y,z
_cell_length_a                    25.8538
_cell_length_b                    32.1382
_cell_length_c                    29.4901
_cell_angle_alpha                 90.1418
_cell_angle_beta                  98.4821
_cell_angle_gamma                 89.6459
loop_
_atom_site_label
_atom_site_type_symbol
_atom_site_fract_x
_atom_site_fract_y
_atom_site_fract_z
_atom_site_U_iso_or_equiv
_atom_site_adp_type
_atom_site_occupancy
C1     C     0.16667   0.08661   0.16662   0.00000  Uiso   1.00
C2     C     0.17364   0.02137   0.20848   0.00000  Uiso   1.00
C3     C     0.16663   0.29086   0.16671   0.00000  Uiso   1.00
C4     C     0.16670   0.04247   0.16662   0.00000  Uiso   1.00
C5     C     0.13395   0.19251   0.01984   0.00000  Uiso   1.00
C6     C     0.19938   0.14082   0.31349   0.00000  Uiso   1.00
C7     C     0.13398   0.19253   0.30519   0.00000  Uiso   1.00
C8     C     0.19936   0.14081   0.02814   0.00000  Uiso   1.00
C9     C     0.32426   0.20454   0.11392   0.00000  Uiso   1.00
C10    C     0.30802   0.24422   0.12647   0.00000  Uiso   1.00
C11    C     0.28573   0.27223   0.09286   0.00000  Uiso   1.00
C12    C     0.16666   0.24672   0.16671   0.00000  Uiso   1.00
C13    C     0.27962   0.26091   0.04659   0.00000  Uiso   1.00
C14    C     0.29607   0.22164   0.03383   0.00000  Uiso   1.00
C15    C     0.31844   0.19353   0.06732   0.00000  Uiso   1.00
C16    C     0.00907   0.12879   0.21941   0.00000  Uiso   1.00
C17    C     0.01489   0.13980   0.26601   0.00000  Uiso   1.00
C18    C     0.03726   0.11170   0.29951   0.00000  Uiso   1.00
C19    C     0.05371   0.07242   0.28675   0.00000  Uiso   1.00
C20    C     0.04761   0.06110   0.24048   0.00000  Uiso   1.00
C21    C     0.02532   0.08912   0.20686   0.00000  Uiso   1.00
C22    C     0.06719   0.16721   0.15486   0.00000  Uiso   1.00
C23    C     0.26614   0.16613   0.17847   0.00000  Uiso   1.00
C24    C     0.01289   0.17392   0.14989   0.00000  Uiso   1.00
C25    C     0.32044   0.15941   0.18344   0.00000  Uiso   1.00
C26    C     0.15975   0.02122   0.12481   0.00000  Uiso   1.00
C27    C     0.17358   0.31211   0.20852   0.00000  Uiso   1.00
C28    C     0.15969   0.31196   0.12486   0.00000  Uiso   1.00
H29    H     0.15414   0.03736   0.09222   0.00000  Uiso   1.00
H30    H     0.27299   0.30266   0.10270   0.00000  Uiso   1.00
H31    H     0.26210   0.28255   0.02063   0.00000  Uiso   1.00
H32    H     0.29107   0.21286   0.33134   0.00000  Uiso   1.00
H33    H     0.33029   0.16296   0.05709   0.00000  Uiso   1.00
H34    H     0.00303   0.17037   0.27625   0.00000  Uiso   1.00
H35    H     0.04226   0.12047   0.00199   0.00000  Uiso   1.00
H36    H     0.07123   0.05078   0.31271   0.00000  Uiso   1.00
H37    H     0.06034   0.03067   0.23063   0.00000  Uiso   1.00
H38    H     0.02114   0.08013   0.17109   0.00000  Uiso   1.00
H39    H     0.17919   0.29598   0.24112   0.00000  Uiso   1.00
H40    H     0.15410   0.29571   0.09227   0.00000  Uiso   1.00
H41    H     0.17923   0.03762   0.24106   0.00000  Uiso   1.00
H42    H     0.10773   0.21310   0.03472   0.00000  Uiso   1.00
H43    H     0.22560   0.12024   0.29861   0.00000  Uiso   1.00
H44    H     0.10777   0.21312   0.28365   0.00000  Uiso   1.00
H45    H     0.22556   0.12021   0.04968   0.00000  Uiso   1.00
H46    H     0.31220   0.25321   0.16224   0.00000  Uiso   1.00
N47    N     0.16665   0.16666   0.28573   0.00000  Uiso   1.00
N48    N     0.16668   0.16668   0.04760   0.00000  Uiso   1.00
O49    O     0.16666   0.10558   0.20487   0.00000  Uiso   1.00
O50    O     0.16667   0.22775   0.12846   0.00000  Uiso   1.00
O51    O     0.16666   0.10559   0.12843   0.00000  Uiso   1.00
O52    O     0.16667   0.22774   0.20490   0.00000  Uiso   1.00
O53    O     0.09058   0.16666   0.19595   0.00000  Uiso   1.00
O54    O     0.24275   0.16667   0.13739   0.00000  Uiso   1.00
O55    O     0.09058   0.16667   0.11950   0.00000  Uiso   1.00
O56    O     0.24275   0.16666   0.21383   0.00000  Uiso   1.00
Zn57   Zn    0.16667   0.16666   0.21771   0.00000  Uiso   1.00
Zn58   Zn    0.16667   0.16667   0.11563   0.00000  Uiso   1.00
C59    C     0.50001   0.08661   0.16662   0.00000  Uiso   1.00
C60    C     0.50698   0.02137   0.20848   0.00000  Uiso   1.00
C61    C     0.49997   0.29086   0.16671   0.00000  Uiso   1.00
C62    C     0.50003   0.04247   0.16662   0.00000  Uiso   1.00
C63    C     0.46728   0.19251   0.01984   0.00000  Uiso   1.00
C64    C     0.53272   0.14082   0.31349   0.00000  Uiso   1.00
C65    C     0.46731   0.19253   0.30519   0.00000  Uiso   1.00
C66    C     0.53269   0.14081   0.02814   0.00000  Uiso   1.00
C67    C     0.65760   0.20454   0.11392   0.00000  Uiso   1.00
C68    C     0.64135   0.24422   0.12647   0.00000  Uiso   1.00
C69    C     0.61906   0.27223   0.09286   0.00000  Uiso   1.00
C70    C     0.49999   0.24672   0.16671   0.00000  Uiso   1.00
C71    C     0.61295   0.26091   0.04659   0.00000  Uiso   1.00
C72    C     0.62940   0.22164   0.03383   0.00000  Uiso   1.00
C73    C     0.65177   0.19353   0.06732   0.00000  Uiso   1.00
C74    C     0.34240   0.12879   0.21941   0.00000  Uiso   1.00
C75    C     0.34822   0.13980   0.26601   0.00000  Uiso   1.00
C76    C     0.37059   0.11170   0.29951   0.00000  Uiso   1.00
C77    C     0.38704   0.07242   0.28675   0.00000  Uiso   1.00
C78    C     0.38094   0.06110   0.24048   0.00000  Uiso   1.00
C79    C     0.35865   0.08912   0.20686   0.00000  Uiso   1.00
C80    C     0.40052   0.16721   0.15486   0.00000  Uiso   1.00
C81    C     0.59948   0.16613   0.17847   0.00000  Uiso   1.00
C82    C     0.34622   0.17392   0.14989   0.00000  Uiso   1.00
C83    C     0.65378   0.15941   0.18344   0.00000  Uiso   1.00
C84    C     0.49309   0.02122   0.12481   0.00000  Uiso   1.00
C85    C     0.50692   0.31211   0.20852   0.00000  Uiso   1.00
C86    C     0.49303   0.31196   0.12486   0.00000  Uiso   1.00
H87    H     0.48748   0.03736   0.09222   0.00000  Uiso   1.00
H88    H     0.60633   0.30266   0.10270   0.00000  Uiso   1.00
H89    H     0.59543   0.28255   0.02063   0.00000  Uiso   1.00
H90    H     0.62440   0.21286   0.33134   0.00000  Uiso   1.00
H91    H     0.66363   0.16296   0.05709   0.00000  Uiso   1.00
H92    H     0.33637   0.17037   0.27625   0.00000  Uiso   1.00
H93    H     0.37559   0.12047   0.00199   0.00000  Uiso   1.00
H94    H     0.40456   0.05078   0.31271   0.00000  Uiso   1.00
H95    H     0.39368   0.03067   0.23063   0.00000  Uiso   1.00
H96    H     0.35447   0.08013   0.17109   0.00000  Uiso   1.00
H97    H     0.51252   0.29598   0.24112   0.00000  Uiso   1.00
H98    H     0.48744   0.29571   0.09227   0.00000  Uiso   1.00
H99    H     0.51257   0.03762   0.24106   0.00000  Uiso   1.00
H100   H     0.44106   0.21310   0.03472   0.00000  Uiso   1.00
H101   H     0.55894   0.12024   0.29861   0.00000  Uiso   1.00
H102   H     0.44111   0.21312   0.28365   0.00000  Uiso   1.00
H103   H     0.55889   0.12021   0.04968   0.00000  Uiso   1.00
H104   H     0.64554   0.25321   0.16224   0.00000  Uiso   1.00
N105   N     0.49999   0.16666   0.28573   0.00000  Uiso   1.00
N106   N     0.50001   0.16668   0.04760   0.00000  Uiso   1.00
O107   O     0.50000   0.10558   0.20487   0.00000  Uiso   1.00
O108   O     0.50000   0.22775   0.12846   0.00000  Uiso   1.00
O109   O     0.50000   0.10559   0.12843   0.00000  Uiso   1.00
O110   O     0.50000   0.22774   0.20490   0.00000  Uiso   1.00
O111   O     0.42392   0.16666   0.19595   0.00000  Uiso   1.00
O112   O     0.57608   0.16667   0.13739   0.00000  Uiso   1.00
O113   O     0.42392   0.16667   0.11950   0.00000  Uiso   1.00
O114   O     0.57608   0.16666   0.21383   0.00000  Uiso   1.00
Zn115  Zn    0.50000   0.16666   0.21771   0.00000  Uiso   1.00
Zn116  Zn    0.50000   0.16667   0.11563   0.00000  Uiso   1.00
C117   C     0.83334   0.08661   0.16662   0.00000  Uiso   1.00
C118   C     0.84031   0.02137   0.20848   0.00000  Uiso   1.00
C119   C     0.83330   0.29086   0.16671   0.00000  Uiso   1.00
C120   C     0.83337   0.04247   0.16662   0.00000  Uiso   1.00
C121   C     0.80062   0.19251   0.01984   0.00000  Uiso   1.00
C122   C     0.86605   0.14082   0.31349   0.00000  Uiso   1.00
C123   C     0.80065   0.19253   0.30519   0.00000  Uiso   1.00
C124   C     0.86602   0.14081   0.02814   0.00000  Uiso   1.00
C125   C     0.99093   0.20454   0.11392   0.00000  Uiso   1.00
C126   C     0.97469   0.24422   0.12647   0.00000  Uiso   1.00
C127   C     0.95240   0.27223   0.09286   0.00000  Uiso   1.00
C128   C     0.83333   0.24672   0.16671   0.00000  Uiso   1.00
C129   C     0.94629   0.26091   0.04659   0.00000  Uiso   1.00
C130   C     0.96273   0.22164   0.03383   0.00000  Uiso   1.00
C131   C     0.98511   0.19353   0.06732   0.00000  Uiso   1.00
C132   C     0.67574   0.12879   0.21941   0.00000  Uiso   1.00
C133   C     0.68156   0.13980   0.26601   0.00000  Uiso   1.00
C134   C     0.70393   0.11170   0.29951   0.00000  Uiso   1.00
C135   C     0.72038   0.07242   0.28675   0.00000  Uiso   1.00
C136   C     0.71427   0.06110   0.24048   0.00000  Uiso   1.00
C137   C     0.69198   0.08912   0.20686   0.00000  Uiso   1.00
C138   C     0.73386   0.16721   0.15486   0.00000  Uiso   1.00
C139   C     0.93281   0.16613   0.17847   0.00000  Uiso   1.00
C140   C     0.67956   0.17392   0.14989   0.00000  Uiso   1.00
C141   C     0.98711   0.15941   0.18344   0.00000  Uiso   1.00
C142   C     0.82642   0.02122   0.12481   0.00000  Uiso   1.00
C143   C     0.84025   0.31211   0.20852   0.00000  Uiso   1.00
C144   C     0.82636   0.31196   0.12486   0.00000  Uiso   1.00
H145   H     0.82081   0.03736   0.09222   0.00000  Uiso   1.00
H146   H     0.93966   0.30266   0.10270   0.00000  Uiso   1.00
H147   H     0.92877   0.28255   0.02063   0.00000  Uiso   1.00
H148   H     0.95773   0.21286   0.33134   0.00000  Uiso   1.00
H149   H     0.99696   0.16296   0.05709   0.00000  Uiso   1.00
H150   H     0.66970   0.17037   0.27625   0.00000  Uiso   1.00
H151   H     0.70892   0.12047   0.00199   0.00000  Uiso   1.00
H152   H     0.73790   0.05078   0.31271   0.00000  Uiso   1.00
H153   H     0.72701   0.03067   0.23063   0.00000  Uiso   1.00
H154   H     0.68780   0.08013   0.17109   0.00000  Uiso   1.00
H155   H     0.84586   0.29598   0.24112   0.00000  Uiso   1.00
H156   H     0.82077   0.29571   0.09227   0.00000  Uiso   1.00
H157   H     0.84590   0.03762   0.24106   0.00000  Uiso   1.00
H158   H     0.77440   0.21310   0.03472   0.00000  Uiso   1.00
H159   H     0.89227   0.12024   0.29861   0.00000  Uiso   1.00
H160   H     0.77444   0.21312   0.28365   0.00000  Uiso   1.00
H161   H     0.89223   0.12021   0.04968   0.00000  Uiso   1.00
H162   H     0.97887   0.25321   0.16224   0.00000  Uiso   1.00
N163   N     0.83332   0.16666   0.28573   0.00000  Uiso   1.00
N164   N     0.83335   0.16668   0.04760   0.00000  Uiso   1.00
O165   O     0.83333   0.10558   0.20487   0.00000  Uiso   1.00
O166   O     0.83334   0.22775   0.12846   0.00000  Uiso   1.00
O167   O     0.83333   0.10559   0.12843   0.00000  Uiso   1.00
O168   O     0.83334   0.22774   0.20490   0.00000  Uiso   1.00
O169   O     0.75725   0.16666   0.19595   0.00000  Uiso   1.00
O170   O     0.90942   0.16667   0.13739   0.00000  Uiso   1.00
O171   O     0.75725   0.16667   0.11950   0.00000  Uiso   1.00
O172   O     0.90942   0.16666   0.21383   0.00000  Uiso   1.00
Zn173  Zn    0.83333   0.16666   0.21771   0.00000  Uiso   1.00
Zn174  Zn    0.83333   0.16667   0.11563   0.00000  Uiso   1.00
C175   C     0.16667   0.41995   0.16662   0.00000  Uiso   1.00
C176   C     0.17364   0.35471   0.20848   0.00000  Uiso   1.00
C177   C     0.16663   0.62419   0.16671   0.00000  Uiso   1.00
C178   C     0.16670   0.37581   0.16662   0.00000  Uiso   1.00
C179   C     0.13395   0.52584   0.01984   0.00000  Uiso   1.00
C180   C     0.19938   0.47416   0.31349   0.00000  Uiso   1.00
C181   C     0.13398   0.52586   0.30519   0.00000  Uiso   1.00
C182   C     0.19936   0.47414   0.02814   0.00000  Uiso   1.00
C183   C     0.32426   0.53787   0.11392   0.00000  Uiso   1.00
C184   C     0.30802   0.57755   0.12647   0.00000  Uiso   1.00
C185   C     0.28573   0.60557   0.09286   0.00000  Uiso   1.00
C186   C     0.16666   0.58005   0.16671   0.00000  Uiso   1.00
C187   C     0.27962   0.59424   0.04659   0.00000  Uiso   1.00
C188   C     0.29607   0.55497   0.03383   0.00000  Uiso   1.00
C189   C     0.31844   0.52686   0.06732   0.00000  Uiso   1.00
C190   C     0.00907   0.46213   0.21941   0.00000  Uiso   1.00
C191   C     0.01489   0.47314   0.26601   0.00000  Uiso   1.00
C192   C     0.03726   0.44503   0.29951   0.00000  Uiso   1.00
C193   C     0.05371   0.40576   0.28675   0.00000  Uiso   1.00
C194   C     0.04761   0.39443   0.24048   0.00000  Uiso   1.00
C195   C     0.02532   0.42245   0.20686   0.00000  Uiso   1.00
C196   C     0.06719   0.50054   0.15486   0.00000  Uiso   1.00
C197   C     0.26614   0.49946   0.17847   0.00000  Uiso   1.00
C198   C     0.01289   0.50726   0.14989   0.00000  Uiso   1.00
C199   C     0.32044   0.49274   0.18344   0.00000  Uiso   1.00
C200   C     0.15975   0.35456   0.12481   0.00000  Uiso   1.00
C201   C     0.17358   0.64544   0.20852   0.00000  Uiso   1.00
C202   C     0.15969   0.64529   0.12486   0.00000  Uiso   1.00
H203   H     0.15414   0.37069   0.09222   0.00000  Uiso   1.00
H204   H     0.27299   0.63599   0.10270   0.00000  Uiso   1.00
H205   H     0.26210   0.61588   0.02063   0.00000  Uiso   1.00
H206   H     0.29107   0.54619   0.33134   0.00000  Uiso   1.00
H207   H     0.33029   0.49630   0.05709   0.00000  Uiso   1.00
H208   H     0.00303   0.50370   0.27625   0.00000  Uiso   1.00
H209   H     0.04226   0.45380   0.00199   0.00000  Uiso   1.00
H210   H     0.07123   0.38412   0.31271   0.00000  Uiso   1.00
H211   H     0.06034   0.36401   0.23063   0.00000  Uiso   1.00
H212   H     0.02114   0.41346   0.17109   0.00000  Uiso   1.00
H213   H     0.17919   0.62931   0.24112   0.00000  Uiso   1.00
H214   H     0.15410   0.62904   0.09227   0.00000  Uiso   1.00
H215   H     0.17923   0.37096   0.24106   0.00000  Uiso   1.00
H216   H     0.10773   0.54643   0.03472   0.00000  Uiso   1.00
H217   H     0.22560   0.45357   0.29861   0.00000  Uiso   1.00
H218   H     0.10777   0.54646   0.28365   0.00000  Uiso   1.00
H219   H     0.22556   0.45354   0.04968   0.00000  Uiso   1.00
H220   H     0.31220   0.58654   0.16224   0.00000  Uiso   1.00
N221   N     0.16665   0.49999   0.28573   0.00000  Uiso   1.00
N222   N     0.16668   0.50001   0.04760   0.00000  Uiso   1.00
O223   O     0.16666   0.43892   0.20487   0.00000  Uiso   1.00
O224   O     0.16667   0.56108   0.12846   0.00000  Uiso   1.00
O225   O     0.16666   0.43893   0.12843   0.00000  Uiso   1.00
O226   O     0.16667   0.56107   0.20490   0.00000  Uiso   1.00
O227   O     0.09058   0.50000   0.19595   0.00000  Uiso   1.00
O228   O     0.24275   0.50000   0.13739   0.00000  Uiso   1.00
O229   O     0.09058   0.50000   0.11950   0.00000  Uiso   1.00
O230   O     0.24275   0.50000   0.21383   0.00000  Uiso   1.00
Zn231  Zn    0.16667   0.49999   0.21771   0.00000  Uiso   1.00
Zn232  Zn    0.16667   0.50001   0.11563   0.00000  Uiso   1.00
C233   C     0.50001   0.41995   0.16662   0.00000  Uiso   1.00
C234   C     0.50698   0.35471   0.20848   0.00000  Uiso   1.00
C235   C     0.49997   0.62419   0.16671   0.00000  Uiso   1.00
C236   C     0.50003   0.37581   0.16662   0.00000  Uiso   1.00
C237   C     0.46728   0.52584   0.01984   0.00000  Uiso   1.00
C238   C     0.53272   0.47416   0.31349   0.00000  Uiso   1.00
C239   C     0.46731   0.52586   0.30519   0.00000  Uiso   1.00
C240   C     0.53269   0.47414   0.02814   0.00000  Uiso   1.00
C241   C     0.65760   0.53787   0.11392   0.00000  Uiso   1.00
C242   C     0.64135   0.57755   0.12647   0.00000  Uiso   1.00
C243   C     0.61906   0.60557   0.09286   0.00000  Uiso   1.00
C244   C     0.49999   0.58005   0.16671   0.00000  Uiso   1.00
C245   C     0.61295   0.59424   0.04659   0.00000  Uiso   1.00
C246   C     0.62940   0.55497   0.03383   0.00000  Uiso   1.00
C247   C     0.65177   0.52686   0.06732   0.00000  Uiso   1.00
C248   C     0.34240   0.46213   0.21941   0.00000  Uiso   1.00
C249   C     0.34822   0.47314   0.26601   0.00000  Uiso   1.00
C250   C     0.37059   0.44503   0.29951   0.00000  Uiso   1.00
C251   C     0.38704   0.40576   0.28675   0.00000  Uiso   1.00
C252   C     0.38094   0.39443   0.24048   0.00000  Uiso   1.00
C253   C     0.35865   0.42245   0.20686   0.00000  Uiso   1.00
C254   C     0.40052   0.50054   0.15486   0.00000  Uiso   1.00
C255   C     0.59948   0.49946   0.17847   0.00000  Uiso   1.00
C256   C     0.34622   0.50726   0.14989   0.00000  Uiso   1.00
C257   C     0.65378   0.49274   0.18344   0.00000  Uiso   1.00
C258   C     0.49309   0.35456   0.12481   0.00000  Uiso   1.00
C259   C     0.50692   0.64544   0.20852   0.00000  Uiso   1.00
C260   C     0.49303   0.64529   0.12486   0.00000  Uiso   1.00
H261   H     0.48748   0.37069   0.09222   0.00000  Uiso   1.00
H262   H     0.60633   0.63599   0.10270   0.00000  Uiso   1.00
H263   H     0.59543   0.61588   0.02063   0.00000  Uiso   1.00
H264   H     0.62440   0.54619   0.33134   0.00000  Uiso   1.00
H265   H     0.66363   0.49630   0.05709   0.00000  Uiso   1.00
H266   H     0.33637   0.50370   0.27625   0.00000  Uiso   1.00
H267   H     0.37559   0.45380   0.00199   0.00000  Uiso   1.00
H268   H     0.40456   0.38412   0.31271   0.00000  Uiso   1.00
H269   H     0.39368   0.36401   0.23063   0.00000  Uiso   1.00
H270   H     0.35447   0.41346   0.17109   0.00000  Uiso   1.00
H271   H     0.51252   0.62931   0.24112   0.00000  Uiso   1.00
H272   H     0.48744   0.62904   0.09227   0.00000  Uiso   1.00
H273   H     0.51257   0.37096   0.24106   0.00000  Uiso   1.00
H274   H     0.44106   0.54643   0.03472   0.00000  Uiso   1.00
H275   H     0.55894   0.45357   0.29861   0.00000  Uiso   1.00
H276   H     0.44111   0.54646   0.28365   0.00000  Uiso   1.00
H277   H     0.55889   0.45354   0.04968   0.00000  Uiso   1.00
H278   H     0.64554   0.58654   0.16224   0.00000  Uiso   1.00
N279   N     0.49999   0.49999   0.28573   0.00000  Uiso   1.00
N280   N     0.50001   0.50001   0.04760   0.00000  Uiso   1.00
O281   O     0.50000   0.43892   0.20487   0.00000  Uiso   1.00
O282   O     0.50000   0.56108   0.12846   0.00000  Uiso   1.00
O283   O     0.50000   0.43893   0.12843   0.00000  Uiso   1.00
O284   O     0.50000   0.56107   0.20490   0.00000  Uiso   1.00
O285   O     0.42392   0.50000   0.19595   0.00000  Uiso   1.00
O286   O     0.57608   0.50000   0.13739   0.00000  Uiso   1.00
O287   O     0.42392   0.50000   0.11950   0.00000  Uiso   1.00
O288   O     0.57608   0.50000   0.21383   0.00000  Uiso   1.00
Zn289  Zn    0.50000   0.49999   0.21771   0.00000  Uiso   1.00
Zn290  Zn    0.50000   0.50001   0.11563   0.00000  Uiso   1.00
C291   C     0.83334   0.41995   0.16662   0.00000  Uiso   1.00
C292   C     0.84031   0.35471   0.20848   0.00000  Uiso   1.00
C293   C     0.83330   0.62419   0.16671   0.00000  Uiso   1.00
C294   C     0.83337   0.37581   0.16662   0.00000  Uiso   1.00
C295   C     0.80062   0.52584   0.01984   0.00000  Uiso   1.00
C296   C     0.86605   0.47416   0.31349   0.00000  Uiso   1.00
C297   C     0.80065   0.52586   0.30519   0.00000  Uiso   1.00
C298   C     0.86602   0.47414   0.02814   0.00000  Uiso   1.00
C299   C     0.99093   0.53787   0.11392   0.00000  Uiso   1.00
C300   C     0.97469   0.57755   0.12647   0.00000  Uiso   1.00
C301   C     0.95240   0.60557   0.09286   0.00000  Uiso   1.00
C302   C     0.83333   0.58005   0.16671   0.00000  Uiso   1.00
C303   C     0.94629   0.59424   0.04659   0.00000  Uiso   1.00
C304   C     0.96273   0.55497   0.03383   0.00000  Uiso   1.00
C305   C     0.98511   0.52686   0.06732   0.00000  Uiso   1.00
C306   C     0.67574   0.46213   0.21941   0.00000  Uiso   1.00
C307   C     0.68156   0.47314   0.26601   0.00000  Uiso   1.00
C308   C     0.70393   0.44503   0.29951   0.00000  Uiso   1.00
C309   C     0.72038   0.40576   0.28675   0.00000  Uiso   1.00
C310   C     0.71427   0.39443   0.24048   0.00000  Uiso   1.00
C311   C     0.69198   0.42245   0.20686   0.00000  Uiso   1.00
C312   C     0.73386   0.50054   0.15486   0.00000  Uiso   1.00
C313   C     0.93281   0.49946   0.17847   0.00000  Uiso   1.00
C314   C     0.67956   0.50726   0.14989   0.00000  Uiso   1.00
C315   C     0.98711   0.49274   0.18344   0.00000  Uiso   1.00
C316   C     0.82642   0.35456   0.12481   0.00000  Uiso   1.00
C317   C     0.84025   0.64544   0.20852   0.00000  Uiso   1.00
C318   C     0.82636   0.64529   0.12486   0.00000  Uiso   1.00
H319   H     0.82081   0.37069   0.09222   0.00000  Uiso   1.00
H320   H     0.93966   0.63599   0.10270   0.00000  Uiso   1.00
H321   H     0.92877   0.61588   0.02063   0.00000  Uiso   1.00
H322   H     0.95773   0.54619   0.33134   0.00000  Uiso   1.00
H323   H     0.99696   0.49630   0.05709   0.00000  Uiso   1.00
H324   H     0.66970   0.50370   0.27625   0.00000  Uiso   1.00
H325   H     0.70892   0.45380   0.00199   0.00000  Uiso   1.00
H326   H     0.73790   0.38412   0.31271   0.00000  Uiso   1.00
H327   H     0.72701   0.36401   0.23063   0.00000  Uiso   1.00
H328   H     0.68780   0.41346   0.17109   0.00000  Uiso   1.00
H329   H     0.84586   0.62931   0.24112   0.00000  Uiso   1.00
H330   H     0.82077   0.62904   0.09227   0.00000  Uiso   1.00
H331   H     0.84590   0.37096   0.24106   0.00000  Uiso   1.00
H332   H     0.77440   0.54643   0.03472   0.00000  Uiso   1.00
H333   H     0.89227   0.45357   0.29861   0.00000  Uiso   1.00
H334   H     0.77444   0.54646   0.28365   0.00000  Uiso   1.00
H335   H     0.89223   0.45354   0.04968   0.00000  Uiso   1.00
H336   H     0.97887   0.58654   0.16224   0.00000  Uiso   1.00
N337   N     0.83332   0.49999   0.28573   0.00000  Uiso   1.00
N338   N     0.83335   0.50001   0.04760   0.00000  Uiso   1.00
O339   O     0.83333   0.43892   0.20487   0.00000  Uiso   1.00
O340   O     0.83334   0.56108   0.12846   0.00000  Uiso   1.00
O341   O     0.83333   0.43893   0.12843   0.00000  Uiso   1.00
O342   O     0.83334   0.56107   0.20490   0.00000  Uiso   1.00
O343   O     0.75725   0.50000   0.19595   0.00000  Uiso   1.00
O344   O     0.90942   0.50000   0.13739   0.00000  Uiso   1.00
O345   O     0.75725   0.50000   0.11950   0.00000  Uiso   1.00
O346   O     0.90942   0.50000   0.21383   0.00000  Uiso   1.00
Zn347  Zn    0.83333   0.49999   0.21771   0.00000  Uiso   1.00
Zn348  Zn    0.83333   0.50001   0.11563   0.00000  Uiso   1.00
C349   C     0.16667   0.75328   0.16662   0.00000  Uiso   1.00
C350   C     0.17364   0.68804   0.20848   0.00000  Uiso   1.00
C351   C     0.16663   0.95753   0.16671   0.00000  Uiso   1.00
C352   C     0.16670   0.70914   0.16662   0.00000  Uiso   1.00
C353   C     0.13395   0.85918   0.01984   0.00000  Uiso   1.00
C354   C     0.19938   0.80749   0.31349   0.00000  Uiso   1.00
C355   C     0.13398   0.85919   0.30519   0.00000  Uiso   1.00
C356   C     0.19936   0.80747   0.02814   0.00000  Uiso   1.00
C357   C     0.32426   0.87121   0.11392   0.00000  Uiso   1.00
C358   C     0.30802   0.91088   0.12647   0.00000  Uiso   1.00
C359   C     0.28573   0.93890   0.09286   0.00000  Uiso   1.00
C360   C     0.16666   0.91339   0.16671   0.00000  Uiso   1.00
C361   C     0.27962   0.92758   0.04659   0.00000  Uiso   1.00
C362   C     0.29607   0.88830   0.03383   0.00000  Uiso   1.00
C363   C     0.31844   0.86019   0.06732   0.00000  Uiso   1.00
C364   C     0.00907   0.79546   0.21941   0.00000  Uiso   1.00
C365   C     0.01489   0.80647   0.26601   0.00000  Uiso   1.00
C366   C     0.03726   0.77836   0.29951   0.00000  Uiso   1.00
C367   C     0.05371   0.73909   0.28675   0.00000  Uiso   1.00
C368   C     0.04761   0.72777   0.24048   0.00000  Uiso   1.00
C369   C     0.02532   0.75578   0.20686   0.00000  Uiso   1.00
C370   C     0.06719   0.83387   0.15486   0.00000  Uiso   1.00
C371   C     0.26614   0.83279   0.17847   0.00000  Uiso   1.00
C372   C     0.01289   0.84059   0.14989   0.00000  Uiso   1.00
C373   C     0.32044   0.82608   0.18344   0.00000  Uiso   1.00
C374   C     0.15975   0.68789   0.12481   0.00000  Uiso   1.00
C375   C     0.17358   0.97878   0.20852   0.00000  Uiso   1.00
C376   C     0.15969   0.97863   0.12486   0.00000  Uiso   1.00
H377   H     0.15414   0.70402   0.09222   0.00000  Uiso   1.00
H378   H     0.27299   0.96933   0.10270   0.00000  Uiso   1.00
H379   H     0.26210   0.94922   0.02063   0.00000  Uiso   1.00
H380   H     0.29107   0.87953   0.33134   0.00000  Uiso   1.00
H381   H     0.33029   0.82963   0.05709   0.00000  Uiso   1.00
H382   H     0.00303   0.83703   0.27625   0.00000  Uiso   1.00
H383   H     0.04226   0.78714   0.00199   0.00000  Uiso   1.00
H384   H     0.07123   0.71745   0.31271   0.00000  Uiso   1.00
H385   H     0.06034   0.69734   0.23063   0.00000  Uiso   1.00
H386   H     0.02114   0.74679   0.17109   0.00000  Uiso   1.00
H387   H     0.17919   0.96264   0.24112   0.00000  Uiso   1.00
H388   H     0.15410   0.96238   0.09227   0.00000  Uiso   1.00
H389   H     0.17923   0.70429   0.24106   0.00000  Uiso   1.00
H390   H     0.10773   0.87976   0.03472   0.00000  Uiso   1.00
H391   H     0.22560   0.78691   0.29861   0.00000  Uiso   1.00
H392   H     0.10777   0.87979   0.28365   0.00000  Uiso   1.00
H393   H     0.22556   0.78688   0.04968   0.00000  Uiso   1.00
H394   H     0.31220   0.91987   0.16224   0.00000  Uiso   1.00
N395   N     0.16665   0.83332   0.28573   0.00000  Uiso   1.00
N396   N     0.16668   0.83334   0.04760   0.00000  Uiso   1.00
O397   O     0.16666   0.77225   0.20487   0.00000  Uiso   1.00
O398   O     0.16667   0.89442   0.12846   0.00000  Uiso   1.00
O399   O     0.16666   0.77226   0.12843   0.00000  Uiso   1.00
O400   O     0.16667   0.89441   0.20490   0.00000  Uiso   1.00
O401   O     0.09058   0.83333   0.19595   0.00000  Uiso   1.00
O402   O     0.24275   0.83334   0.13739   0.00000  Uiso   1.00
O403   O     0.09058   0.83334   0.11950   0.00000  Uiso   1.00
O404   O     0.24275   0.83333   0.21383   0.00000  Uiso   1.00
Zn405  Zn    0.16667   0.83333   0.21771   0.00000  Uiso   1.00
Zn406  Zn    0.16667   0.83334   0.11563   0.00000  Uiso   1.00
C407   C     0.50001   0.75328   0.16662   0.00000  Uiso   1.00
C408   C     0.50698   0.68804   0.20848   0.00000  Uiso   1.00
C409   C     0.49997   0.95753   0.16671   0.00000  Uiso   1.00
C410   C     0.50003   0.70914   0.16662   0.00000  Uiso   1.00
C411   C     0.46728   0.85918   0.01984   0.00000  Uiso   1.00
C412   C     0.53272   0.80749   0.31349   0.00000  Uiso   1.00
C413   C     0.46731   0.85919   0.30519   0.00000  Uiso   1.00
C414   C     0.53269   0.80747   0.02814   0.00000  Uiso   1.00
C415   C     0.65760   0.87121   0.11392   0.00000  Uiso   1.00
C416   C     0.64135   0.91088   0.12647   0.00000  Uiso   1.00
C417   C     0.61906   0.93890   0.09286   0.00000  Uiso   1.00
C418   C     0.49999   0.91339   0.16671   0.00000  Uiso   1.00
C419   C     0.61295   0.92758   0.04659   0.00000  Uiso   1.00
C420   C     0.62940   0.88830   0.03383   0.00000  Uiso   1.00
C421   C     0.65177   0.86019   0.06732   0.00000  Uiso   1.00
C422   C     0.34240   0.79546   0.21941   0.00000  Uiso   1.00
C423   C     0.34822   0.80647   0.26601   0.00000  Uiso   1.00
C424   C     0.37059   0.77836   0.29951   0.00000  Uiso   1.00
C425   C     0.38704   0.73909   0.28675   0.00000  Uiso   1.00
C426   C     0.38094   0.72777   0.24048   0.00000  Uiso   1.00
C427   C     0.35865   0.75578   0.20686   0.00000  Uiso   1.00
C428   C     0.40052   0.83387   0.15486   0.00000  Uiso   1.00
C429   C     0.59948   0.83279   0.17847   0.00000  Uiso   1.00
C430   C     0.34622   0.84059   0.14989   0.00000  Uiso   1.00
C431   C     0.65378   0.82608   0.18344   0.00000  Uiso   1.00
C432   C     0.49309   0.68789   0.12481   0.00000  Uiso   1.00
C433   C     0.50692   0.97878   0.20852   0.00000  Uiso   1.00
C434   C     0.49303   0.97863   0.12486   0.00000  Uiso   1.00
H435   H     0.48748   0.70402   0.09222   0.00000  Uiso   1.00
H436   H     0.60633   0.96933   0.10270   0.00000  Uiso   1.00
H437   H     0.59543   0.94922   0.02063   0.00000  Uiso   1.00
H438   H     0.62440   0.87953   0.33134   0.00000  Uiso   1.00
H439   H     0.66363   0.82963   0.05709   0.00000  Uiso   1.00
H440   H     0.33637   0.83703   0.27625   0.00000  Uiso   1.00
H441   H     0.37559   0.78714   0.00199   0.00000  Uiso   1.00
H442   H     0.40456   0.71745   0.31271   0.00000  Uiso   1.00
H443   H     0.39368   0.69734   0.23063   0.00000  Uiso   1.00
H444   H     0.35447   0.74679   0.17109   0.00000  Uiso   1.00
H445   H     0.51252   0.96264   0.24112   0.00000  Uiso   1.00
H446   H     0.48744   0.96238   0.09227   0.00000  Uiso   1.00
H447   H     0.51257   0.70429   0.24106   0.00000  Uiso   1.00
H448   H     0.44106   0.87976   0.03472   0.00000  Uiso   1.00
H449   H     0.55894   0.78691   0.29861   0.00000  Uiso   1.00
H450   H     0.44111   0.87979   0.28365   0.00000  Uiso   1.00
H451   H     0.55889   0.78688   0.04968   0.00000  Uiso   1.00
H452   H     0.64554   0.91987   0.16224   0.00000  Uiso   1.00
N453   N     0.49999   0.83332   0.28573   0.00000  Uiso   1.00
N454   N     0.50001   0.83334   0.04760   0.00000  Uiso   1.00
O455   O     0.50000   0.77225   0.20487   0.00000  Uiso   1.00
O456   O     0.50000   0.89442   0.12846   0.00000  Uiso   1.00
O457   O     0.50000   0.77226   0.12843   0.00000  Uiso   1.00
O458   O     0.50000   0.89441   0.20490   0.00000  Uiso   1.00
O459   O     0.42392   0.83333   0.19595   0.00000  Uiso   1.00
O460   O     0.57608   0.83334   0.13739   0.00000  Uiso   1.00
O461   O     0.42392   0.83334   0.11950   0.00000  Uiso   1.00
O462   O     0.57608   0.83333   0.21383   0.00000  Uiso   1.00
Zn463  Zn    0.50000   0.83333   0.21771   0.00000  Uiso   1.00
Zn464  Zn    0.50000   0.83334   0.11563   0.00000  Uiso   1.00
C465   C     0.83334   0.75328   0.16662   0.00000  Uiso   1.00
C466   C     0.84031   0.68804   0.20848   0.00000  Uiso   1.00
C467   C     0.83330   0.95753   0.16671   0.00000  Uiso   1.00
C468   C     0.83337   0.70914   0.16662   0.00000  Uiso   1.00
C469   C     0.80062   0.85918   0.01984   0.00000  Uiso   1.00
C470   C     0.86605   0.80749   0.31349   0.00000  Uiso   1.00
C471   C     0.80065   0.85919   0.30519   0.00000  Uiso   1.00
C472   C     0.86602   0.80747   0.02814   0.00000  Uiso   1.00
C473   C     0.99093   0.87121   0.11392   0.00000  Uiso   1.00
C474   C     0.97469   0.91088   0.12647   0.00000  Uiso   1.00
C475   C     0.95240   0.93890   0.09286   0.00000  Uiso   1.00
C476   C     0.83333   0.91339   0.16671   0.00000  Uiso   1.00
C477   C     0.94629   0.92758   0.04659   0.00000  Uiso   1.00
C478   C     0.96273   0.88830   0.03383   0.00000  Uiso   1.00
C479   C     0.98511   0.86019   0.06732   0.00000  Uiso   1.00
C480   C     0.67574   0.79546   0.21941   0.00000  Uiso   1.00
C481   C     0.68156   0.80647   0.26601   0.00000  Uiso   1.00
C482   C     0.70393   0.77836   0.29951   0.00000  Uiso   1.00
C483   C     0.72038   0.73909   0.28675   0.00000  Uiso   1.00
C484   C     0.71427   0.72777   0.24048   0.00000  Uiso   1.00
C485   C     0.69198   0.75578   0.20686   0.00000  Uiso   1.00
C486   C     0.73386   0.83387   0.15486   0.00000  Uiso   1.00
C487   C     0.93281   0.83279   0.17847   0.00000  Uiso   1.00
C488   C     0.67956   0.84059   0.14989   0.00000  Uiso   1.00
C489   C     0.98711   0.82608   0.18344   0.00000  Uiso   1.00
C490   C     0.82642   0.68789   0.12481   0.00000  Uiso   1.00
C491   C     0.84025   0.97878   0.20852   0.00000  Uiso   1.00
C492   C     0.82636   0.97863   0.12486   0.00000  Uiso   1.00
H493   H     0.82081   0.70402   0.09222   0.00000  Uiso   1.00
H494   H     0.93966   0.96933   0.10270   0.00000  Uiso   1.00
H495   H     0.92877   0.94922   0.02063   0.00000  Uiso   1.00
H496   H     0.95773   0.87953   0.33134   0.00000  Uiso   1.00
H497   H     0.99696   0.82963   0.05709   0.00000  Uiso   1.00
H498   H     0.66970   0.83703   0.27625   0.00000  Uiso   1.00
H499   H     0.70892   0.78714   0.00199   0.00000  Uiso   1.00
H500   H     0.73790   0.71745   0.31271   0.00000  Uiso   1.00
H501   H     0.72701   0.69734   0.23063   0.00000  Uiso   1.00
H502   H     0.68780   0.74679   0.17109   0.00000  Uiso   1.00
H503   H     0.84586   0.96264   0.24112   0.00000  Uiso   1.00
H504   H     0.82077   0.96238   0.09227   0.00000  Uiso   1.00
H505   H     0.84590   0.70429   0.24106   0.00000  Uiso   1.00
H506   H     0.77440   0.87976   0.03472   0.00000  Uiso   1.00
H507   H     0.89227   0.78691   0.29861   0.00000  Uiso   1.00
H508   H     0.77444   0.87979   0.28365   0.00000  Uiso   1.00
H509   H     0.89223   0.78688   0.04968   0.00000  Uiso   1.00
H510   H     0.97887   0.91987   0.16224   0.00000  Uiso   1.00
N511   N     0.83332   0.83332   0.28573   0.00000  Uiso   1.00
N512   N     0.83335   0.83334   0.04760   0.00000  Uiso   1.00
O513   O     0.83333   0.77225   0.20487   0.00000  Uiso   1.00
O514   O     0.83334   0.89442   0.12846   0.00000  Uiso   1.00
O515   O     0.83333   0.77226   0.12843   0.00000  Uiso   1.00
O516   O     0.83334   0.89441   0.20490   0.00000  Uiso   1.00
O517   O     0.75725   0.83333   0.19595   0.00000  Uiso   1.00
O518   O     0.90942   0.83334   0.13739   0.00000  Uiso   1.00
O519   O     0.75725   0.83334   0.11950   0.00000  Uiso   1.00
O520   O     0.90942   0.83333   0.21383   0.00000  Uiso   1.00
Zn521  Zn    0.83333   0.83333   0.21771   0.00000  Uiso   1.00
Zn522  Zn    0.83333   0.83334   0.11563   0.00000  Uiso   1.00
C523   C     0.16667   0.08661   0.49995   0.00000  Uiso   1.00
C524   C     0.17364   0.02137   0.54181   0.00000  Uiso   1.00
C525   C     0.16663   0.29086   0.50005   0.00000  Uiso   1.00
C526   C     0.16670   0.04247   0.49996   0.00000  Uiso   1.00
C527   C     0.13395   0.19251   0.35317   0.00000  Uiso   1.00
C528   C     0.19938   0.14082   0.64683   0.00000  Uiso   1.00
C529   C     0.13398   0.19253   0.63852   0.00000  Uiso   1.00
C530   C     0.19936   0.14081   0.36148   0.00000  Uiso   1.00
C531   C     0.32426   0.20454   0.44726   0.00000  Uiso   1.00
C532   C     0.30802   0.24422   0.45981   0.00000  Uiso   1.00
C533   C     0.28573   0.27223   0.42619   0.00000  Uiso   1.00
C534   C     0.16666   0.24672   0.50005   0.00000  Uiso   1.00
C535   C     0.27962   0.26091   0.37992   0.00000  Uiso   1.00
C536   C     0.29607   0.22164   0.36716   0.00000  Uiso   1.00
C537   C     0.31844   0.19353   0.40066   0.00000  Uiso   1.00
C538   C     0.00907   0.12879   0.55274   0.00000  Uiso   1.00
C539   C     0.01489   0.13980   0.59935   0.00000  Uiso   1.00
C540   C     0.03726   0.11170   0.63284   0.00000  Uiso   1.00
C541   C     0.05371   0.07242   0.62008   0.00000  Uiso   1.00
C542   C     0.04761   0.06110   0.57381   0.00000  Uiso   1.00
C543   C     0.02532   0.08912   0.54019   0.00000  Uiso   1.00
C544   C     0.06719   0.16721   0.48820   0.00000  Uiso   1.00
C545   C     0.26614   0.16613   0.51180   0.00000  Uiso   1.00
C546   C     0.01289   0.17392   0.48323   0.00000  Uiso   1.00
C547   C     0.32044   0.15941   0.51677   0.00000  Uiso   1.00
C548   C     0.15975   0.02122   0.45815   0.00000  Uiso   1.00
C549   C     0.17358   0.31211   0.54185   0.00000  Uiso   1.00
C550   C     0.15969   0.31196   0.45819   0.00000  Uiso   1.00
H551   H     0.15414   0.03736   0.42555   0.00000  Uiso   1.00
H552   H     0.27299   0.30266   0.43603   0.00000  Uiso   1.00
H553   H     0.26210   0.28255   0.35396   0.00000  Uiso   1.00
H554   H     0.29107   0.21286   0.66468   0.00000  Uiso   1.00
H555   H     0.33029   0.16296   0.39042   0.00000  Uiso   1.00
H556   H     0.00303   0.17037   0.60958   0.00000  Uiso   1.00
H557   H     0.04226   0.12047   0.33533   0.00000  Uiso   1.00
H558   H     0.07123   0.05078   0.64604   0.00000  Uiso   1.00
H559   H     0.06034   0.03067   0.56397   0.00000  Uiso   1.00
H560   H     0.02114   0.08013   0.50442   0.00000  Uiso   1.00
H561   H     0.17919   0.29598   0.57445   0.00000  Uiso   1.00
H562   H     0.15410   0.29571   0.42561   0.00000  Uiso   1.00
H563   H     0.17923   0.03762   0.57439   0.00000  Uiso   1.00
H564   H     0.10773   0.21310   0.36806   0.00000  Uiso   1.00
H565   H     0.22560   0.12024   0.63194   0.00000  Uiso   1.00
H566   H     0.10777   0.21312   0.61698   0.00000  Uiso   1.00
H567   H     0.22556   0.12021   0.38302   0.00000  Uiso   1.00
H568   H     0.31220   0.25321   0.49558   0.00000  Uiso   1.00
N569   N     0.16665   0.16666   0.61907   0.00000  Uiso   1.00
N570   N     0.16668   0.16668   0.38093   0.00000  Uiso   1.00
O571   O     0.16666   0.10558   0.53821   0.00000  Uiso   1.00
O572   O     0.16667   0.22775   0.46179   0.00000  Uiso   1.00
O573   O     0.16666   0.10559   0.46176   0.00000  Uiso   1.00
O574   O     0.16667   0.22774   0.53824   0.00000  Uiso   1.00
O575   O     0.09058   0.16666   0.52928   0.00000  Uiso   1.00
O576   O     0.24275   0.16667   0.47072   0.00000  Uiso   1.00
O577   O     0.09058   0.16667   0.45284   0.00000  Uiso   1.00
O578   O     0.24275   0.16666   0.54716   0.00000  Uiso   1.00
Zn579  Zn    0.16667   0.16666   0.55104   0.00000  Uiso   1.00
Zn580  Zn    0.16667   0.16667   0.44896   0.00000  Uiso   1.00
C581   C     0.50001   0.08661   0.49995   0.00000  Uiso   1.00
C582   C     0.50698   0.02137   0.54181   0.00000  Uiso   1.00
C583   C     0.49997   0.29086   0.50005   0.00000  Uiso   1.00
C584   C     0.50003   0.04247   0.49996   0.00000  Uiso   1.00
C585   C     0.46728   0.19251   0.35317   0.00000  Uiso   1.00
C586   C     0.53272   0.14082   0.64683   0.00000  Uiso   1.00
C587   C     0.46731   0.19253   0.63852   0.00000  Uiso   1.00
C588   C     0.53269   0.14081   0.36148   0.00000  Uiso   1.00
C589   C     0.65760   0.20454   0.44726   0.00000  Uiso   1.00
C590   C     0.64135   0.24422   0.45981   0.00000  Uiso   1.00
C591   C     0.61906   0.27223   0.42619   0.00000  Uiso   1.00
C592   C     0.49999   0.24672   0.50005   0.00000  Uiso   1.00
C593   C     0.61295   0.26091   0.37992   0.00000  Uiso   1.00
C594   C     0.62940   0.22164   0.36716   0.00000  Uiso   1.00
C595   C     0.65177   0.19353   0.40066   0.00000  Uiso   1.00
C596   C     0.34240   0.12879   0.55274   0.00000  Uiso   1.00
C597   C     0.34822   0.13980   0.59935   0.00000  Uiso   1.00
C598   C     0.37059   0.11170   0.63284   0.00000  Uiso   1.00
C599   C     0.38704   0.07242   0.62008   0.00000  Uiso   1.00
C600   C     0.38094   0.06110   0.57381   0.00000  Uiso   1.00
C601   C     0.35865   0.08912   0.54019   0.00000  Uiso   1.00
C602   C     0.40052   0.16721   0.48820   0.00000  Uiso   1.00
C603   C     0.59948   0.16613   0.51180   0.00000  Uiso   1.00
C604   C     0.34622   0.17392   0.48323   0.00000  Uiso   1.00
C605   C     0.65378   0.15941   0.51677   0.00000  Uiso   1.00
C606   C     0.49309   0.02122   0.45815   0.00000  Uiso   1.00
C607   C     0.50692   0.31211   0.54185   0.00000  Uiso   1.00
C608   C     0.49303   0.31196   0.45819   0.00000  Uiso   1.00
H609   H     0.48748   0.03736   0.42555   0.00000  Uiso   1.00
H610   H     0.60633   0.30266   0.43603   0.00000  Uiso   1.00
H611   H     0.59543   0.28255   0.35396   0.00000  Uiso   1.00
H612   H     0.62440   0.21286   0.66468   0.00000  Uiso   1.00
H613   H     0.66363   0.16296   0.39042   0.00000  Uiso   1.00
H614   H     0.33637   0.17037   0.60958   0.00000  Uiso   1.00
H615   H     0.37559   0.12047   0.33533   0.00000  Uiso   1.00
H616   H     0.40456   0.05078   0.64604   0.00000  Uiso   1.00
H617   H     0.39368   0.03067   0.56397   0.00000  Uiso   1.00
H618   H     0.35447   0.08013   0.50442   0.00000  Uiso   1.00
H619   H     0.51252   0.29598   0.57445   0.00000  Uiso   1.00
H620   H     0.48744   0.29571   0.42561   0.00000  Uiso   1.00
H621   H     0.51257   0.03762   0.57439   0.00000  Uiso   1.00
H622   H     0.44106   0.21310   0.36806   0.00000  Uiso   1.00
H623   H     0.55894   0.12024   0.63194   0.00000  Uiso   1.00
H624   H     0.44111   0.21312   0.61698   0.00000  Uiso   1.00
H625   H     0.55889   0.12021   0.38302   0.00000  Uiso   1.00
H626   H     0.64554   0.25321   0.49558   0.00000  Uiso   1.00
N627   N     0.49999   0.16666   0.61907   0.00000  Uiso   1.00
N628   N     0.50001   0.16668   0.38093   0.00000  Uiso   1.00
O629   O     0.50000   0.10558   0.53821   0.00000  Uiso   1.00
O630   O     0.50000   0.22775   0.46179   0.00000  Uiso   1.00
O631   O     0.50000   0.10559   0.46176   0.00000  Uiso   1.00
O632   O     0.50000   0.22774   0.53824   0.00000  Uiso   1.00
O633   O     0.42392   0.16666   0.52928   0.00000  Uiso   1.00
O634   O     0.57608   0.16667   0.47072   0.00000  Uiso   1.00
O635   O     0.42392   0.16667   0.45284   0.00000  Uiso   1.00
O636   O     0.57608   0.16666   0.54716   0.00000  Uiso   1.00
Zn637  Zn    0.50000   0.16666   0.55104   0.00000  Uiso   1.00
Zn638  Zn    0.50000   0.16667   0.44896   0.00000  Uiso   1.00
C639   C     0.83334   0.08661   0.49995   0.00000  Uiso   1.00
C640   C     0.84031   0.02137   0.54181   0.00000  Uiso   1.00
C641   C     0.83330   0.29086   0.50005   0.00000  Uiso   1.00
C642   C     0.83337   0.04247   0.49996   0.00000  Uiso   1.00
C643   C     0.80062   0.19251   0.35317   0.00000  Uiso   1.00
C644   C     0.86605   0.14082   0.64683   0.00000  Uiso   1.00
C645   C     0.80065   0.19253   0.63852   0.00000  Uiso   1.00
C646   C     0.86602   0.14081   0.36148   0.00000  Uiso   1.00
C647   C     0.99093   0.20454   0.44726   0.00000  Uiso   1.00
C648   C     0.97469   0.24422   0.45981   0.00000  Uiso   1.00
C649   C     0.95240   0.27223   0.42619   0.00000  Uiso   1.00
C650   C     0.83333   0.24672   0.50005   0.00000  Uiso   1.00
C651   C     0.94629   0.26091   0.37992   0.00000  Uiso   1.00
C652   C     0.96273   0.22164   0.36716   0.00000  Uiso   1.00
C653   C     0.98511   0.19353   0.40066   0.00000  Uiso   1.00
C654   C     0.67574   0.12879   0.55274   0.00000  Uiso   1.00
C655   C     0.68156   0.13980   0.59935   0.00000  Uiso   1.00
C656   C     0.70393   0.11170   0.63284   0.00000  Uiso   1.00
C657   C     0.72038   0.07242   0.62008   0.00000  Uiso   1.00
C658   C     0.71427   0.06110   0.57381   0.00000  Uiso   1.00
C659   C     0.69198   0.08912   0.54019   0.00000  Uiso   1.00
C660   C     0.73386   0.16721   0.48820   0.00000  Uiso   1.00
C661   C     0.93281   0.16613   0.51180   0.00000  Uiso   1.00
C662   C     0.67956   0.17392   0.48323   0.00000  Uiso   1.00
C663   C     0.98711   0.15941   0.51677   0.00000  Uiso   1.00
C664   C     0.82642   0.02122   0.45815   0.00000  Uiso   1.00
C665   C     0.84025   0.31211   0.54185   0.00000  Uiso   1.00
C666   C     0.82636   0.31196   0.45819   0.00000  Uiso   1.00
H667   H     0.82081   0.03736   0.42555   0.00000  Uiso   1.00
H668   H     0.93966   0.30266   0.43603   0.00000  Uiso   1.00
H669   H     0.92877   0.28255   0.35396   0.00000  Uiso   1.00
H670   H     0.95773   0.21286   0.66468   0.00000  Uiso   1.00
H671   H     0.99696   0.16296   0.39042   0.00000  Uiso   1.00
H672   H     0.66970   0.17037   0.60958   0.00000  Uiso   1.00
H673   H     0.70892   0.12047   0.33533   0.00000  Uiso   1.00
H674   H     0.73790   0.05078   0.64604   0.00000  Uiso   1.00
H675   H     0.72701   0.03067   0.56397   0.00000  Uiso   1.00
H676   H     0.68780   0.08013   0.50442   0.00000  Uiso   1.00
H677   H     0.84586   0.29598   0.57445   0.00000  Uiso   1.00
H678   H     0.82077   0.29571   0.42561   0.00000  Uiso   1.00
H679   H     0.84590   0.03762   0.57439   0.00000  Uiso   1.00
H680   H     0.77440   0.21310   0.36806   0.00000  Uiso   1.00
H681   H     0.89227   0.12024   0.63194   0.00000  Uiso   1.00
H682   H     0.77444   0.21312   0.61698   0.00000  Uiso   1.00
H683   H     0.89223   0.12021   0.38302   0.00000  Uiso   1.00
H684   H     0.97887   0.25321   0.49558   0.00000  Uiso   1.00
N685   N     0.83332   0.16666   0.61907   0.00000  Uiso   1.00
N686   N     0.83335   0.16668   0.38093   0.00000  Uiso   1.00
O687   O     0.83333   0.10558   0.53821   0.00000  Uiso   1.00
O688   O     0.83334   0.22775   0.46179   0.00000  Uiso   1.00
O689   O     0.83333   0.10559   0.46176   0.00000  Uiso   1.00
O690   O     0.83334   0.22774   0.53824   0.00000  Uiso   1.00
O691   O     0.75725   0.16666   0.52928   0.00000  Uiso   1.00
O692   O     0.90942   0.16667   0.47072   0.00000  Uiso   1.00
O693   O     0.75725   0.16667   0.45284   0.00000  Uiso   1.00
O694   O     0.90942   0.16666   0.54716   0.00000  Uiso   1.00
Zn695  Zn    0.83333   0.16666   0.55104   0.00000  Uiso   1.00
Zn696  Zn    0.83333   0.16667   0.44896   0.00000  Uiso   1.00
C697   C     0.16667   0.41995   0.49995   0.00000  Uiso   1.00
C698   C     0.17364   0.35471   0.54181   0.00000  Uiso   1.00
C699   C     0.16663   0.62419   0.50005   0.00000  Uiso   1.00
C700   C     0.16670   0.37581   0.49996   0.00000  Uiso   1.00
C701   C     0.13395   0.52584   0.35317   0.00000  Uiso   1.00
C702   C     0.19938   0.47416   0.64683   0.00000  Uiso   1.00
C703   C     0.13398   0.52586   0.63852   0.00000  Uiso   1.00
C704   C     0.19936   0.47414   0.36148   0.00000  Uiso   1.00
C705   C     0.32426   0.53787   0.44726   0.00000  Uiso   1.00
C706   C     0.30802   0.57755   0.45981   0.00000  Uiso   1.00
C707   C     0.28573   0.60557   0.42619   0.00000  Uiso   1.00
C708   C     0.16666   0.58005   0.50005   0.00000  Uiso   1.00
C709   C     0.27962   0.59424   0.37992   0.00000  Uiso   1.00
C710   C     0.29607   0.55497   0.36716   0.00000  Uiso   1.00
C711   C     0.31844   0.52686   0.40066   0.00000  Uiso   1.00
C712   C     0.00907   0.46213   0.55274   0.00000  Uiso   1.00
C713   C     0.01489   0.47314   0.59935   0.00000  Uiso   1.00
C714   C     0.03726   0.44503   0.63284   0.00000  Uiso   1.00
C715   C     0.05371   0.40576   0.62008   0.00000  Uiso   1.00
C716   C     0.04761   0.39443   0.57381   0.00000  Uiso   1.00
C717   C     0.02532   0.42245   0.54019   0.00000  Uiso   1.00
C718   C     0.06719   0.50054   0.48820   0.00000  Uiso   1.00
C719   C     0.26614   0.49946   0.51180   0.00000  Uiso   1.00
C720   C     0.01289   0.50726   0.48323   0.00000  Uiso   1.00
C721   C     0.32044   0.49274   0.51677   0.00000  Uiso   1.00
C722   C     0.15975   0.35456   0.45815   0.00000  Uiso   1.00
C723   C     0.17358   0.64544   0.54185   0.00000  Uiso   1.00
C724   C     0.15969   0.64529   0.45819   0.00000  Uiso   1.00
H725   H     0.15414   0.37069   0.42555   0.00000  Uiso   1.00
H726   H     0.27299   0.63599   0.43603   0.00000  Uiso   1.00
H727   H     0.26210   0.61588   0.35396   0.00000  Uiso   1.00
H728   H     0.29107   0.54619   0.66468   0.00000  Uiso   1.00
H729   H     0.33029   0.49630   0.39042   0.00000  Uiso   1.00
H730   H     0.00303   0.50370   0.60958   0.00000  Uiso   1.00
H731   H     0.04226   0.45380   0.33533   0.00000  Uiso   1.00
H732   H     0.07123   0.38412   0.64604   0.00000  Uiso   1.00
H733   H     0.06034   0.36401   0.56397   0.00000  Uiso   1.00
H734   H     0.02114   0.41346   0.50442   0.00000  Uiso   1.00
H735   H     0.17919   0.62931   0.57445   0.00000  Uiso   1.00
H736   H     0.15410   0.62904   0.42561   0.00000  Uiso   1.00
H737   H     0.17923   0.37096   0.57439   0.00000  Uiso   1.00
H738   H     0.10773   0.54643   0.36806   0.00000  Uiso   1.00
H739   H     0.22560   0.45357   0.63194   0.00000  Uiso   1.00
H740   H     0.10777   0.54646   0.61698   0.00000  Uiso   1.00
H741   H     0.22556   0.45354   0.38302   0.00000  Uiso   1.00
H742   H     0.31220   0.58654   0.49558   0.00000  Uiso   1.00
N743   N     0.16665   0.49999   0.61907   0.00000  Uiso   1.00
N744   N     0.16668   0.50001   0.38093   0.00000  Uiso   1.00
O745   O     0.16666   0.43892   0.53821   0.00000  Uiso   1.00
O746   O     0.16667   0.56108   0.46179   0.00000  Uiso   1.00
O747   O     0.16666   0.43893   0.46176   0.00000  Uiso   1.00
O748   O     0.16667   0.56107   0.53824   0.00000  Uiso   1.00
O749   O     0.09058   0.50000   0.52928   0.00000  Uiso   1.00
O750   O     0.24275   0.50000   0.47072   0.00000  Uiso   1.00
O751   O     0.09058   0.50000   0.45284   0.00000  Uiso   1.00
O752   O     0.24275   0.50000   0.54716   0.00000  Uiso   1.00
Zn753  Zn    0.16667   0.49999   0.55104   0.00000  Uiso   1.00
Zn754  Zn    0.16667   0.50001   0.44896   0.00000  Uiso   1.00
C755   C     0.50001   0.41995   0.49995   0.00000  Uiso   1.00
C756   C     0.50698   0.35471   0.54181   0.00000  Uiso   1.00
C757   C     0.49997   0.62419   0.50005   0.00000  Uiso   1.00
C758   C     0.50003   0.37581   0.49996   0.00000  Uiso   1.00
C759   C     0.46728   0.52584   0.35317   0.00000  Uiso   1.00
C760   C     0.53272   0.47416   0.64683   0.00000  Uiso   1.00
C761   C     0.46731   0.52586   0.63852   0.00000  Uiso   1.00
C762   C     0.53269   0.47414   0.36148   0.00000  Uiso   1.00
C763   C     0.65760   0.53787   0.44726   0.00000  Uiso   1.00
C764   C     0.64135   0.57755   0.45981   0.00000  Uiso   1.00
C765   C     0.61906   0.60557   0.42619   0.00000  Uiso   1.00
C766   C     0.49999   0.58005   0.50005   0.00000  Uiso   1.00
C767   C     0.61295   0.59424   0.37992   0.00000  Uiso   1.00
C768   C     0.62940   0.55497   0.36716   0.00000  Uiso   1.00
C769   C     0.65177   0.52686   0.40066   0.00000  Uiso   1.00
C770   C     0.34240   0.46213   0.55274   0.00000  Uiso   1.00
C771   C     0.34822   0.47314   0.59935   0.00000  Uiso   1.00
C772   C     0.37059   0.44503   0.63284   0.00000  Uiso   1.00
C773   C     0.38704   0.40576   0.62008   0.00000  Uiso   1.00
C774   C     0.38094   0.39443   0.57381   0.00000  Uiso   1.00
C775   C     0.35865   0.42245   0.54019   0.00000  Uiso   1.00
C776   C     0.40052   0.50054   0.48820   0.00000  Uiso   1.00
C777   C     0.59948   0.49946   0.51180   0.00000  Uiso   1.00
C778   C     0.34622   0.50726   0.48323   0.00000  Uiso   1.00
C779   C     0.65378   0.49274   0.51677   0.00000  Uiso   1.00
C780   C     0.49309   0.35456   0.45815   0.00000  Uiso   1.00
C781   C     0.50692   0.64544   0.54185   0.00000  Uiso   1.00
C782   C     0.49303   0.64529   0.45819   0.00000  Uiso   1.00
H783   H     0.48748   0.37069   0.42555   0.00000  Uiso   1.00
H784   H     0.60633   0.63599   0.43603   0.00000  Uiso   1.00
H785   H     0.59543   0.61588   0.35396   0.00000  Uiso   1.00
H786   H     0.62440   0.54619   0.66468   0.00000  Uiso   1.00
H787   H     0.66363   0.49630   0.39042   0.00000  Uiso   1.00
H788   H     0.33637   0.50370   0.60958   0.00000  Uiso   1.00
H789   H     0.37559   0.45380   0.33533   0.00000  Uiso   1.00
H790   H     0.40456   0.38412   0.64604   0.00000  Uiso   1.00
H791   H     0.39368   0.36401   0.56397   0.00000  Uiso   1.00
H792   H     0.35447   0.41346   0.50442   0.00000  Uiso   1.00
H793   H     0.51252   0.62931   0.57445   0.00000  Uiso   1.00
H794   H     0.48744   0.62904   0.42561   0.00000  Uiso   1.00
H795   H     0.51257   0.37096   0.57439   0.00000  Uiso   1.00
H796   H     0.44106   0.54643   0.36806   0.00000  Uiso   1.00
H797   H     0.55894   0.45357   0.63194   0.00000  Uiso   1.00
H798   H     0.44111   0.54646   0.61698   0.00000  Uiso   1.00
H799   H     0.55889   0.45354   0.38302   0.00000  Uiso   1.00
H800   H     0.64554   0.58654   0.49558   0.00000  Uiso   1.00
N801   N     0.49999   0.49999   0.61907   0.00000  Uiso   1.00
N802   N     0.50001   0.50001   0.38093   0.00000  Uiso   1.00
O803   O     0.50000   0.43892   0.53821   0.00000  Uiso   1.00
O804   O     0.50000   0.56108   0.46179   0.00000  Uiso   1.00
O805   O     0.50000   0.43893   0.46176   0.00000  Uiso   1.00
O806   O     0.50000   0.56107   0.53824   0.00000  Uiso   1.00
O807   O     0.42392   0.50000   0.52928   0.00000  Uiso   1.00
O808   O     0.57608   0.50000   0.47072   0.00000  Uiso   1.00
O809   O     0.42392   0.50000   0.45284   0.00000  Uiso   1.00
O810   O     0.57608   0.50000   0.54716   0.00000  Uiso   1.00
Zn811  Zn    0.50000   0.49999   0.55104   0.00000  Uiso   1.00
Zn812  Zn    0.50000   0.50001   0.44896   0.00000  Uiso   1.00
C813   C     0.83334   0.41995   0.49995   0.00000  Uiso   1.00
C814   C     0.84031   0.35471   0.54181   0.00000  Uiso   1.00
C815   C     0.83330   0.62419   0.50005   0.00000  Uiso   1.00
C816   C     0.83337   0.37581   0.49996   0.00000  Uiso   1.00
C817   C     0.80062   0.52584   0.35317   0.00000  Uiso   1.00
C818   C     0.86605   0.47416   0.64683   0.00000  Uiso   1.00
C819   C     0.80065   0.52586   0.63852   0.00000  Uiso   1.00
C820   C     0.86602   0.47414   0.36148   0.00000  Uiso   1.00
C821   C     0.99093   0.53787   0.44726   0.00000  Uiso   1.00
C822   C     0.97469   0.57755   0.45981   0.00000  Uiso   1.00
C823   C     0.95240   0.60557   0.42619   0.00000  Uiso   1.00
C824   C     0.83333   0.58005   0.50005   0.00000  Uiso   1.00
C825   C     0.94629   0.59424   0.37992   0.00000  Uiso   1.00
C826   C     0.96273   0.55497   0.36716   0.00000  Uiso   1.00
C827   C     0.98511   0.52686   0.40066   0.00000  Uiso   1.00
C828   C     0.67574   0.46213   0.55274   0.00000  Uiso   1.00
C829   C     0.68156   0.47314   0.59935   0.00000  Uiso   1.00
C830   C     0.70393   0.44503   0.63284   0.00000  Uiso   1.00
C831   C     0.72038   0.40576   0.62008   0.00000  Uiso   1.00
C832   C     0.71427   0.39443   0.57381   0.00000  Uiso   1.00
C833   C     0.69198   0.42245   0.54019   0.00000  Uiso   1.00
C834   C     0.73386   0.50054   0.48820   0.00000  Uiso   1.00
C835   C     0.93281   0.49946   0.51180   0.00000  Uiso   1.00
C836   C     0.67956   0.50726   0.48323   0.00000  Uiso   1.00
C837   C     0.98711   0.49274   0.51677   0.00000  Uiso   1.00
C838   C     0.82642   0.35456   0.45815   0.00000  Uiso   1.00
C839   C     0.84025   0.64544   0.54185   0.00000  Uiso   1.00
C840   C     0.82636   0.64529   0.45819   0.00000  Uiso   1.00
H841   H     0.82081   0.37069   0.42555   0.00000  Uiso   1.00
H842   H     0.93966   0.63599   0.43603   0.00000  Uiso   1.00
H843   H     0.92877   0.61588   0.35396   0.00000  Uiso   1.00
H844   H     0.95773   0.54619   0.66468   0.00000  Uiso   1.00
H845   H     0.99696   0.49630   0.39042   0.00000  Uiso   1.00
H846   H     0.66970   0.50370   0.60958   0.00000  Uiso   1.00
H847   H     0.70892   0.45380   0.33533   0.00000  Uiso   1.00
H848   H     0.73790   0.38412   0.64604   0.00000  Uiso   1.00
H849   H     0.72701   0.36401   0.56397   0.00000  Uiso   1.00
H850   H     0.68780   0.41346   0.50442   0.00000  Uiso   1.00
H851   H     0.84586   0.62931   0.57445   0.00000  Uiso   1.00
H852   H     0.82077   0.62904   0.42561   0.00000  Uiso   1.00
H853   H     0.84590   0.37096   0.57439   0.00000  Uiso   1.00
H854   H     0.77440   0.54643   0.36806   0.00000  Uiso   1.00
H855   H     0.89227   0.45357   0.63194   0.00000  Uiso   1.00
H856   H     0.77444   0.54646   0.61698   0.00000  Uiso   1.00
H857   H     0.89223   0.45354   0.38302   0.00000  Uiso   1.00
H858   H     0.97887   0.58654   0.49558   0.00000  Uiso   1.00
N859   N     0.83332   0.49999   0.61907   0.00000  Uiso   1.00
N860   N     0.83335   0.50001   0.38093   0.00000  Uiso   1.00
O861   O     0.83333   0.43892   0.53821   0.00000  Uiso   1.00
O862   O     0.83334   0.56108   0.46179   0.00000  Uiso   1.00
O863   O     0.83333   0.43893   0.46176   0.00000  Uiso   1.00
O864   O     0.83334   0.56107   0.53824   0.00000  Uiso   1.00
O865   O     0.75725   0.50000   0.52928   0.00000  Uiso   1.00
O866   O     0.90942   0.50000   0.47072   0.00000  Uiso   1.00
O867   O     0.75725   0.50000   0.45284   0.00000  Uiso   1.00
O868   O     0.90942   0.50000   0.54716   0.00000  Uiso   1.00
Zn869  Zn    0.83333   0.49999   0.55104   0.00000  Uiso   1.00
Zn870  Zn    0.83333   0.50001   0.44896   0.00000  Uiso   1.00
C871   C     0.16667   0.75328   0.49995   0.00000  Uiso   1.00
C872   C     0.17364   0.68804   0.54181   0.00000  Uiso   1.00
C873   C     0.16663   0.95753   0.50005   0.00000  Uiso   1.00
C874   C     0.16670   0.70914   0.49996   0.00000  Uiso   1.00
C875   C     0.13395   0.85918   0.35317   0.00000  Uiso   1.00
C876   C     0.19938   0.80749   0.64683   0.00000  Uiso   1.00
C877   C     0.13398   0.85919   0.63852   0.00000  Uiso   1.00
C878   C     0.19936   0.80747   0.36148   0.00000  Uiso   1.00
C879   C     0.32426   0.87121   0.44726   0.00000  Uiso   1.00
C880   C     0.30802   0.91088   0.45981   0.00000  Uiso   1.00
C881   C     0.28573   0.93890   0.42619   0.00000  Uiso   1.00
C882   C     0.16666   0.91339   0.50005   0.00000  Uiso   1.00
C883   C     0.27962   0.92758   0.37992   0.00000  Uiso   1.00
C884   C     0.29607   0.88830   0.36716   0.00000  Uiso   1.00
C885   C     0.31844   0.86019   0.40066   0.00000  Uiso   1.00
C886   C     0.00907   0.79546   0.55274   0.00000  Uiso   1.00
C887   C     0.01489   0.80647   0.59935   0.00000  Uiso   1.00
C888   C     0.03726   0.77836   0.63284   0.00000  Uiso   1.00
C889   C     0.05371   0.73909   0.62008   0.00000  Uiso   1.00
C890   C     0.04761   0.72777   0.57381   0.00000  Uiso   1.00
C891   C     0.02532   0.75578   0.54019   0.00000  Uiso   1.00
C892   C     0.06719   0.83387   0.48820   0.00000  Uiso   1.00
C893   C     0.26614   0.83279   0.51180   0.00000  Uiso   1.00
C894   C     0.01289   0.84059   0.48323   0.00000  Uiso   1.00
C895   C     0.32044   0.82608   0.51677   0.00000  Uiso   1.00
C896   C     0.15975   0.68789   0.45815   0.00000  Uiso   1.00
C897   C     0.17358   0.97878   0.54185   0.00000  Uiso   1.00
C898   C     0.15969   0.97863   0.45819   0.00000  Uiso   1.00
H899   H     0.15414   0.70402   0.42555   0.00000  Uiso   1.00
H900   H     0.27299   0.96933   0.43603   0.00000  Uiso   1.00
H901   H     0.26210   0.94922   0.35396   0.00000  Uiso   1.00
H902   H     0.29107   0.87953   0.66468   0.00000  Uiso   1.00
H903   H     0.33029   0.82963   0.39042   0.00000  Uiso   1.00
H904   H     0.00303   0.83703   0.60958   0.00000  Uiso   1.00
H905   H     0.04226   0.78714   0.33533   0.00000  Uiso   1.00
H906   H     0.07123   0.71745   0.64604   0.00000  Uiso   1.00
H907   H     0.06034   0.69734   0.56397   0.00000  Uiso   1.00
H908   H     0.02114   0.74679   0.50442   0.00000  Uiso   1.00
H909   H     0.17919   0.96264   0.57445   0.00000  Uiso   1.00
H910   H     0.15410   0.96238   0.42561   0.00000  Uiso   1.00
H911   H     0.17923   0.70429   0.57439   0.00000  Uiso   1.00
H912   H     0.10773   0.87976   0.36806   0.00000  Uiso   1.00
H913   H     0.22560   0.78691   0.63194   0.00000  Uiso   1.00
H914   H     0.10777   0.87979   0.61698   0.00000  Uiso   1.00
H915   H     0.22556   0.78688   0.38302   0.00000  Uiso   1.00
H916   H     0.31220   0.91987   0.49558   0.00000  Uiso   1.00
N917   N     0.16665   0.83332   0.61907   0.00000  Uiso   1.00
N918   N     0.16668   0.83334   0.38093   0.00000  Uiso   1.00
O919   O     0.16666   0.77225   0.53821   0.00000  Uiso   1.00
O920   O     0.16667   0.89442   0.46179   0.00000  Uiso   1.00
O921   O     0.16666   0.77226   0.46176   0.00000  Uiso   1.00
O922   O     0.16667   0.89441   0.53824   0.00000  Uiso   1.00
O923   O     0.09058   0.83333   0.52928   0.00000  Uiso   1.00
O924   O     0.24275   0.83334   0.47072   0.00000  Uiso   1.00
O925   O     0.09058   0.83334   0.45284   0.00000  Uiso   1.00
O926   O     0.24275   0.83333   0.54716   0.00000  Uiso   1.00
Zn927  Zn    0.16667   0.83333   0.55104   0.00000  Uiso   1.00
Zn928  Zn    0.16667   0.83334   0.44896   0.00000  Uiso   1.00
C929   C     0.50001   0.75328   0.49995   0.00000  Uiso   1.00
C930   C     0.50698   0.68804   0.54181   0.00000  Uiso   1.00
C931   C     0.49997   0.95753   0.50005   0.00000  Uiso   1.00
C932   C     0.50003   0.70914   0.49996   0.00000  Uiso   1.00
C933   C     0.46728   0.85918   0.35317   0.00000  Uiso   1.00
C934   C     0.53272   0.80749   0.64683   0.00000  Uiso   1.00
C935   C     0.46731   0.85919   0.63852   0.00000  Uiso   1.00
C936   C     0.53269   0.80747   0.36148   0.00000  Uiso   1.00
C937   C     0.65760   0.87121   0.44726   0.00000  Uiso   1.00
C938   C     0.64135   0.91088   0.45981   0.00000  Uiso   1.00
C939   C     0.61906   0.93890   0.42619   0.00000  Uiso   1.00
C940   C     0.49999   0.91339   0.50005   0.00000  Uiso   1.00
C941   C     0.61295   0.92758   0.37992   0.00000  Uiso   1.00
C942   C     0.62940   0.88830   0.36716   0.00000  Uiso   1.00
C943   C     0.65177   0.86019   0.40066   0.00000  Uiso   1.00
C944   C     0.34240   0.79546   0.55274   0.00000  Uiso   1.00
C945   C     0.34822   0.80647   0.59935   0.00000  Uiso   1.00
C946   C     0.37059   0.77836   0.63284   0.00000  Uiso   1.00
C947   C     0.38704   0.73909   0.62008   0.00000  Uiso   1.00
C948   C     0.38094   0.72777   0.57381   0.00000  Uiso   1.00
C949   C     0.35865   0.75578   0.54019   0.00000  Uiso   1.00
C950   C     0.40052   0.83387   0.48820   0.00000  Uiso   1.00
C951   C     0.59948   0.83279   0.51180   0.00000  Uiso   1.00
C952   C     0.34622   0.84059   0.48323   0.00000  Uiso   1.00
C953   C     0.65378   0.82608   0.51677   0.00000  Uiso   1.00
C954   C     0.49309   0.68789   0.45815   0.00000  Uiso   1.00
C955   C     0.50692   0.97878   0.54185   0.00000  Uiso   1.00
C956   C     0.49303   0.97863   0.45819   0.00000  Uiso   1.00
H957   H     0.48748   0.70402   0.42555   0.00000  Uiso   1.00
H958   H     0.60633   0.96933   0.43603   0.00000  Uiso   1.00
H959   H     0.59543   0.94922   0.35396   0.00000  Uiso   1.00
H960   H     0.62440   0.87953   0.66468   0.00000  Uiso   1.00
H961   H     0.66363   0.82963   0.39042   0.00000  Uiso   1.00
H962   H     0.33637   0.83703   0.60958   0.00000  Uiso   1.00
H963   H     0.37559   0.78714   0.33533   0.00000  Uiso   1.00
H964   H     0.40456   0.71745   0.64604   0.00000  Uiso   1.00
H965   H     0.39368   0.69734   0.56397   0.00000  Uiso   1.00
H966   H     0.35447   0.74679   0.50442   0.00000  Uiso   1.00
H967   H     0.51252   0.96264   0.57445   0.00000  Uiso   1.00
H968   H     0.48744   0.96238   0.42561   0.00000  Uiso   1.00
H969   H     0.51257   0.70429   0.57439   0.00000  Uiso   1.00
H970   H     0.44106   0.87976   0.36806   0.00000  Uiso   1.00
H971   H     0.55894   0.78691   0.63194   0.00000  Uiso   1.00
H972   H     0.44111   0.87979   0.61698   0.00000  Uiso   1.00
H973   H     0.55889   0.78688   0.38302   0.00000  Uiso   1.00
H974   H     0.64554   0.91987   0.49558   0.00000  Uiso   1.00
N975   N     0.49999   0.83332   0.61907   0.00000  Uiso   1.00
N976   N     0.50001   0.83334   0.38093   0.00000  Uiso   1.00
O977   O     0.50000   0.77225   0.53821   0.00000  Uiso   1.00
O978   O     0.50000   0.89442   0.46179   0.00000  Uiso   1.00
O979   O     0.50000   0.77226   0.46176   0.00000  Uiso   1.00
O980   O     0.50000   0.89441   0.53824   0.00000  Uiso   1.00
O981   O     0.42392   0.83333   0.52928   0.00000  Uiso   1.00
O982   O     0.57608   0.83334   0.47072   0.00000  Uiso   1.00
O983   O     0.42392   0.83334   0.45284   0.00000  Uiso   1.00
O984   O     0.57608   0.83333   0.54716   0.00000  Uiso   1.00
Zn985  Zn    0.50000   0.83333   0.55104   0.00000  Uiso   1.00
Zn986  Zn    0.50000   0.83334   0.44896   0.00000  Uiso   1.00
C987   C     0.83334   0.75328   0.49995   0.00000  Uiso   1.00
C988   C     0.84031   0.68804   0.54181   0.00000  Uiso   1.00
C989   C     0.83330   0.95753   0.50005   0.00000  Uiso   1.00
C990   C     0.83337   0.70914   0.49996   0.00000  Uiso   1.00
C991   C     0.80062   0.85918   0.35317   0.00000  Uiso   1.00
C992   C     0.86605   0.80749   0.64683   0.00000  Uiso   1.00
C993   C     0.80065   0.85919   0.63852   0.00000  Uiso   1.00
C994   C     0.86602   0.80747   0.36148   0.00000  Uiso   1.00
C995   C     0.99093   0.87121   0.44726   0.00000  Uiso   1.00
C996   C     0.97469   0.91088   0.45981   0.00000  Uiso   1.00
C997   C     0.95240   0.93890   0.42619   0.00000  Uiso   1.00
C998   C     0.83333   0.91339   0.50005   0.00000  Uiso   1.00
C999   C     0.94629   0.92758   0.37992   0.00000  Uiso   1.00
C1000  C     0.96273   0.88830   0.36716   0.00000  Uiso   1.00
C1001  C     0.98511   0.86019   0.40066   0.00000  Uiso   1.00
C1002  C     0.67574   0.79546   0.55274   0.00000  Uiso   1.00
C1003  C     0.68156   0.80647   0.59935   0.00000  Uiso   1.00
C1004  C     0.70393   0.77836   0.63284   0.00000  Uiso   1.00
C1005  C     0.72038   0.73909   0.62008   0.00000  Uiso   1.00
C1006  C     0.71427   0.72777   0.57381   0.00000  Uiso   1.00
C1007  C     0.69198   0.75578   0.54019   0.00000  Uiso   1.00
C1008  C     0.73386   0.83387   0.48820   0.00000  Uiso   1.00
C1009  C     0.93281   0.83279   0.51180   0.00000  Uiso   1.00
C1010  C     0.67956   0.84059   0.48323   0.00000  Uiso   1.00
C1011  C     0.98711   0.82608   0.51677   0.00000  Uiso   1.00
C1012  C     0.82642   0.68789   0.45815   0.00000  Uiso   1.00
C1013  C     0.84025   0.97878   0.54185   0.00000  Uiso   1.00
C1014  C     0.82636   0.97863   0.45819   0.00000  Uiso   1.00
H1015  H     0.82081   0.70402   0.42555   0.00000  Uiso   1.00
H1016  H     0.93966   0.96933   0.43603   0.00000  Uiso   1.00
H1017  H     0.92877   0.94922   0.35396   0.00000  Uiso   1.00
H1018  H     0.95773   0.87953   0.66468   0.00000  Uiso   1.00
H1019  H     0.99696   0.82963   0.39042   0.00000  Uiso   1.00
H1020  H     0.66970   0.83703   0.60958   0.00000  Uiso   1.00
H1021  H     0.70892   0.78714   0.33533   0.00000  Uiso   1.00
H1022  H     0.73790   0.71745   0.64604   0.00000  Uiso   1.00
H1023  H     0.72701   0.69734   0.56397   0.00000  Uiso   1.00
H1024  H     0.68780   0.74679   0.50442   0.00000  Uiso   1.00
H1025  H     0.84586   0.96264   0.57445   0.00000  Uiso   1.00
H1026  H     0.82077   0.96238   0.42561   0.00000  Uiso   1.00
H1027  H     0.84590   0.70429   0.57439   0.00000  Uiso   1.00
H1028  H     0.77440   0.87976   0.36806   0.00000  Uiso   1.00
H1029  H     0.89227   0.78691   0.63194   0.00000  Uiso   1.00
H1030  H     0.77444   0.87979   0.61698   0.00000  Uiso   1.00
H1031  H     0.89223   0.78688   0.38302   0.00000  Uiso   1.00
H1032  H     0.97887   0.91987   0.49558   0.00000  Uiso   1.00
N1033  N     0.83332   0.83332   0.61907   0.00000  Uiso   1.00
N1034  N     0.83335   0.83334   0.38093   0.00000  Uiso   1.00
O1035  O     0.83333   0.77225   0.53821   0.00000  Uiso   1.00
O1036  O     0.83334   0.89442   0.46179   0.00000  Uiso   1.00
O1037  O     0.83333   0.77226   0.46176   0.00000  Uiso   1.00
O1038  O     0.83334   0.89441   0.53824   0.00000  Uiso   1.00
O1039  O     0.75725   0.83333   0.52928   0.00000  Uiso   1.00
O1040  O     0.90942   0.83334   0.47072   0.00000  Uiso   1.00
O1041  O     0.75725   0.83334   0.45284   0.00000  Uiso   1.00
O1042  O     0.90942   0.83333   0.54716   0.00000  Uiso   1.00
Zn1043 Zn    0.83333   0.83333   0.55104   0.00000  Uiso   1.00
Zn1044 Zn    0.83333   0.83334   0.44896   0.00000  Uiso   1.00
C1045  C     0.16667   0.08661   0.83329   0.00000  Uiso   1.00
C1046  C     0.17364   0.02137   0.87514   0.00000  Uiso   1.00
C1047  C     0.16663   0.29086   0.83338   0.00000  Uiso   1.00
C1048  C     0.16670   0.04247   0.83329   0.00000  Uiso   1.00
C1049  C     0.13395   0.19251   0.68651   0.00000  Uiso   1.00
C1050  C     0.19938   0.14082   0.98016   0.00000  Uiso   1.00
C1051  C     0.13398   0.19253   0.97186   0.00000  Uiso   1.00
C1052  C     0.19936   0.14081   0.69481   0.00000  Uiso   1.00
C1053  C     0.32426   0.20454   0.78059   0.00000  Uiso   1.00
C1054  C     0.30802   0.24422   0.79314   0.00000  Uiso   1.00
C1055  C     0.28573   0.27223   0.75953   0.00000  Uiso   1.00
C1056  C     0.16666   0.24672   0.83338   0.00000  Uiso   1.00
C1057  C     0.27962   0.26091   0.71326   0.00000  Uiso   1.00
C1058  C     0.29607   0.22164   0.70050   0.00000  Uiso   1.00
C1059  C     0.31844   0.19353   0.73399   0.00000  Uiso   1.00
C1060  C     0.00907   0.12879   0.88608   0.00000  Uiso   1.00
C1061  C     0.01489   0.13980   0.93268   0.00000  Uiso   1.00
C1062  C     0.03726   0.11170   0.96617   0.00000  Uiso   1.00
C1063  C     0.05371   0.07242   0.95341   0.00000  Uiso   1.00
C1064  C     0.04761   0.06110   0.90714   0.00000  Uiso   1.00
C1065  C     0.02532   0.08912   0.87353   0.00000  Uiso   1.00
C1066  C     0.06719   0.16721   0.82153   0.00000  Uiso   1.00
C1067  C     0.26614   0.16613   0.84514   0.00000  Uiso   1.00
C1068  C     0.01289   0.17392   0.81656   0.00000  Uiso   1.00
C1069  C     0.32044   0.15941   0.85011   0.00000  Uiso   1.00
C1070  C     0.15975   0.02122   0.79148   0.00000  Uiso   1.00
C1071  C     0.17358   0.31211   0.87519   0.00000  Uiso   1.00
C1072  C     0.15969   0.31196   0.79152   0.00000  Uiso   1.00
H1073  H     0.15414   0.03736   0.75888   0.00000  Uiso   1.00
H1074  H     0.27299   0.30266   0.76937   0.00000  Uiso   1.00
H1075  H     0.26210   0.28255   0.68729   0.00000  Uiso   1.00
H1076  H     0.29107   0.21286   0.99801   0.00000  Uiso   1.00
H1077  H     0.33029   0.16296   0.72375   0.00000  Uiso   1.00
H1078  H     0.00303   0.17037   0.94292   0.00000  Uiso   1.00
H1079  H     0.04226   0.12047   0.66866   0.00000  Uiso   1.00
H1080  H     0.07123   0.05078   0.97938   0.00000  Uiso   1.00
H1081  H     0.06034   0.03067   0.89730   0.00000  Uiso   1.00
H1082  H     0.02114   0.08013   0.83776   0.00000  Uiso   1.00
H1083  H     0.17919   0.29598   0.90779   0.00000  Uiso   1.00
H1084  H     0.15410   0.29571   0.75894   0.00000  Uiso   1.00
H1085  H     0.17923   0.03762   0.90773   0.00000  Uiso   1.00
H1086  H     0.10773   0.21310   0.70139   0.00000  Uiso   1.00
H1087  H     0.22560   0.12024   0.96528   0.00000  Uiso   1.00
H1088  H     0.10777   0.21312   0.95032   0.00000  Uiso   1.00
H1089  H     0.22556   0.12021   0.71635   0.00000  Uiso   1.00
H1090  H     0.31220   0.25321   0.82891   0.00000  Uiso   1.00
N1091  N     0.16665   0.16666   0.95240   0.00000  Uiso   1.00
N1092  N     0.16668   0.16668   0.71427   0.00000  Uiso   1.00
O1093  O     0.16666   0.10558   0.87154   0.00000  Uiso   1.00
O1094  O     0.16667   0.22775   0.79513   0.00000  Uiso   1.00
O1095  O     0.16666   0.10559   0.79510   0.00000  Uiso   1.00
O1096  O     0.16667   0.22774   0.87157   0.00000  Uiso   1.00
O1097  O     0.09058   0.16666   0.86261   0.00000  Uiso   1.00
O1098  O     0.24275   0.16667   0.80405   0.00000  Uiso   1.00
O1099  O     0.09058   0.16667   0.78617   0.00000  Uiso   1.00
O1100  O     0.24275   0.16666   0.88050   0.00000  Uiso   1.00
Zn1101 Zn    0.16667   0.16666   0.88437   0.00000  Uiso   1.00
Zn1102 Zn    0.16667   0.16667   0.78229   0.00000  Uiso   1.00
C1103  C     0.50001   0.08661   0.83329   0.00000  Uiso   1.00
C1104  C     0.50698   0.02137   0.87514   0.00000  Uiso   1.00
C1105  C     0.49997   0.29086   0.83338   0.00000  Uiso   1.00
C1106  C     0.50003   0.04247   0.83329   0.00000  Uiso   1.00
C1107  C     0.46728   0.19251   0.68651   0.00000  Uiso   1.00
C1108  C     0.53272   0.14082   0.98016   0.00000  Uiso   1.00
C1109  C     0.46731   0.19253   0.97186   0.00000  Uiso   1.00
C1110  C     0.53269   0.14081   0.69481   0.00000  Uiso   1.00
C1111  C     0.65760   0.20454   0.78059   0.00000  Uiso   1.00
C1112  C     0.64135   0.24422   0.79314   0.00000  Uiso   1.00
C1113  C     0.61906   0.27223   0.75953   0.00000  Uiso   1.00
C1114  C     0.49999   0.24672   0.83338   0.00000  Uiso   1.00
C1115  C     0.61295   0.26091   0.71326   0.00000  Uiso   1.00
C1116  C     0.62940   0.22164   0.70050   0.00000  Uiso   1.00
C1117  C     0.65177   0.19353   0.73399   0.00000  Uiso   1.00
C1118  C     0.34240   0.12879   0.88608   0.00000  Uiso   1.00
C1119  C     0.34822   0.13980   0.93268   0.00000  Uiso   1.00
C1120  C     0.37059   0.11170   0.96617   0.00000  Uiso   1.00
C1121  C     0.38704   0.07242   0.95341   0.00000  Uiso   1.00
C1122  C     0.38094   0.06110   0.90714   0.00000  Uiso   1.00
C1123  C     0.35865   0.08912   0.87353   0.00000  Uiso   1.00
C1124  C     0.40052   0.16721   0.82153   0.00000  Uiso   1.00
C1125  C     0.59948   0.16613   0.84514   0.00000  Uiso   1.00
C1126  C     0.34622   0.17392   0.81656   0.00000  Uiso   1.00
C1127  C     0.65378   0.15941   0.85011   0.00000  Uiso   1.00
C1128  C     0.49309   0.02122   0.79148   0.00000  Uiso   1.00
C1129  C     0.50692   0.31211   0.87519   0.00000  Uiso   1.00
C1130  C     0.49303   0.31196   0.79152   0.00000  Uiso   1.00
H1131  H     0.48748   0.03736   0.75888   0.00000  Uiso   1.00
H1132  H     0.60633   0.30266   0.76937   0.00000  Uiso   1.00
H1133  H     0.59543   0.28255   0.68729   0.00000  Uiso   1.00
H1134  H     0.62440   0.21286   0.99801   0.00000  Uiso   1.00
H1135  H     0.66363   0.16296   0.72375   0.00000  Uiso   1.00
H1136  H     0.33637   0.17037   0.94292   0.00000  Uiso   1.00
H1137  H     0.37559   0.12047   0.66866   0.00000  Uiso   1.00
H1138  H     0.40456   0.05078   0.97938   0.00000  Uiso   1.00
H1139  H     0.39368   0.03067   0.89730   0.00000  Uiso   1.00
H1140  H     0.35447   0.08013   0.83776   0.00000  Uiso   1.00
H1141  H     0.51252   0.29598   0.90779   0.00000  Uiso   1.00
H1142  H     0.48744   0.29571   0.75894   0.00000  Uiso   1.00
H1143  H     0.51257   0.03762   0.90773   0.00000  Uiso   1.00
H1144  H     0.44106   0.21310   0.70139   0.00000  Uiso   1.00
H1145  H     0.55894   0.12024   0.96528   0.00000  Uiso   1.00
H1146  H     0.44111   0.21312   0.95032   0.00000  Uiso   1.00
H1147  H     0.55889   0.12021   0.71635   0.00000  Uiso   1.00
H1148  H     0.64554   0.25321   0.82891   0.00000  Uiso   1.00
N1149  N     0.49999   0.16666   0.95240   0.00000  Uiso   1.00
N1150  N     0.50001   0.16668   0.71427   0.00000  Uiso   1.00
O1151  O     0.50000   0.10558   0.87154   0.00000  Uiso   1.00
O1152  O     0.50000   0.22775   0.79513   0.00000  Uiso   1.00
O1153  O     0.50000   0.10559   0.79510   0.00000  Uiso   1.00
O1154  O     0.50000   0.22774   0.87157   0.00000  Uiso   1.00
O1155  O     0.42392   0.16666   0.86261   0.00000  Uiso   1.00
O1156  O     0.57608   0.16667   0.80405   0.00000  Uiso   1.00
O1157  O     0.42392   0.16667   0.78617   0.00000  Uiso   1.00
O1158  O     0.57608   0.16666   0.88050   0.00000  Uiso   1.00
Zn1159 Zn    0.50000   0.16666   0.88437   0.00000  Uiso   1.00
Zn1160 Zn    0.50000   0.16667   0.78229   0.00000  Uiso   1.00
C1161  C     0.83334   0.08661   0.83329   0.00000  Uiso   1.00
C1162  C     0.84031   0.02137   0.87514   0.00000  Uiso   1.00
C1163  C     0.83330   0.29086   0.83338   0.00000  Uiso   1.00
C1164  C     0.83337   0.04247   0.83329   0.00000  Uiso   1.00
C1165  C     0.80062   0.19251   0.68651   0.00000  Uiso   1.00
C1166  C     0.86605   0.14082   0.98016   0.00000  Uiso   1.00
C1167  C     0.80065   0.19253   0.97186   0.00000  Uiso   1.00
C1168  C     0.86602   0.14081   0.69481   0.00000  Uiso   1.00
C1169  C     0.99093   0.20454   0.78059   0.00000  Uiso   1.00
C1170  C     0.97469   0.24422   0.79314   0.00000  Uiso   1.00
C1171  C     0.95240   0.27223   0.75953   0.00000  Uiso   1.00
C1172  C     0.83333   0.24672   0.83338   0.00000  Uiso   1.00
C1173  C     0.94629   0.26091   0.71326   0.00000  Uiso   1.00
C1174  C     0.96273   0.22164   0.70050   0.00000  Uiso   1.00
C1175  C     0.98511   0.19353   0.73399   0.00000  Uiso   1.00
C1176  C     0.67574   0.12879   0.88608   0.00000  Uiso   1.00
C1177  C     0.68156   0.13980   0.93268   0.00000  Uiso   1.00
C1178  C     0.70393   0.11170   0.96617   0.00000  Uiso   1.00
C1179  C     0.72038   0.07242   0.95341   0.00000  Uiso   1.00
C1180  C     0.71427   0.06110   0.90714   0.00000  Uiso   1.00
C1181  C     0.69198   0.08912   0.87353   0.00000  Uiso   1.00
C1182  C     0.73386   0.16721   0.82153   0.00000  Uiso   1.00
C1183  C     0.93281   0.16613   0.84514   0.00000  Uiso   1.00
C1184  C     0.67956   0.17392   0.81656   0.00000  Uiso   1.00
C1185  C     0.98711   0.15941   0.85011   0.00000  Uiso   1.00
C1186  C     0.82642   0.02122   0.79148   0.00000  Uiso   1.00
C1187  C     0.84025   0.31211   0.87519   0.00000  Uiso   1.00
C1188  C     0.82636   0.31196   0.79152   0.00000  Uiso   1.00
H1189  H     0.82081   0.03736   0.75888   0.00000  Uiso   1.00
H1190  H     0.93966   0.30266   0.76937   0.00000  Uiso   1.00
H1191  H     0.92877   0.28255   0.68729   0.00000  Uiso   1.00
H1192  H     0.95773   0.21286   0.99801   0.00000  Uiso   1.00
H1193  H     0.99696   0.16296   0.72375   0.00000  Uiso   1.00
H1194  H     0.66970   0.17037   0.94292   0.00000  Uiso   1.00
H1195  H     0.70892   0.12047   0.66866   0.00000  Uiso   1.00
H1196  H     0.73790   0.05078   0.97938   0.00000  Uiso   1.00
H1197  H     0.72701   0.03067   0.89730   0.00000  Uiso   1.00
H1198  H     0.68780   0.08013   0.83776   0.00000  Uiso   1.00
H1199  H     0.84586   0.29598   0.90779   0.00000  Uiso   1.00
H1200  H     0.82077   0.29571   0.75894   0.00000  Uiso   1.00
H1201  H     0.84590   0.03762   0.90773   0.00000  Uiso   1.00
H1202  H     0.77440   0.21310   0.70139   0.00000  Uiso   1.00
H1203  H     0.89227   0.12024   0.96528   0.00000  Uiso   1.00
H1204  H     0.77444   0.21312   0.95032   0.00000  Uiso   1.00
H1205  H     0.89223   0.12021   0.71635   0.00000  Uiso   1.00
H1206  H     0.97887   0.25321   0.82891   0.00000  Uiso   1.00
N1207  N     0.83332   0.16666   0.95240   0.00000  Uiso   1.00
N1208  N     0.83335   0.16668   0.71427   0.00000  Uiso   1.00
O1209  O     0.83333   0.10558   0.87154   0.00000  Uiso   1.00
O1210  O     0.83334   0.22775   0.79513   0.00000  Uiso   1.00
O1211  O     0.83333   0.10559   0.79510   0.00000  Uiso   1.00
O1212  O     0.83334   0.22774   0.87157   0.00000  Uiso   1.00
O1213  O     0.75725   0.16666   0.86261   0.00000  Uiso   1.00
O1214  O     0.90942   0.16667   0.80405   0.00000  Uiso   1.00
O1215  O     0.75725   0.16667   0.78617   0.00000  Uiso   1.00
O1216  O     0.90942   0.16666   0.88050   0.00000  Uiso   1.00
Zn1217 Zn    0.83333   0.16666   0.88437   0.00000  Uiso   1.00
Zn1218 Zn    0.83333   0.16667   0.78229   0.00000  Uiso   1.00
C1219  C     0.16667   0.41995   0.83329   0.00000  Uiso   1.00
C1220  C     0.17364   0.35471   0.87514   0.00000  Uiso   1.00
C1221  C     0.16663   0.62419   0.83338   0.00000  Uiso   1.00
C1222  C     0.16670   0.37581   0.83329   0.00000  Uiso   1.00
C1223  C     0.13395   0.52584   0.68651   0.00000  Uiso   1.00
C1224  C     0.19938   0.47416   0.98016   0.00000  Uiso   1.00
C1225  C     0.13398   0.52586   0.97186   0.00000  Uiso   1.00
C1226  C     0.19936   0.47414   0.69481   0.00000  Uiso   1.00
C1227  C     0.32426   0.53787   0.78059   0.00000  Uiso   1.00
C1228  C     0.30802   0.57755   0.79314   0.00000  Uiso   1.00
C1229  C     0.28573   0.60557   0.75953   0.00000  Uiso   1.00
C1230  C     0.16666   0.58005   0.83338   0.00000  Uiso   1.00
C1231  C     0.27962   0.59424   0.71326   0.00000  Uiso   1.00
C1232  C     0.29607   0.55497   0.70050   0.00000  Uiso   1.00
C1233  C     0.31844   0.52686   0.73399   0.00000  Uiso   1.00
C1234  C     0.00907   0.46213   0.88608   0.00000  Uiso   1.00
C1235  C     0.01489   0.47314   0.93268   0.00000  Uiso   1.00
C1236  C     0.03726   0.44503   0.96617   0.00000  Uiso   1.00
C1237  C     0.05371   0.40576   0.95341   0.00000  Uiso   1.00
C1238  C     0.04761   0.39443   0.90714   0.00000  Uiso   1.00
C1239  C     0.02532   0.42245   0.87353   0.00000  Uiso   1.00
C1240  C     0.06719   0.50054   0.82153   0.00000  Uiso   1.00
C1241  C     0.26614   0.49946   0.84514   0.00000  Uiso   1.00
C1242  C     0.01289   0.50726   0.81656   0.00000  Uiso   1.00
C1243  C     0.32044   0.49274   0.85011   0.00000  Uiso   1.00
C1244  C     0.15975   0.35456   0.79148   0.00000  Uiso   1.00
C1245  C     0.17358   0.64544   0.87519   0.00000  Uiso   1.00
C1246  C     0.15969   0.64529   0.79152   0.00000  Uiso   1.00
H1247  H     0.15414   0.37069   0.75888   0.00000  Uiso   1.00
H1248  H     0.27299   0.63599   0.76937   0.00000  Uiso   1.00
H1249  H     0.26210   0.61588   0.68729   0.00000  Uiso   1.00
H1250  H     0.29107   0.54619   0.99801   0.00000  Uiso   1.00
H1251  H     0.33029   0.49630   0.72375   0.00000  Uiso   1.00
H1252  H     0.00303   0.50370   0.94292   0.00000  Uiso   1.00
H1253  H     0.04226   0.45380   0.66866   0.00000  Uiso   1.00
H1254  H     0.07123   0.38412   0.97938   0.00000  Uiso   1.00
H1255  H     0.06034   0.36401   0.89730   0.00000  Uiso   1.00
H1256  H     0.02114   0.41346   0.83776   0.00000  Uiso   1.00
H1257  H     0.17919   0.62931   0.90779   0.00000  Uiso   1.00
H1258  H     0.15410   0.62904   0.75894   0.00000  Uiso   1.00
H1259  H     0.17923   0.37096   0.90773   0.00000  Uiso   1.00
H1260  H     0.10773   0.54643   0.70139   0.00000  Uiso   1.00
H1261  H     0.22560   0.45357   0.96528   0.00000  Uiso   1.00
H1262  H     0.10777   0.54646   0.95032   0.00000  Uiso   1.00
H1263  H     0.22556   0.45354   0.71635   0.00000  Uiso   1.00
H1264  H     0.31220   0.58654   0.82891   0.00000  Uiso   1.00
N1265  N     0.16665   0.49999   0.95240   0.00000  Uiso   1.00
N1266  N     0.16668   0.50001   0.71427   0.00000  Uiso   1.00
O1267  O     0.16666   0.43892   0.87154   0.00000  Uiso   1.00
O1268  O     0.16667   0.56108   0.79513   0.00000  Uiso   1.00
O1269  O     0.16666   0.43893   0.79510   0.00000  Uiso   1.00
O1270  O     0.16667   0.56107   0.87157   0.00000  Uiso   1.00
O1271  O     0.09058   0.50000   0.86261   0.00000  Uiso   1.00
O1272  O     0.24275   0.50000   0.80405   0.00000  Uiso   1.00
O1273  O     0.09058   0.50000   0.78617   0.00000  Uiso   1.00
O1274  O     0.24275   0.50000   0.88050   0.00000  Uiso   1.00
Zn1275 Zn    0.16667   0.49999   0.88437   0.00000  Uiso   1.00
Zn1276 Zn    0.16667   0.50001   0.78229   0.00000  Uiso   1.00
C1277  C     0.50001   0.41995   0.83329   0.00000  Uiso   1.00
C1278  C     0.50698   0.35471   0.87514   0.00000  Uiso   1.00
C1279  C     0.49997   0.62419   0.83338   0.00000  Uiso   1.00
C1280  C     0.50003   0.37581   0.83329   0.00000  Uiso   1.00
C1281  C     0.46728   0.52584   0.68651   0.00000  Uiso   1.00
C1282  C     0.53272   0.47416   0.98016   0.00000  Uiso   1.00
C1283  C     0.46731   0.52586   0.97186   0.00000  Uiso   1.00
C1284  C     0.53269   0.47414   0.69481   0.00000  Uiso   1.00
C1285  C     0.65760   0.53787   0.78059   0.00000  Uiso   1.00
C1286  C     0.64135   0.57755   0.79314   0.00000  Uiso   1.00
C1287  C     0.61906   0.60557   0.75953   0.00000  Uiso   1.00
C1288  C     0.49999   0.58005   0.83338   0.00000  Uiso   1.00
C1289  C     0.61295   0.59424   0.71326   0.00000  Uiso   1.00
C1290  C     0.62940   0.55497   0.70050   0.00000  Uiso   1.00
C1291  C     0.65177   0.52686   0.73399   0.00000  Uiso   1.00
C1292  C     0.34240   0.46213   0.88608   0.00000  Uiso   1.00
C1293  C     0.34822   0.47314   0.93268   0.00000  Uiso   1.00
C1294  C     0.37059   0.44503   0.96617   0.00000  Uiso   1.00
C1295  C     0.38704   0.40576   0.95341   0.00000  Uiso   1.00
C1296  C     0.38094   0.39443   0.90714   0.00000  Uiso   1.00
C1297  C     0.35865   0.42245   0.87353   0.00000  Uiso   1.00
C1298  C     0.40052   0.50054   0.82153   0.00000  Uiso   1.00
C1299  C     0.59948   0.49946   0.84514   0.00000  Uiso   1.00
C1300  C     0.34622   0.50726   0.81656   0.00000  Uiso   1.00
C1301  C     0.65378   0.49274   0.85011   0.00000  Uiso   1.00
C1302  C     0.49309   0.35456   0.79148   0.00000  Uiso   1.00
C1303  C     0.50692   0.64544   0.87519   0.00000  Uiso   1.00
C1304  C     0.49303   0.64529   0.79152   0.00000  Uiso   1.00
H1305  H     0.48748   0.37069   0.75888   0.00000  Uiso   1.00
H1306  H     0.60633   0.63599   0.76937   0.00000  Uiso   1.00
H1307  H     0.59543   0.61588   0.68729   0.00000  Uiso   1.00
H1308  H     0.62440   0.54619   0.99801   0.00000  Uiso   1.00
H1309  H     0.66363   0.49630   0.72375   0.00000  Uiso   1.00
H1310  H     0.33637   0.50370   0.94292   0.00000  Uiso   1.00
H1311  H     0.37559   0.45380   0.66866   0.00000  Uiso   1.00
H1312  H     0.40456   0.38412   0.97938   0.00000  Uiso   1.00
H1313  H     0.39368   0.36401   0.89730   0.00000  Uiso   1.00
H1314  H     0.35447   0.41346   0.83776   0.00000  Uiso   1.00
H1315  H     0.51252   0.62931   0.90779   0.00000  Uiso   1.00
H1316  H     0.48744   0.62904   0.75894   0.00000  Uiso   1.00
H1317  H     0.51257   0.37096   0.90773   0.00000  Uiso   1.00
H1318  H     0.44106   0.54643   0.70139   0.00000  Uiso   1.00
H1319  H     0.55894   0.45357   0.96528   0.00000  Uiso   1.00
H1320  H     0.44111   0.54646   0.95032   0.00000  Uiso   1.00
H1321  H     0.55889   0.45354   0.71635   0.00000  Uiso   1.00
H1322  H     0.64554   0.58654   0.82891   0.00000  Uiso   1.00
N1323  N     0.49999   0.49999   0.95240   0.00000  Uiso   1.00
N1324  N     0.50001   0.50001   0.71427   0.00000  Uiso   1.00
O1325  O     0.50000   0.43892   0.87154   0.00000  Uiso   1.00
O1326  O     0.50000   0.56108   0.79513   0.00000  Uiso   1.00
O1327  O     0.50000   0.43893   0.79510   0.00000  Uiso   1.00
O1328  O     0.50000   0.56107   0.87157   0.00000  Uiso   1.00
O1329  O     0.42392   0.50000   0.86261   0.00000  Uiso   1.00
O1330  O     0.57608   0.50000   0.80405   0.00000  Uiso   1.00
O1331  O     0.42392   0.50000   0.78617   0.00000  Uiso   1.00
O1332  O     0.57608   0.50000   0.88050   0.00000  Uiso   1.00
Zn1333 Zn    0.50000   0.49999   0.88437   0.00000  Uiso   1.00
Zn1334 Zn    0.50000   0.50001   0.78229   0.00000  Uiso   1.00
C1335  C     0.83334   0.41995   0.83329   0.00000  Uiso   1.00
C1336  C     0.84031   0.35471   0.87514   0.00000  Uiso   1.00
C1337  C     0.83330   0.62419   0.83338   0.00000  Uiso   1.00
C1338  C     0.83337   0.37581   0.83329   0.00000  Uiso   1.00
C1339  C     0.80062   0.52584   0.68651   0.00000  Uiso   1.00
C1340  C     0.86605   0.47416   0.98016   0.00000  Uiso   1.00
C1341  C     0.80065   0.52586   0.97186   0.00000  Uiso   1.00
C1342  C     0.86602   0.47414   0.69481   0.00000  Uiso   1.00
C1343  C     0.99093   0.53787   0.78059   0.00000  Uiso   1.00
C1344  C     0.97469   0.57755   0.79314   0.00000  Uiso   1.00
C1345  C     0.95240   0.60557   0.75953   0.00000  Uiso   1.00
C1346  C     0.83333   0.58005   0.83338   0.00000  Uiso   1.00
C1347  C     0.94629   0.59424   0.71326   0.00000  Uiso   1.00
C1348  C     0.96273   0.55497   0.70050   0.00000  Uiso   1.00
C1349  C     0.98511   0.52686   0.73399   0.00000  Uiso   1.00
C1350  C     0.67574   0.46213   0.88608   0.00000  Uiso   1.00
C1351  C     0.68156   0.47314   0.93268   0.00000  Uiso   1.00
C1352  C     0.70393   0.44503   0.96617   0.00000  Uiso   1.00
C1353  C     0.72038   0.40576   0.95341   0.00000  Uiso   1.00
C1354  C     0.71427   0.39443   0.90714   0.00000  Uiso   1.00
C1355  C     0.69198   0.42245   0.87353   0.00000  Uiso   1.00
C1356  C     0.73386   0.50054   0.82153   0.00000  Uiso   1.00
C1357  C     0.93281   0.49946   0.84514   0.00000  Uiso   1.00
C1358  C     0.67956   0.50726   0.81656   0.00000  Uiso   1.00
C1359  C     0.98711   0.49274   0.85011   0.00000  Uiso   1.00
C1360  C     0.82642   0.35456   0.79148   0.00000  Uiso   1.00
C1361  C     0.84025   0.64544   0.87519   0.00000  Uiso   1.00
C1362  C     0.82636   0.64529   0.79152   0.00000  Uiso   1.00
H1363  H     0.82081   0.37069   0.75888   0.00000  Uiso   1.00
H1364  H     0.93966   0.63599   0.76937   0.00000  Uiso   1.00
H1365  H     0.92877   0.61588   0.68729   0.00000  Uiso   1.00
H1366  H     0.95773   0.54619   0.99801   0.00000  Uiso   1.00
H1367  H     0.99696   0.49630   0.72375   0.00000  Uiso   1.00
H1368  H     0.66970   0.50370   0.94292   0.00000  Uiso   1.00
H1369  H     0.70892   0.45380   0.66866   0.00000  Uiso   1.00
H1370  H     0.73790   0.38412   0.97938   0.00000  Uiso   1.00
H1371  H     0.72701   0.36401   0.89730   0.00000  Uiso   1.00
H1372  H     0.68780   0.41346   0.83776   0.00000  Uiso   1.00
H1373  H     0.84586   0.62931   0.90779   0.00000  Uiso   1.00
H1374  H     0.82077   0.62904   0.75894   0.00000  Uiso   1.00
H1375  H     0.84590   0.37096   0.90773   0.00000  Uiso   1.00
H1376  H     0.77440   0.54643   0.70139   0.00000  Uiso   1.00
H1377  H     0.89227   0.45357   0.96528   0.00000  Uiso   1.00
H1378  H     0.77444   0.54646   0.95032   0.00000  Uiso   1.00
H1379  H     0.89223   0.45354   0.71635   0.00000  Uiso   1.00
H1380  H     0.97887   0.58654   0.82891   0.00000  Uiso   1.00
N1381  N     0.83332   0.49999   0.95240   0.00000  Uiso   1.00
N1382  N     0.83335   0.50001   0.71427   0.00000  Uiso   1.00
O1383  O     0.83333   0.43892   0.87154   0.00000  Uiso   1.00
O1384  O     0.83334   0.56108   0.79513   0.00000  Uiso   1.00
O1385  O     0.83333   0.43893   0.79510   0.00000  Uiso   1.00
O1386  O     0.83334   0.56107   0.87157   0.00000  Uiso   1.00
O1387  O     0.75725   0.50000   0.86261   0.00000  Uiso   1.00
O1388  O     0.90942   0.50000   0.80405   0.00000  Uiso   1.00
O1389  O     0.75725   0.50000   0.78617   0.00000  Uiso   1.00
O1390  O     0.90942   0.50000   0.88050   0.00000  Uiso   1.00
Zn1391 Zn    0.83333   0.49999   0.88437   0.00000  Uiso   1.00
Zn1392 Zn    0.83333   0.50001   0.78229   0.00000  Uiso   1.00
C1393  C     0.16667   0.75328   0.83329   0.00000  Uiso   1.00
C1394  C     0.17364   0.68804   0.87514   0.00000  Uiso   1.00
C1395  C     0.16663   0.95753   0.83338   0.00000  Uiso   1.00
C1396  C     0.16670   0.70914   0.83329   0.00000  Uiso   1.00
C1397  C     0.13395   0.85918   0.68651   0.00000  Uiso   1.00
C1398  C     0.19938   0.80749   0.98016   0.00000  Uiso   1.00
C1399  C     0.13398   0.85919   0.97186   0.00000  Uiso   1.00
C1400  C     0.19936   0.80747   0.69481   0.00000  Uiso   1.00
C1401  C     0.32426   0.87121   0.78059   0.00000  Uiso   1.00
C1402  C     0.30802   0.91088   0.79314   0.00000  Uiso   1.00
C1403  C     0.28573   0.93890   0.75953   0.00000  Uiso   1.00
C1404  C     0.16666   0.91339   0.83338   0.00000  Uiso   1.00
C1405  C     0.27962   0.92758   0.71326   0.00000  Uiso   1.00
C1406  C     0.29607   0.88830   0.70050   0.00000  Uiso   1.00
C1407  C     0.31844   0.86019   0.73399   0.00000  Uiso   1.00
C1408  C     0.00907   0.79546   0.88608   0.00000  Uiso   1.00
C1409  C     0.01489   0.80647   0.93268   0.00000  Uiso   1.00
C1410  C     0.03726   0.77836   0.96617   0.00000  Uiso   1.00
C1411  C     0.05371   0.73909   0.95341   0.00000  Uiso   1.00
C1412  C     0.04761   0.72777   0.90714   0.00000  Uiso   1.00
C1413  C     0.02532   0.75578   0.87353   0.00000  Uiso   1.00
C1414  C     0.06719   0.83387   0.82153   0.00000  Uiso   1.00
C1415  C     0.26614   0.83279   0.84514   0.00000  Uiso   1.00
C1416  C     0.01289   0.84059   0.81656   0.00000  Uiso   1.00
C1417  C     0.32044   0.82608   0.85011   0.00000  Uiso   1.00
C1418  C     0.15975   0.68789   0.79148   0.00000  Uiso   1.00
C1419  C     0.17358   0.97878   0.87519   0.00000  Uiso   1.00
C1420  C     0.15969   0.97863   0.79152   0.00000  Uiso   1.00
H1421  H     0.15414   0.70402   0.75888   0.00000  Uiso   1.00
H1422  H     0.27299   0.96933   0.76937   0.00000  Uiso   1.00
H1423  H     0.26210   0.94922   0.68729   0.00000  Uiso   1.00
H1424  H     0.29107   0.87953   0.99801   0.00000  Uiso   1.00
H1425  H     0.33029   0.82963   0.72375   0.00000  Uiso   1.00
H1426  H     0.00303   0.83703   0.94292   0.00000  Uiso   1.00
H1427  H     0.04226   0.78714   0.66866   0.00000  Uiso   1.00
H1428  H     0.07123   0.71745   0.97938   0.00000  Uiso   1.00
H1429  H     0.06034   0.69734   0.89730   0.00000  Uiso   1.00
H1430  H     0.02114   0.74679   0.83776   0.00000  Uiso   1.00
H1431  H     0.17919   0.96264   0.90779   0.00000  Uiso   1.00
H1432  H     0.15410   0.96238   0.75894   0.00000  Uiso   1.00
H1433  H     0.17923   0.70429   0.90773   0.00000  Uiso   1.00
H1434  H     0.10773   0.87976   0.70139   0.00000  Uiso   1.00
H1435  H     0.22560   0.78691   0.96528   0.00000  Uiso   1.00
H1436  H     0.10777   0.87979   0.95032   0.00000  Uiso   1.00
H1437  H     0.22556   0.78688   0.71635   0.00000  Uiso   1.00
H1438  H     0.31220   0.91987   0.82891   0.00000  Uiso   1.00
N1439  N     0.16665   0.83332   0.95240   0.00000  Uiso   1.00
N1440  N     0.16668   0.83334   0.71427   0.00000  Uiso   1.00
O1441  O     0.16666   0.77225   0.87154   0.00000  Uiso   1.00
O1442  O     0.16667   0.89442   0.79513   0.00000  Uiso   1.00
O1443  O     0.16666   0.77226   0.79510   0.00000  Uiso   1.00
O1444  O     0.16667   0.89441   0.87157   0.00000  Uiso   1.00
O1445  O     0.09058   0.83333   0.86261   0.00000  Uiso   1.00
O1446  O     0.24275   0.83334   0.80405   0.00000  Uiso   1.00
O1447  O     0.09058   0.83334   0.78617   0.00000  Uiso   1.00
O1448  O     0.24275   0.83333   0.88050   0.00000  Uiso   1.00
Zn1449 Zn    0.16667   0.83333   0.88437   0.00000  Uiso   1.00
Zn1450 Zn    0.16667   0.83334   0.78229   0.00000  Uiso   1.00
C1451  C     0.50001   0.75328   0.83329   0.00000  Uiso   1.00
C1452  C     0.50698   0.68804   0.87514   0.00000  Uiso   1.00
C1453  C     0.49997   0.95753   0.83338   0.00000  Uiso   1.00
C1454  C     0.50003   0.70914   0.83329   0.00000  Uiso   1.00
C1455  C     0.46728   0.85918   0.68651   0.00000  Uiso   1.00
C1456  C     0.53272   0.80749   0.98016   0.00000  Uiso   1.00
C1457  C     0.46731   0.85919   0.97186   0.00000  Uiso   1.00
C1458  C     0.53269   0.80747   0.69481   0.00000  Uiso   1.00
C1459  C     0.65760   0.87121   0.78059   0.00000  Uiso   1.00
C1460  C     0.64135   0.91088   0.79314   0.00000  Uiso   1.00
C1461  C     0.61906   0.93890   0.75953   0.00000  Uiso   1.00
C1462  C     0.49999   0.91339   0.83338   0.00000  Uiso   1.00
C1463  C     0.61295   0.92758   0.71326   0.00000  Uiso   1.00
C1464  C     0.62940   0.88830   0.70050   0.00000  Uiso   1.00
C1465  C     0.65177   0.86019   0.73399   0.00000  Uiso   1.00
C1466  C     0.34240   0.79546   0.88608   0.00000  Uiso   1.00
C1467  C     0.34822   0.80647   0.93268   0.00000  Uiso   1.00
C1468  C     0.37059   0.77836   0.96617   0.00000  Uiso   1.00
C1469  C     0.38704   0.73909   0.95341   0.00000  Uiso   1.00
C1470  C     0.38094   0.72777   0.90714   0.00000  Uiso   1.00
C1471  C     0.35865   0.75578   0.87353   0.00000  Uiso   1.00
C1472  C     0.40052   0.83387   0.82153   0.00000  Uiso   1.00
C1473  C     0.59948   0.83279   0.84514   0.00000  Uiso   1.00
C1474  C     0.34622   0.84059   0.81656   0.00000  Uiso   1.00
C1475  C     0.65378   0.82608   0.85011   0.00000  Uiso   1.00
C1476  C     0.49309   0.68789   0.79148   0.00000  Uiso   1.00
C1477  C     0.50692   0.97878   0.87519   0.00000  Uiso   1.00
C1478  C     0.49303   0.97863   0.79152   0.00000  Uiso   1.00
H1479  H     0.48748   0.70402   0.75888   0.00000  Uiso   1.00
H1480  H     0.60633   0.96933   0.76937   0.00000  Uiso   1.00
H1481  H     0.59543   0.94922   0.68729   0.00000  Uiso   1.00
H1482  H     0.62440   0.87953   0.99801   0.00000  Uiso   1.00
H1483  H     0.66363   0.82963   0.72375   0.00000  Uiso   1.00
H1484  H     0.33637   0.83703   0.94292   0.00000  Uiso   1.00
H1485  H     0.37559   0.78714   0.66866   0.00000  Uiso   1.00
H1486  H     0.40456   0.71745   0.97938   0.00000  Uiso   1.00
H1487  H     0.39368   0.69734   0.89730   0.00000  Uiso   1.00
H1488  H     0.35447   0.74679   0.83776   0.00000  Uiso   1.00
H1489  H     0.51252   0.96264   0.90779   0.00000  Uiso   1.00
H1490  H     0.48744   0.96238   0.75894   0.00000  Uiso   1.00
H1491  H     0.51257   0.70429   0.90773   0.00000  Uiso   1.00
H1492  H     0.44106   0.87976   0.70139   0.00000  Uiso   1.00
H1493  H     0.55894   0.78691   0.96528   0.00000  Uiso   1.00
H1494  H     0.44111   0.87979   0.95032   0.00000  Uiso   1.00
H1495  H     0.55889   0.78688   0.71635   0.00000  Uiso   1.00
H1496  H     0.64554   0.91987   0.82891   0.00000  Uiso   1.00
N1497  N     0.49999   0.83332   0.95240   0.00000  Uiso   1.00
N1498  N     0.50001   0.83334   0.71427   0.00000  Uiso   1.00
O1499  O     0.50000   0.77225   0.87154   0.00000  Uiso   1.00
O1500  O     0.50000   0.89442   0.79513   0.00000  Uiso   1.00
O1501  O     0.50000   0.77226   0.79510   0.00000  Uiso   1.00
O1502  O     0.50000   0.89441   0.87157   0.00000  Uiso   1.00
O1503  O     0.42392   0.83333   0.86261   0.00000  Uiso   1.00
O1504  O     0.57608   0.83334   0.80405   0.00000  Uiso   1.00
O1505  O     0.42392   0.83334   0.78617   0.00000  Uiso   1.00
O1506  O     0.57608   0.83333   0.88050   0.00000  Uiso   1.00
Zn1507 Zn    0.50000   0.83333   0.88437   0.00000  Uiso   1.00
Zn1508 Zn    0.50000   0.83334   0.78229   0.00000  Uiso   1.00
C1509  C     0.83334   0.75328   0.83329   0.00000  Uiso   1.00
C1510  C     0.84031   0.68804   0.87514   0.00000  Uiso   1.00
C1511  C     0.83330   0.95753   0.83338   0.00000  Uiso   1.00
C1512  C     0.83337   0.70914   0.83329   0.00000  Uiso   1.00
C1513  C     0.80062   0.85918   0.68651   0.00000  Uiso   1.00
C1514  C     0.86605   0.80749   0.98016   0.00000  Uiso   1.00
C1515  C     0.80065   0.85919   0.97186   0.00000  Uiso   1.00
C1516  C     0.86602   0.80747   0.69481   0.00000  Uiso   1.00
C1517  C     0.99093   0.87121   0.78059   0.00000  Uiso   1.00
C1518  C     0.97469   0.91088   0.79314   0.00000  Uiso   1.00
C1519  C     0.95240   0.93890   0.75953   0.00000  Uiso   1.00
C1520  C     0.83333   0.91339   0.83338   0.00000  Uiso   1.00
C1521  C     0.94629   0.92758   0.71326   0.00000  Uiso   1.00
C1522  C     0.96273   0.88830   0.70050   0.00000  Uiso   1.00
C1523  C     0.98511   0.86019   0.73399   0.00000  Uiso   1.00
C1524  C     0.67574   0.79546   0.88608   0.00000  Uiso   1.00
C1525  C     0.68156   0.80647   0.93268   0.00000  Uiso   1.00
C1526  C     0.70393   0.77836   0.96617   0.00000  Uiso   1.00
C1527  C     0.72038   0.73909   0.95341   0.00000  Uiso   1.00
C1528  C     0.71427   0.72777   0.90714   0.00000  Uiso   1.00
C1529  C     0.69198   0.75578   0.87353   0.00000  Uiso   1.00
C1530  C     0.73386   0.83387   0.82153   0.00000  Uiso   1.00
C1531  C     0.93281   0.83279   0.84514   0.00000  Uiso   1.00
C1532  C     0.67956   0.84059   0.81656   0.00000  Uiso   1.00
C1533  C     0.98711   0.82608   0.85011   0.00000  Uiso   1.00
C1534  C     0.82642   0.68789   0.79148   0.00000  Uiso   1.00
C1535  C     0.84025   0.97878   0.87519   0.00000  Uiso   1.00
C1536  C     0.82636   0.97863   0.79152   0.00000  Uiso   1.00
H1537  H     0.82081   0.70402   0.75888   0.00000  Uiso   1.00
H1538  H     0.93966   0.96933   0.76937   0.00000  Uiso   1.00
H1539  H     0.92877   0.94922   0.68729   0.00000  Uiso   1.00
H1540  H     0.95773   0.87953   0.99801   0.00000  Uiso   1.00
H1541  H     0.99696   0.82963   0.72375   0.00000  Uiso   1.00
H1542  H     0.66970   0.83703   0.94292   0.00000  Uiso   1.00
H1543  H     0.70892   0.78714   0.66866   0.00000  Uiso   1.00
H1544  H     0.73790   0.71745   0.97938   0.00000  Uiso   1.00
H1545  H     0.72701   0.69734   0.89730   0.00000  Uiso   1.00
H1546  H     0.68780   0.74679   0.83776   0.00000  Uiso   1.00
H1547  H     0.84586   0.96264   0.90779   0.00000  Uiso   1.00
H1548  H     0.82077   0.96238   0.75894   0.00000  Uiso   1.00
H1549  H     0.84590   0.70429   0.90773   0.00000  Uiso   1.00
H1550  H     0.77440   0.87976   0.70139   0.00000  Uiso   1.00
H1551  H     0.89227   0.78691   0.96528   0.00000  Uiso   1.00
H1552  H     0.77444   0.87979   0.95032   0.00000  Uiso   1.00
H1553  H     0.89223   0.78688   0.71635   0.00000  Uiso   1.00
H1554  H     0.97887   0.91987   0.82891   0.00000  Uiso   1.00
N1555  N     0.83332   0.83332   0.95240   0.00000  Uiso   1.00
N1556  N     0.83335   0.83334   0.71427   0.00000  Uiso   1.00
O1557  O     0.83333   0.77225   0.87154   0.00000  Uiso   1.00
O1558  O     0.83334   0.89442   0.79513   0.00000  Uiso   1.00
O1559  O     0.83333   0.77226   0.79510   0.00000  Uiso   1.00
O1560  O     0.83334   0.89441   0.87157   0.00000  Uiso   1.00
O1561  O     0.75725   0.83333   0.86261   0.00000  Uiso   1.00
O1562  O     0.90942   0.83334   0.80405   0.00000  Uiso   1.00
O1563  O     0.75725   0.83334   0.78617   0.00000  Uiso   1.00
O1564  O     0.90942   0.83333   0.88050   0.00000  Uiso   1.00
Zn1565 Zn    0.83333   0.83333   0.88437   0.00000  Uiso   1.00
Zn1566 Zn    0.83333   0.83334   0.78229   0.00000  Uiso   1.00
loop_
_geom_bond_atom_site_label_1
_geom_bond_atom_site_label_2
_geom_bond_distance
_geom_bond_site_symmetry_2
_ccdc_geom_bond_type
C1     C4      1.419   .     S
C1     O51     1.282   .     A
C1     O49     1.281   .     A
C2     C4      1.397   .     A
C2     H41     1.084   .     S
C2     C375    1.369   1_545 S
C3     C27     1.397   .     A
C3     C28     1.397   .     A
C3     C12     1.419   .     S
C4     C26     1.397   .     A
C5     H42     1.082   .     S
C5     N48     1.366   .     A
C5     C1051   1.415   1_554 S
C6     H43     1.082   .     S
C6     N47     1.366   .     A
C6     C530    1.415   .     S
C7     H44     1.082   .     S
C7     N47     1.366   .     A
C7     C527    1.415   .     S
C8     N48     1.366   .     A
C8     H45     1.082   .     S
C8     C1050   1.415   1_554 S
C9     C10     1.406   .     A
C9     C15     1.405   .     A
C9     C82     1.495   .     S
C10    H46     1.083   .     S
C10    C11     1.398   .     A
C11    C13     1.398   .     A
C11    H30     1.082   .     S
C12    O52     1.282   .     A
C12    O50     1.281   .     A
C13    H31     1.082   .     S
C13    C14     1.398   .     A
C14    C15     1.398   .     A
C14    H1076   1.082   1_554 S
C15    H33     1.083   .     S
C16    C21     1.406   .     A
C16    C17     1.405   .     A
C16    C141    1.495   1_455 S
C17    C18     1.398   .     A
C17    H34     1.083   .     S
C18    C19     1.398   .     A
C18    H557    1.082   .     S
C19    C20     1.398   .     A
C19    H36     1.082   .     S
C20    H37     1.082   .     S
C20    C21     1.398   .     A
C21    H38     1.083   .     S
C22    O55     1.280   .     A
C22    O53     1.272   .     A
C22    C24     1.405   .     S
C23    O56     1.280   .     A
C23    O54     1.272   .     A
C23    C25     1.405   .     S
C24    C125    1.495   1_455 S
C24    C141    1.357   1_455 S
C25    C74     1.495   .     S
C25    C82     1.357   .     S
C26    H29     1.084   .     S
C26    C376    1.369   1_545 S
C27    H39     1.084   .     S
C27    C176    1.369   .     S
C28    H40     1.084   .     S
C28    C200    1.369   .     S
H32    C536    1.082   .     S
H35    C1062   1.082   1_554 S
N47    Zn57    2.006   .     S
N48    Zn58    2.006   .     S
O49    Zn57    1.998   .     S
O50    Zn58    1.998   .     S
O51    Zn58    2.000   .     S
O52    Zn57    2.000   .     S
O53    Zn57    1.977   .     S
O54    Zn58    1.977   .     S
O55    Zn58    1.987   .     S
O56    Zn57    1.987   .     S
C59    C62     1.419   .     S
C59    O109    1.282   .     A
C59    O107    1.281   .     A
C60    C62     1.397   .     A
C60    H99     1.084   .     S
C60    C433    1.369   1_545 S
C61    C85     1.397   .     A
C61    C86     1.397   .     A
C61    C70     1.419   .     S
C62    C84     1.397   .     A
C63    H100    1.082   .     S
C63    N106    1.366   .     A
C63    C1109   1.415   1_554 S
C64    H101    1.082   .     S
C64    N105    1.366   .     A
C64    C588    1.415   .     S
C65    H102    1.082   .     S
C65    N105    1.366   .     A
C65    C585    1.415   .     S
C66    N106    1.366   .     A
C66    H103    1.082   .     S
C66    C1108   1.415   1_554 S
C67    C68     1.406   .     A
C67    C73     1.405   .     A
C67    C140    1.495   .     S
C68    H104    1.083   .     S
C68    C69     1.398   .     A
C69    C71     1.398   .     A
C69    H88     1.082   .     S
C70    O110    1.282   .     A
C70    O108    1.281   .     A
C71    H89     1.082   .     S
C71    C72     1.398   .     A
C72    C73     1.398   .     A
C72    H1134   1.082   1_554 S
C73    H91     1.083   .     S
C74    C79     1.406   .     A
C74    C75     1.405   .     A
C75    C76     1.398   .     A
C75    H92     1.083   .     S
C76    C77     1.398   .     A
C76    H615    1.082   .     S
C77    C78     1.398   .     A
C77    H94     1.082   .     S
C78    H95     1.082   .     S
C78    C79     1.398   .     A
C79    H96     1.083   .     S
C80    O113    1.280   .     A
C80    O111    1.272   .     A
C80    C82     1.405   .     S
C81    O114    1.280   .     A
C81    O112    1.272   .     A
C81    C83     1.405   .     S
C83    C132    1.495   .     S
C83    C140    1.357   .     S
C84    H87     1.084   .     S
C84    C434    1.369   1_545 S
C85    H97     1.084   .     S
C85    C234    1.369   .     S
C86    H98     1.084   .     S
C86    C258    1.369   .     S
H90    C594    1.082   .     S
H93    C1120   1.082   1_554 S
N105   Zn115   2.006   .     S
N106   Zn116   2.006   .     S
O107   Zn115   1.998   .     S
O108   Zn116   1.998   .     S
O109   Zn116   2.000   .     S
O110   Zn115   2.000   .     S
O111   Zn115   1.977   .     S
O112   Zn116   1.977   .     S
O113   Zn116   1.987   .     S
O114   Zn115   1.987   .     S
C117   C120    1.419   .     S
C117   O167    1.282   .     A
C117   O165    1.281   .     A
C118   C120    1.397   .     A
C118   H157    1.084   .     S
C118   C491    1.369   1_545 S
C119   C143    1.397   .     A
C119   C144    1.397   .     A
C119   C128    1.419   .     S
C120   C142    1.397   .     A
C121   H158    1.082   .     S
C121   N164    1.366   .     A
C121   C1167   1.415   1_554 S
C122   H159    1.082   .     S
C122   N163    1.366   .     A
C122   C646    1.415   .     S
C123   H160    1.082   .     S
C123   N163    1.366   .     A
C123   C643    1.415   .     S
C124   N164    1.366   .     A
C124   H161    1.082   .     S
C124   C1166   1.415   1_554 S
C125   C126    1.406   .     A
C125   C131    1.405   .     A
C125   C24     1.495   1_655 S
C126   H162    1.083   .     S
C126   C127    1.398   .     A
C127   C129    1.398   .     A
C127   H146    1.082   .     S
C128   O168    1.282   .     A
C128   O166    1.281   .     A
C129   H147    1.082   .     S
C129   C130    1.398   .     A
C130   C131    1.398   .     A
C130   H1192   1.082   1_554 S
C131   H149    1.083   .     S
C132   C137    1.406   .     A
C132   C133    1.405   .     A
C133   C134    1.398   .     A
C133   H150    1.083   .     S
C134   C135    1.398   .     A
C134   H673    1.082   .     S
C135   C136    1.398   .     A
C135   H152    1.082   .     S
C136   H153    1.082   .     S
C136   C137    1.398   .     A
C137   H154    1.083   .     S
C138   O171    1.280   .     A
C138   O169    1.272   .     A
C138   C140    1.405   .     S
C139   O172    1.280   .     A
C139   O170    1.272   .     A
C139   C141    1.405   .     S
C141   C16     1.495   1_655 S
C141   C24     1.357   1_655 S
C142   H145    1.084   .     S
C142   C492    1.369   1_545 S
C143   H155    1.084   .     S
C143   C292    1.369   .     S
C144   H156    1.084   .     S
C144   C316    1.369   .     S
H148   C652    1.082   .     S
H151   C1178   1.082   1_554 S
N163   Zn173   2.006   .     S
N164   Zn174   2.006   .     S
O165   Zn173   1.998   .     S
O166   Zn174   1.998   .     S
O167   Zn174   2.000   .     S
O168   Zn173   2.000   .     S
O169   Zn173   1.977   .     S
O170   Zn174   1.977   .     S
O171   Zn174   1.987   .     S
O172   Zn173   1.987   .     S
C175   C178    1.419   .     S
C175   O225    1.282   .     A
C175   O223    1.281   .     A
C176   C178    1.397   .     A
C176   H215    1.084   .     S
C177   C201    1.397   .     A
C177   C202    1.397   .     A
C177   C186    1.419   .     S
C178   C200    1.397   .     A
C179   H216    1.082   .     S
C179   N222    1.366   .     A
C179   C1225   1.415   1_554 S
C180   H217    1.082   .     S
C180   N221    1.366   .     A
C180   C704    1.415   .     S
C181   H218    1.082   .     S
C181   N221    1.366   .     A
C181   C701    1.415   .     S
C182   N222    1.366   .     A
C182   H219    1.082   .     S
C182   C1224   1.415   1_554 S
C183   C184    1.406   .     A
C183   C189    1.405   .     A
C183   C256    1.495   .     S
C184   H220    1.083   .     S
C184   C185    1.398   .     A
C185   C187    1.398   .     A
C185   H204    1.082   .     S
C186   O226    1.282   .     A
C186   O224    1.281   .     A
C187   H205    1.082   .     S
C187   C188    1.398   .     A
C188   C189    1.398   .     A
C188   H1250   1.082   1_554 S
C189   H207    1.083   .     S
C190   C195    1.406   .     A
C190   C191    1.405   .     A
C190   C315    1.495   1_455 S
C191   C192    1.398   .     A
C191   H208    1.083   .     S
C192   C193    1.398   .     A
C192   H731    1.082   .     S
C193   C194    1.398   .     A
C193   H210    1.082   .     S
C194   H211    1.082   .     S
C194   C195    1.398   .     A
C195   H212    1.083   .     S
C196   O229    1.280   .     A
C196   O227    1.272   .     A
C196   C198    1.405   .     S
C197   O230    1.280   .     A
C197   O228    1.272   .     A
C197   C199    1.405   .     S
C198   C299    1.495   1_455 S
C198   C315    1.357   1_455 S
C199   C248    1.495   .     S
C199   C256    1.357   .     S
C200   H203    1.084   .     S
C201   H213    1.084   .     S
C201   C350    1.369   .     S
C202   H214    1.084   .     S
C202   C374    1.369   .     S
H206   C710    1.082   .     S
H209   C1236   1.082   1_554 S
N221   Zn231   2.006   .     S
N222   Zn232   2.006   .     S
O223   Zn231   1.998   .     S
O224   Zn232   1.998   .     S
O225   Zn232   2.000   .     S
O226   Zn231   2.000   .     S
O227   Zn231   1.977   .     S
O228   Zn232   1.977   .     S
O229   Zn232   1.987   .     S
O230   Zn231   1.987   .     S
C233   C236    1.419   .     S
C233   O283    1.282   .     A
C233   O281    1.281   .     A
C234   C236    1.397   .     A
C234   H273    1.084   .     S
C235   C259    1.397   .     A
C235   C260    1.397   .     A
C235   C244    1.419   .     S
C236   C258    1.397   .     A
C237   H274    1.082   .     S
C237   N280    1.366   .     A
C237   C1283   1.415   1_554 S
C238   H275    1.082   .     S
C238   N279    1.366   .     A
C238   C762    1.415   .     S
C239   H276    1.082   .     S
C239   N279    1.366   .     A
C239   C759    1.415   .     S
C240   N280    1.366   .     A
C240   H277    1.082   .     S
C240   C1282   1.415   1_554 S
C241   C242    1.406   .     A
C241   C247    1.405   .     A
C241   C314    1.495   .     S
C242   H278    1.083   .     S
C242   C243    1.398   .     A
C243   C245    1.398   .     A
C243   H262    1.082   .     S
C244   O284    1.282   .     A
C244   O282    1.281   .     A
C245   H263    1.082   .     S
C245   C246    1.398   .     A
C246   C247    1.398   .     A
C246   H1308   1.082   1_554 S
C247   H265    1.083   .     S
C248   C253    1.406   .     A
C248   C249    1.405   .     A
C249   C250    1.398   .     A
C249   H266    1.083   .     S
C250   C251    1.398   .     A
C250   H789    1.082   .     S
C251   C252    1.398   .     A
C251   H268    1.082   .     S
C252   H269    1.082   .     S
C252   C253    1.398   .     A
C253   H270    1.083   .     S
C254   O287    1.280   .     A
C254   O285    1.272   .     A
C254   C256    1.405   .     S
C255   O288    1.280   .     A
C255   O286    1.272   .     A
C255   C257    1.405   .     S
C257   C306    1.495   .     S
C257   C314    1.357   .     S
C258   H261    1.084   .     S
C259   H271    1.084   .     S
C259   C408    1.369   .     S
C260   H272    1.084   .     S
C260   C432    1.369   .     S
H264   C768    1.082   .     S
H267   C1294   1.082   1_554 S
N279   Zn289   2.006   .     S
N280   Zn290   2.006   .     S
O281   Zn289   1.998   .     S
O282   Zn290   1.998   .     S
O283   Zn290   2.000   .     S
O284   Zn289   2.000   .     S
O285   Zn289   1.977   .     S
O286   Zn290   1.977   .     S
O287   Zn290   1.987   .     S
O288   Zn289   1.987   .     S
C291   C294    1.419   .     S
C291   O341    1.282   .     A
C291   O339    1.281   .     A
C292   C294    1.397   .     A
C292   H331    1.084   .     S
C293   C317    1.397   .     A
C293   C318    1.397   .     A
C293   C302    1.419   .     S
C294   C316    1.397   .     A
C295   H332    1.082   .     S
C295   N338    1.366   .     A
C295   C1341   1.415   1_554 S
C296   H333    1.082   .     S
C296   N337    1.366   .     A
C296   C820    1.415   .     S
C297   H334    1.082   .     S
C297   N337    1.366   .     A
C297   C817    1.415   .     S
C298   N338    1.366   .     A
C298   H335    1.082   .     S
C298   C1340   1.415   1_554 S
C299   C300    1.406   .     A
C299   C305    1.405   .     A
C299   C198    1.495   1_655 S
C300   H336    1.083   .     S
C300   C301    1.398   .     A
C301   C303    1.398   .     A
C301   H320    1.082   .     S
C302   O342    1.282   .     A
C302   O340    1.281   .     A
C303   H321    1.082   .     S
C303   C304    1.398   .     A
C304   C305    1.398   .     A
C304   H1366   1.082   1_554 S
C305   H323    1.083   .     S
C306   C311    1.406   .     A
C306   C307    1.405   .     A
C307   C308    1.398   .     A
C307   H324    1.083   .     S
C308   C309    1.398   .     A
C308   H847    1.082   .     S
C309   C310    1.398   .     A
C309   H326    1.082   .     S
C310   H327    1.082   .     S
C310   C311    1.398   .     A
C311   H328    1.083   .     S
C312   O345    1.280   .     A
C312   O343    1.272   .     A
C312   C314    1.405   .     S
C313   O346    1.280   .     A
C313   O344    1.272   .     A
C313   C315    1.405   .     S
C315   C190    1.495   1_655 S
C315   C198    1.357   1_655 S
C316   H319    1.084   .     S
C317   H329    1.084   .     S
C317   C466    1.369   .     S
C318   H330    1.084   .     S
C318   C490    1.369   .     S
H322   C826    1.082   .     S
H325   C1352   1.082   1_554 S
N337   Zn347   2.006   .     S
N338   Zn348   2.006   .     S
O339   Zn347   1.998   .     S
O340   Zn348   1.998   .     S
O341   Zn348   2.000   .     S
O342   Zn347   2.000   .     S
O343   Zn347   1.977   .     S
O344   Zn348   1.977   .     S
O345   Zn348   1.987   .     S
O346   Zn347   1.987   .     S
C349   C352    1.419   .     S
C349   O399    1.282   .     A
C349   O397    1.281   .     A
C350   C352    1.397   .     A
C350   H389    1.084   .     S
C351   C375    1.397   .     A
C351   C376    1.397   .     A
C351   C360    1.419   .     S
C352   C374    1.397   .     A
C353   H390    1.082   .     S
C353   N396    1.366   .     A
C353   C1399   1.415   1_554 S
C354   H391    1.082   .     S
C354   N395    1.366   .     A
C354   C878    1.415   .     S
C355   H392    1.082   .     S
C355   N395    1.366   .     A
C355   C875    1.415   .     S
C356   N396    1.366   .     A
C356   H393    1.082   .     S
C356   C1398   1.415   1_554 S
C357   C358    1.406   .     A
C357   C363    1.405   .     A
C357   C430    1.495   .     S
C358   H394    1.083   .     S
C358   C359    1.398   .     A
C359   C361    1.398   .     A
C359   H378    1.082   .     S
C360   O400    1.282   .     A
C360   O398    1.281   .     A
C361   H379    1.082   .     S
C361   C362    1.398   .     A
C362   C363    1.398   .     A
C362   H1424   1.082   1_554 S
C363   H381    1.083   .     S
C364   C369    1.406   .     A
C364   C365    1.405   .     A
C364   C489    1.495   1_455 S
C365   C366    1.398   .     A
C365   H382    1.083   .     S
C366   C367    1.398   .     A
C366   H905    1.082   .     S
C367   C368    1.398   .     A
C367   H384    1.082   .     S
C368   H385    1.082   .     S
C368   C369    1.398   .     A
C369   H386    1.083   .     S
C370   O403    1.280   .     A
C370   O401    1.272   .     A
C370   C372    1.405   .     S
C371   O404    1.280   .     A
C371   O402    1.272   .     A
C371   C373    1.405   .     S
C372   C473    1.495   1_455 S
C372   C489    1.357   1_455 S
C373   C422    1.495   .     S
C373   C430    1.357   .     S
C374   H377    1.084   .     S
C375   H387    1.084   .     S
C375   C2      1.369   1_565 S
C376   H388    1.084   .     S
C376   C26     1.369   1_565 S
H380   C884    1.082   .     S
H383   C1410   1.082   1_554 S
N395   Zn405   2.006   .     S
N396   Zn406   2.006   .     S
O397   Zn405   1.998   .     S
O398   Zn406   1.998   .     S
O399   Zn406   2.000   .     S
O400   Zn405   2.000   .     S
O401   Zn405   1.977   .     S
O402   Zn406   1.977   .     S
O403   Zn406   1.987   .     S
O404   Zn405   1.987   .     S
C407   C410    1.419   .     S
C407   O457    1.282   .     A
C407   O455    1.281   .     A
C408   C410    1.397   .     A
C408   H447    1.084   .     S
C409   C433    1.397   .     A
C409   C434    1.397   .     A
C409   C418    1.419   .     S
C410   C432    1.397   .     A
C411   H448    1.082   .     S
C411   N454    1.366   .     A
C411   C1457   1.415   1_554 S
C412   H449    1.082   .     S
C412   N453    1.366   .     A
C412   C936    1.415   .     S
C413   H450    1.082   .     S
C413   N453    1.366   .     A
C413   C933    1.415   .     S
C414   N454    1.366   .     A
C414   H451    1.082   .     S
C414   C1456   1.415   1_554 S
C415   C416    1.406   .     A
C415   C421    1.405   .     A
C415   C488    1.495   .     S
C416   H452    1.083   .     S
C416   C417    1.398   .     A
C417   C419    1.398   .     A
C417   H436    1.082   .     S
C418   O458    1.282   .     A
C418   O456    1.281   .     A
C419   H437    1.082   .     S
C419   C420    1.398   .     A
C420   C421    1.398   .     A
C420   H1482   1.082   1_554 S
C421   H439    1.083   .     S
C422   C427    1.406   .     A
C422   C423    1.405   .     A
C423   C424    1.398   .     A
C423   H440    1.083   .     S
C424   C425    1.398   .     A
C424   H963    1.082   .     S
C425   C426    1.398   .     A
C425   H442    1.082   .     S
C426   H443    1.082   .     S
C426   C427    1.398   .     A
C427   H444    1.083   .     S
C428   O461    1.280   .     A
C428   O459    1.272   .     A
C428   C430    1.405   .     S
C429   O462    1.280   .     A
C429   O460    1.272   .     A
C429   C431    1.405   .     S
C431   C480    1.495   .     S
C431   C488    1.357   .     S
C432   H435    1.084   .     S
C433   H445    1.084   .     S
C433   C60     1.369   1_565 S
C434   H446    1.084   .     S
C434   C84     1.369   1_565 S
H438   C942    1.082   .     S
H441   C1468   1.082   1_554 S
N453   Zn463   2.006   .     S
N454   Zn464   2.006   .     S
O455   Zn463   1.998   .     S
O456   Zn464   1.998   .     S
O457   Zn464   2.000   .     S
O458   Zn463   2.000   .     S
O459   Zn463   1.977   .     S
O460   Zn464   1.977   .     S
O461   Zn464   1.987   .     S
O462   Zn463   1.987   .     S
C465   C468    1.419   .     S
C465   O515    1.282   .     A
C465   O513    1.281   .     A
C466   C468    1.397   .     A
C466   H505    1.084   .     S
C467   C491    1.397   .     A
C467   C492    1.397   .     A
C467   C476    1.419   .     S
C468   C490    1.397   .     A
C469   H506    1.082   .     S
C469   N512    1.366   .     A
C469   C1515   1.415   1_554 S
C470   H507    1.082   .     S
C470   N511    1.366   .     A
C470   C994    1.415   .     S
C471   H508    1.082   .     S
C471   N511    1.366   .     A
C471   C991    1.415   .     S
C472   N512    1.366   .     A
C472   H509    1.082   .     S
C472   C1514   1.415   1_554 S
C473   C474    1.406   .     A
C473   C479    1.405   .     A
C473   C372    1.495   1_655 S
C474   H510    1.083   .     S
C474   C475    1.398   .     A
C475   C477    1.398   .     A
C475   H494    1.082   .     S
C476   O516    1.282   .     A
C476   O514    1.281   .     A
C477   H495    1.082   .     S
C477   C478    1.398   .     A
C478   C479    1.398   .     A
C478   H1540   1.082   1_554 S
C479   H497    1.083   .     S
C480   C485    1.406   .     A
C480   C481    1.405   .     A
C481   C482    1.398   .     A
C481   H498    1.083   .     S
C482   C483    1.398   .     A
C482   H1021   1.082   .     S
C483   C484    1.398   .     A
C483   H500    1.082   .     S
C484   H501    1.082   .     S
C484   C485    1.398   .     A
C485   H502    1.083   .     S
C486   O519    1.280   .     A
C486   O517    1.272   .     A
C486   C488    1.405   .     S
C487   O520    1.280   .     A
C487   O518    1.272   .     A
C487   C489    1.405   .     S
C489   C364    1.495   1_655 S
C489   C372    1.357   1_655 S
C490   H493    1.084   .     S
C491   H503    1.084   .     S
C491   C118    1.369   1_565 S
C492   H504    1.084   .     S
C492   C142    1.369   1_565 S
H496   C1000   1.082   .     S
H499   C1526   1.082   1_554 S
N511   Zn521   2.006   .     S
N512   Zn522   2.006   .     S
O513   Zn521   1.998   .     S
O514   Zn522   1.998   .     S
O515   Zn522   2.000   .     S
O516   Zn521   2.000   .     S
O517   Zn521   1.977   .     S
O518   Zn522   1.977   .     S
O519   Zn522   1.987   .     S
O520   Zn521   1.987   .     S
C523   C526    1.419   .     S
C523   O573    1.282   .     A
C523   O571    1.281   .     A
C524   C526    1.397   .     A
C524   H563    1.084   .     S
C524   C897    1.369   1_545 S
C525   C549    1.397   .     A
C525   C550    1.397   .     A
C525   C534    1.419   .     S
C526   C548    1.397   .     A
C527   H564    1.082   .     S
C527   N570    1.366   .     A
C528   H565    1.082   .     S
C528   N569    1.366   .     A
C528   C1052   1.415   .     S
C529   H566    1.082   .     S
C529   N569    1.366   .     A
C529   C1049   1.415   .     S
C530   N570    1.366   .     A
C530   H567    1.082   .     S
C531   C532    1.406   .     A
C531   C537    1.405   .     A
C531   C604    1.495   .     S
C532   H568    1.083   .     S
C532   C533    1.398   .     A
C533   C535    1.398   .     A
C533   H552    1.082   .     S
C534   O574    1.282   .     A
C534   O572    1.281   .     A
C535   H553    1.082   .     S
C535   C536    1.398   .     A
C536   C537    1.398   .     A
C537   H555    1.083   .     S
C538   C543    1.406   .     A
C538   C539    1.405   .     A
C538   C663    1.495   1_455 S
C539   C540    1.398   .     A
C539   H556    1.083   .     S
C540   C541    1.398   .     A
C540   H1079   1.082   .     S
C541   C542    1.398   .     A
C541   H558    1.082   .     S
C542   H559    1.082   .     S
C542   C543    1.398   .     A
C543   H560    1.083   .     S
C544   O577    1.280   .     A
C544   O575    1.272   .     A
C544   C546    1.405   .     S
C545   O578    1.280   .     A
C545   O576    1.272   .     A
C545   C547    1.405   .     S
C546   C647    1.495   1_455 S
C546   C663    1.357   1_455 S
C547   C596    1.495   .     S
C547   C604    1.357   .     S
C548   H551    1.084   .     S
C548   C898    1.369   1_545 S
C549   H561    1.084   .     S
C549   C698    1.369   .     S
C550   H562    1.084   .     S
C550   C722    1.369   .     S
H554   C1058   1.082   .     S
N569   Zn579   2.006   .     S
N570   Zn580   2.006   .     S
O571   Zn579   1.998   .     S
O572   Zn580   1.998   .     S
O573   Zn580   2.000   .     S
O574   Zn579   2.000   .     S
O575   Zn579   1.977   .     S
O576   Zn580   1.977   .     S
O577   Zn580   1.987   .     S
O578   Zn579   1.987   .     S
C581   C584    1.419   .     S
C581   O631    1.282   .     A
C581   O629    1.281   .     A
C582   C584    1.397   .     A
C582   H621    1.084   .     S
C582   C955    1.369   1_545 S
C583   C607    1.397   .     A
C583   C608    1.397   .     A
C583   C592    1.419   .     S
C584   C606    1.397   .     A
C585   H622    1.082   .     S
C585   N628    1.366   .     A
C586   H623    1.082   .     S
C586   N627    1.366   .     A
C586   C1110   1.415   .     S
C587   H624    1.082   .     S
C587   N627    1.366   .     A
C587   C1107   1.415   .     S
C588   N628    1.366   .     A
C588   H625    1.082   .     S
C589   C590    1.406   .     A
C589   C595    1.405   .     A
C589   C662    1.495   .     S
C590   H626    1.083   .     S
C590   C591    1.398   .     A
C591   C593    1.398   .     A
C591   H610    1.082   .     S
C592   O632    1.282   .     A
C592   O630    1.281   .     A
C593   H611    1.082   .     S
C593   C594    1.398   .     A
C594   C595    1.398   .     A
C595   H613    1.083   .     S
C596   C601    1.406   .     A
C596   C597    1.405   .     A
C597   C598    1.398   .     A
C597   H614    1.083   .     S
C598   C599    1.398   .     A
C598   H1137   1.082   .     S
C599   C600    1.398   .     A
C599   H616    1.082   .     S
C600   H617    1.082   .     S
C600   C601    1.398   .     A
C601   H618    1.083   .     S
C602   O635    1.280   .     A
C602   O633    1.272   .     A
C602   C604    1.405   .     S
C603   O636    1.280   .     A
C603   O634    1.272   .     A
C603   C605    1.405   .     S
C605   C654    1.495   .     S
C605   C662    1.357   .     S
C606   H609    1.084   .     S
C606   C956    1.369   1_545 S
C607   H619    1.084   .     S
C607   C756    1.369   .     S
C608   H620    1.084   .     S
C608   C780    1.369   .     S
H612   C1116   1.082   .     S
N627   Zn637   2.006   .     S
N628   Zn638   2.006   .     S
O629   Zn637   1.998   .     S
O630   Zn638   1.998   .     S
O631   Zn638   2.000   .     S
O632   Zn637   2.000   .     S
O633   Zn637   1.977   .     S
O634   Zn638   1.977   .     S
O635   Zn638   1.987   .     S
O636   Zn637   1.987   .     S
C639   C642    1.419   .     S
C639   O689    1.282   .     A
C639   O687    1.281   .     A
C640   C642    1.397   .     A
C640   H679    1.084   .     S
C640   C1013   1.369   1_545 S
C641   C665    1.397   .     A
C641   C666    1.397   .     A
C641   C650    1.419   .     S
C642   C664    1.397   .     A
C643   H680    1.082   .     S
C643   N686    1.366   .     A
C644   H681    1.082   .     S
C644   N685    1.366   .     A
C644   C1168   1.415   .     S
C645   H682    1.082   .     S
C645   N685    1.366   .     A
C645   C1165   1.415   .     S
C646   N686    1.366   .     A
C646   H683    1.082   .     S
C647   C648    1.406   .     A
C647   C653    1.405   .     A
C647   C546    1.495   1_655 S
C648   H684    1.083   .     S
C648   C649    1.398   .     A
C649   C651    1.398   .     A
C649   H668    1.082   .     S
C650   O690    1.282   .     A
C650   O688    1.281   .     A
C651   H669    1.082   .     S
C651   C652    1.398   .     A
C652   C653    1.398   .     A
C653   H671    1.083   .     S
C654   C659    1.406   .     A
C654   C655    1.405   .     A
C655   C656    1.398   .     A
C655   H672    1.083   .     S
C656   C657    1.398   .     A
C656   H1195   1.082   .     S
C657   C658    1.398   .     A
C657   H674    1.082   .     S
C658   H675    1.082   .     S
C658   C659    1.398   .     A
C659   H676    1.083   .     S
C660   O693    1.280   .     A
C660   O691    1.272   .     A
C660   C662    1.405   .     S
C661   O694    1.280   .     A
C661   O692    1.272   .     A
C661   C663    1.405   .     S
C663   C538    1.495   1_655 S
C663   C546    1.357   1_655 S
C664   H667    1.084   .     S
C664   C1014   1.369   1_545 S
C665   H677    1.084   .     S
C665   C814    1.369   .     S
C666   H678    1.084   .     S
C666   C838    1.369   .     S
H670   C1174   1.082   .     S
N685   Zn695   2.006   .     S
N686   Zn696   2.006   .     S
O687   Zn695   1.998   .     S
O688   Zn696   1.998   .     S
O689   Zn696   2.000   .     S
O690   Zn695   2.000   .     S
O691   Zn695   1.977   .     S
O692   Zn696   1.977   .     S
O693   Zn696   1.987   .     S
O694   Zn695   1.987   .     S
C697   C700    1.419   .     S
C697   O747    1.282   .     A
C697   O745    1.281   .     A
C698   C700    1.397   .     A
C698   H737    1.084   .     S
C699   C723    1.397   .     A
C699   C724    1.397   .     A
C699   C708    1.419   .     S
C700   C722    1.397   .     A
C701   H738    1.082   .     S
C701   N744    1.366   .     A
C702   H739    1.082   .     S
C702   N743    1.366   .     A
C702   C1226   1.415   .     S
C703   H740    1.082   .     S
C703   N743    1.366   .     A
C703   C1223   1.415   .     S
C704   N744    1.366   .     A
C704   H741    1.082   .     S
C705   C706    1.406   .     A
C705   C711    1.405   .     A
C705   C778    1.495   .     S
C706   H742    1.083   .     S
C706   C707    1.398   .     A
C707   C709    1.398   .     A
C707   H726    1.082   .     S
C708   O748    1.282   .     A
C708   O746    1.281   .     A
C709   H727    1.082   .     S
C709   C710    1.398   .     A
C710   C711    1.398   .     A
C711   H729    1.083   .     S
C712   C717    1.406   .     A
C712   C713    1.405   .     A
C712   C837    1.495   1_455 S
C713   C714    1.398   .     A
C713   H730    1.083   .     S
C714   C715    1.398   .     A
C714   H1253   1.082   .     S
C715   C716    1.398   .     A
C715   H732    1.082   .     S
C716   H733    1.082   .     S
C716   C717    1.398   .     A
C717   H734    1.083   .     S
C718   O751    1.280   .     A
C718   O749    1.272   .     A
C718   C720    1.405   .     S
C719   O752    1.280   .     A
C719   O750    1.272   .     A
C719   C721    1.405   .     S
C720   C821    1.495   1_455 S
C720   C837    1.357   1_455 S
C721   C770    1.495   .     S
C721   C778    1.357   .     S
C722   H725    1.084   .     S
C723   H735    1.084   .     S
C723   C872    1.369   .     S
C724   H736    1.084   .     S
C724   C896    1.369   .     S
H728   C1232   1.082   .     S
N743   Zn753   2.006   .     S
N744   Zn754   2.006   .     S
O745   Zn753   1.998   .     S
O746   Zn754   1.998   .     S
O747   Zn754   2.000   .     S
O748   Zn753   2.000   .     S
O749   Zn753   1.977   .     S
O750   Zn754   1.977   .     S
O751   Zn754   1.987   .     S
O752   Zn753   1.987   .     S
C755   C758    1.419   .     S
C755   O805    1.282   .     A
C755   O803    1.281   .     A
C756   C758    1.397   .     A
C756   H795    1.084   .     S
C757   C781    1.397   .     A
C757   C782    1.397   .     A
C757   C766    1.419   .     S
C758   C780    1.397   .     A
C759   H796    1.082   .     S
C759   N802    1.366   .     A
C760   H797    1.082   .     S
C760   N801    1.366   .     A
C760   C1284   1.415   .     S
C761   H798    1.082   .     S
C761   N801    1.366   .     A
C761   C1281   1.415   .     S
C762   N802    1.366   .     A
C762   H799    1.082   .     S
C763   C764    1.406   .     A
C763   C769    1.405   .     A
C763   C836    1.495   .     S
C764   H800    1.083   .     S
C764   C765    1.398   .     A
C765   C767    1.398   .     A
C765   H784    1.082   .     S
C766   O806    1.282   .     A
C766   O804    1.281   .     A
C767   H785    1.082   .     S
C767   C768    1.398   .     A
C768   C769    1.398   .     A
C769   H787    1.083   .     S
C770   C775    1.406   .     A
C770   C771    1.405   .     A
C771   C772    1.398   .     A
C771   H788    1.083   .     S
C772   C773    1.398   .     A
C772   H1311   1.082   .     S
C773   C774    1.398   .     A
C773   H790    1.082   .     S
C774   H791    1.082   .     S
C774   C775    1.398   .     A
C775   H792    1.083   .     S
C776   O809    1.280   .     A
C776   O807    1.272   .     A
C776   C778    1.405   .     S
C777   O810    1.280   .     A
C777   O808    1.272   .     A
C777   C779    1.405   .     S
C779   C828    1.495   .     S
C779   C836    1.357   .     S
C780   H783    1.084   .     S
C781   H793    1.084   .     S
C781   C930    1.369   .     S
C782   H794    1.084   .     S
C782   C954    1.369   .     S
H786   C1290   1.082   .     S
N801   Zn811   2.006   .     S
N802   Zn812   2.006   .     S
O803   Zn811   1.998   .     S
O804   Zn812   1.998   .     S
O805   Zn812   2.000   .     S
O806   Zn811   2.000   .     S
O807   Zn811   1.977   .     S
O808   Zn812   1.977   .     S
O809   Zn812   1.987   .     S
O810   Zn811   1.987   .     S
C813   C816    1.419   .     S
C813   O863    1.282   .     A
C813   O861    1.281   .     A
C814   C816    1.397   .     A
C814   H853    1.084   .     S
C815   C839    1.397   .     A
C815   C840    1.397   .     A
C815   C824    1.419   .     S
C816   C838    1.397   .     A
C817   H854    1.082   .     S
C817   N860    1.366   .     A
C818   H855    1.082   .     S
C818   N859    1.366   .     A
C818   C1342   1.415   .     S
C819   H856    1.082   .     S
C819   N859    1.366   .     A
C819   C1339   1.415   .     S
C820   N860    1.366   .     A
C820   H857    1.082   .     S
C821   C822    1.406   .     A
C821   C827    1.405   .     A
C821   C720    1.495   1_655 S
C822   H858    1.083   .     S
C822   C823    1.398   .     A
C823   C825    1.398   .     A
C823   H842    1.082   .     S
C824   O864    1.282   .     A
C824   O862    1.281   .     A
C825   H843    1.082   .     S
C825   C826    1.398   .     A
C826   C827    1.398   .     A
C827   H845    1.083   .     S
C828   C833    1.406   .     A
C828   C829    1.405   .     A
C829   C830    1.398   .     A
C829   H846    1.083   .     S
C830   C831    1.398   .     A
C830   H1369   1.082   .     S
C831   C832    1.398   .     A
C831   H848    1.082   .     S
C832   H849    1.082   .     S
C832   C833    1.398   .     A
C833   H850    1.083   .     S
C834   O867    1.280   .     A
C834   O865    1.272   .     A
C834   C836    1.405   .     S
C835   O868    1.280   .     A
C835   O866    1.272   .     A
C835   C837    1.405   .     S
C837   C712    1.495   1_655 S
C837   C720    1.357   1_655 S
C838   H841    1.084   .     S
C839   H851    1.084   .     S
C839   C988    1.369   .     S
C840   H852    1.084   .     S
C840   C1012   1.369   .     S
H844   C1348   1.082   .     S
N859   Zn869   2.006   .     S
N860   Zn870   2.006   .     S
O861   Zn869   1.998   .     S
O862   Zn870   1.998   .     S
O863   Zn870   2.000   .     S
O864   Zn869   2.000   .     S
O865   Zn869   1.977   .     S
O866   Zn870   1.977   .     S
O867   Zn870   1.987   .     S
O868   Zn869   1.987   .     S
C871   C874    1.419   .     S
C871   O921    1.282   .     A
C871   O919    1.281   .     A
C872   C874    1.397   .     A
C872   H911    1.084   .     S
C873   C897    1.397   .     A
C873   C898    1.397   .     A
C873   C882    1.419   .     S
C874   C896    1.397   .     A
C875   H912    1.082   .     S
C875   N918    1.366   .     A
C876   H913    1.082   .     S
C876   N917    1.366   .     A
C876   C1400   1.415   .     S
C877   H914    1.082   .     S
C877   N917    1.366   .     A
C877   C1397   1.415   .     S
C878   N918    1.366   .     A
C878   H915    1.082   .     S
C879   C880    1.406   .     A
C879   C885    1.405   .     A
C879   C952    1.495   .     S
C880   H916    1.083   .     S
C880   C881    1.398   .     A
C881   C883    1.398   .     A
C881   H900    1.082   .     S
C882   O922    1.282   .     A
C882   O920    1.281   .     A
C883   H901    1.082   .     S
C883   C884    1.398   .     A
C884   C885    1.398   .     A
C885   H903    1.083   .     S
C886   C891    1.406   .     A
C886   C887    1.405   .     A
C886   C1011   1.495   1_455 S
C887   C888    1.398   .     A
C887   H904    1.083   .     S
C888   C889    1.398   .     A
C888   H1427   1.082   .     S
C889   C890    1.398   .     A
C889   H906    1.082   .     S
C890   H907    1.082   .     S
C890   C891    1.398   .     A
C891   H908    1.083   .     S
C892   O925    1.280   .     A
C892   O923    1.272   .     A
C892   C894    1.405   .     S
C893   O926    1.280   .     A
C893   O924    1.272   .     A
C893   C895    1.405   .     S
C894   C995    1.495   1_455 S
C894   C1011   1.357   1_455 S
C895   C944    1.495   .     S
C895   C952    1.357   .     S
C896   H899    1.084   .     S
C897   H909    1.084   .     S
C897   C524    1.369   1_565 S
C898   H910    1.084   .     S
C898   C548    1.369   1_565 S
H902   C1406   1.082   .     S
N917   Zn927   2.006   .     S
N918   Zn928   2.006   .     S
O919   Zn927   1.998   .     S
O920   Zn928   1.998   .     S
O921   Zn928   2.000   .     S
O922   Zn927   2.000   .     S
O923   Zn927   1.977   .     S
O924   Zn928   1.977   .     S
O925   Zn928   1.987   .     S
O926   Zn927   1.987   .     S
C929   C932    1.419   .     S
C929   O979    1.282   .     A
C929   O977    1.281   .     A
C930   C932    1.397   .     A
C930   H969    1.084   .     S
C931   C955    1.397   .     A
C931   C956    1.397   .     A
C931   C940    1.419   .     S
C932   C954    1.397   .     A
C933   H970    1.082   .     S
C933   N976    1.366   .     A
C934   H971    1.082   .     S
C934   N975    1.366   .     A
C934   C1458   1.415   .     S
C935   H972    1.082   .     S
C935   N975    1.366   .     A
C935   C1455   1.415   .     S
C936   N976    1.366   .     A
C936   H973    1.082   .     S
C937   C938    1.406   .     A
C937   C943    1.405   .     A
C937   C1010   1.495   .     S
C938   H974    1.083   .     S
C938   C939    1.398   .     A
C939   C941    1.398   .     A
C939   H958    1.082   .     S
C940   O980    1.282   .     A
C940   O978    1.281   .     A
C941   H959    1.082   .     S
C941   C942    1.398   .     A
C942   C943    1.398   .     A
C943   H961    1.083   .     S
C944   C949    1.406   .     A
C944   C945    1.405   .     A
C945   C946    1.398   .     A
C945   H962    1.083   .     S
C946   C947    1.398   .     A
C946   H1485   1.082   .     S
C947   C948    1.398   .     A
C947   H964    1.082   .     S
C948   H965    1.082   .     S
C948   C949    1.398   .     A
C949   H966    1.083   .     S
C950   O983    1.280   .     A
C950   O981    1.272   .     A
C950   C952    1.405   .     S
C951   O984    1.280   .     A
C951   O982    1.272   .     A
C951   C953    1.405   .     S
C953   C1002   1.495   .     S
C953   C1010   1.357   .     S
C954   H957    1.084   .     S
C955   H967    1.084   .     S
C955   C582    1.369   1_565 S
C956   H968    1.084   .     S
C956   C606    1.369   1_565 S
H960   C1464   1.082   .     S
N975   Zn985   2.006   .     S
N976   Zn986   2.006   .     S
O977   Zn985   1.998   .     S
O978   Zn986   1.998   .     S
O979   Zn986   2.000   .     S
O980   Zn985   2.000   .     S
O981   Zn985   1.977   .     S
O982   Zn986   1.977   .     S
O983   Zn986   1.987   .     S
O984   Zn985   1.987   .     S
C987   C990    1.419   .     S
C987   O1037   1.282   .     A
C987   O1035   1.281   .     A
C988   C990    1.397   .     A
C988   H1027   1.084   .     S
C989   C1013   1.397   .     A
C989   C1014   1.397   .     A
C989   C998    1.419   .     S
C990   C1012   1.397   .     A
C991   H1028   1.082   .     S
C991   N1034   1.366   .     A
C992   H1029   1.082   .     S
C992   N1033   1.366   .     A
C992   C1516   1.415   .     S
C993   H1030   1.082   .     S
C993   N1033   1.366   .     A
C993   C1513   1.415   .     S
C994   N1034   1.366   .     A
C994   H1031   1.082   .     S
C995   C996    1.406   .     A
C995   C1001   1.405   .     A
C995   C894    1.495   1_655 S
C996   H1032   1.083   .     S
C996   C997    1.398   .     A
C997   C999    1.398   .     A
C997   H1016   1.082   .     S
C998   O1038   1.282   .     A
C998   O1036   1.281   .     A
C999   H1017   1.082   .     S
C999   C1000   1.398   .     A
C1000  C1001   1.398   .     A
C1001  H1019   1.083   .     S
C1002  C1007   1.406   .     A
C1002  C1003   1.405   .     A
C1003  C1004   1.398   .     A
C1003  H1020   1.083   .     S
C1004  C1005   1.398   .     A
C1004  H1543   1.082   .     S
C1005  C1006   1.398   .     A
C1005  H1022   1.082   .     S
C1006  H1023   1.082   .     S
C1006  C1007   1.398   .     A
C1007  H1024   1.083   .     S
C1008  O1041   1.280   .     A
C1008  O1039   1.272   .     A
C1008  C1010   1.405   .     S
C1009  O1042   1.280   .     A
C1009  O1040   1.272   .     A
C1009  C1011   1.405   .     S
C1011  C886    1.495   1_655 S
C1011  C894    1.357   1_655 S
C1012  H1015   1.084   .     S
C1013  H1025   1.084   .     S
C1013  C640    1.369   1_565 S
C1014  H1026   1.084   .     S
C1014  C664    1.369   1_565 S
H1018  C1522   1.082   .     S
N1033  Zn1043  2.006   .     S
N1034  Zn1044  2.006   .     S
O1035  Zn1043  1.998   .     S
O1036  Zn1044  1.998   .     S
O1037  Zn1044  2.000   .     S
O1038  Zn1043  2.000   .     S
O1039  Zn1043  1.977   .     S
O1040  Zn1044  1.977   .     S
O1041  Zn1044  1.987   .     S
O1042  Zn1043  1.987   .     S
C1045  C1048   1.419   .     S
C1045  O1095   1.282   .     A
C1045  O1093   1.281   .     A
C1046  C1048   1.397   .     A
C1046  H1085   1.084   .     S
C1046  C1419   1.369   1_545 S
C1047  C1071   1.397   .     A
C1047  C1072   1.397   .     A
C1047  C1056   1.419   .     S
C1048  C1070   1.397   .     A
C1049  H1086   1.082   .     S
C1049  N1092   1.366   .     A
C1050  H1087   1.082   .     S
C1050  N1091   1.366   .     A
C1050  C8      1.415   1_556 S
C1051  H1088   1.082   .     S
C1051  N1091   1.366   .     A
C1051  C5      1.415   1_556 S
C1052  N1092   1.366   .     A
C1052  H1089   1.082   .     S
C1053  C1054   1.406   .     A
C1053  C1059   1.405   .     A
C1053  C1126   1.495   .     S
C1054  H1090   1.083   .     S
C1054  C1055   1.398   .     A
C1055  C1057   1.398   .     A
C1055  H1074   1.082   .     S
C1056  O1096   1.282   .     A
C1056  O1094   1.281   .     A
C1057  H1075   1.082   .     S
C1057  C1058   1.398   .     A
C1058  C1059   1.398   .     A
C1059  H1077   1.083   .     S
C1060  C1065   1.406   .     A
C1060  C1061   1.405   .     A
C1060  C1185   1.495   1_455 S
C1061  C1062   1.398   .     A
C1061  H1078   1.083   .     S
C1062  C1063   1.398   .     A
C1062  H35     1.082   1_556 S
C1063  C1064   1.398   .     A
C1063  H1080   1.082   .     S
C1064  H1081   1.082   .     S
C1064  C1065   1.398   .     A
C1065  H1082   1.083   .     S
C1066  O1099   1.280   .     A
C1066  O1097   1.272   .     A
C1066  C1068   1.405   .     S
C1067  O1100   1.280   .     A
C1067  O1098   1.272   .     A
C1067  C1069   1.405   .     S
C1068  C1169   1.495   1_455 S
C1068  C1185   1.357   1_455 S
C1069  C1118   1.495   .     S
C1069  C1126   1.357   .     S
C1070  H1073   1.084   .     S
C1070  C1420   1.369   1_545 S
C1071  H1083   1.084   .     S
C1071  C1220   1.369   .     S
C1072  H1084   1.084   .     S
C1072  C1244   1.369   .     S
H1076  C14     1.082   1_556 S
N1091  Zn1101  2.006   .     S
N1092  Zn1102  2.006   .     S
O1093  Zn1101  1.998   .     S
O1094  Zn1102  1.998   .     S
O1095  Zn1102  2.000   .     S
O1096  Zn1101  2.000   .     S
O1097  Zn1101  1.977   .     S
O1098  Zn1102  1.977   .     S
O1099  Zn1102  1.987   .     S
O1100  Zn1101  1.987   .     S
C1103  C1106   1.419   .     S
C1103  O1153   1.282   .     A
C1103  O1151   1.281   .     A
C1104  C1106   1.397   .     A
C1104  H1143   1.084   .     S
C1104  C1477   1.369   1_545 S
C1105  C1129   1.397   .     A
C1105  C1130   1.397   .     A
C1105  C1114   1.419   .     S
C1106  C1128   1.397   .     A
C1107  H1144   1.082   .     S
C1107  N1150   1.366   .     A
C1108  H1145   1.082   .     S
C1108  N1149   1.366   .     A
C1108  C66     1.415   1_556 S
C1109  H1146   1.082   .     S
C1109  N1149   1.366   .     A
C1109  C63     1.415   1_556 S
C1110  N1150   1.366   .     A
C1110  H1147   1.082   .     S
C1111  C1112   1.406   .     A
C1111  C1117   1.405   .     A
C1111  C1184   1.495   .     S
C1112  H1148   1.083   .     S
C1112  C1113   1.398   .     A
C1113  C1115   1.398   .     A
C1113  H1132   1.082   .     S
C1114  O1154   1.282   .     A
C1114  O1152   1.281   .     A
C1115  H1133   1.082   .     S
C1115  C1116   1.398   .     A
C1116  C1117   1.398   .     A
C1117  H1135   1.083   .     S
C1118  C1123   1.406   .     A
C1118  C1119   1.405   .     A
C1119  C1120   1.398   .     A
C1119  H1136   1.083   .     S
C1120  C1121   1.398   .     A
C1120  H93     1.082   1_556 S
C1121  C1122   1.398   .     A
C1121  H1138   1.082   .     S
C1122  H1139   1.082   .     S
C1122  C1123   1.398   .     A
C1123  H1140   1.083   .     S
C1124  O1157   1.280   .     A
C1124  O1155   1.272   .     A
C1124  C1126   1.405   .     S
C1125  O1158   1.280   .     A
C1125  O1156   1.272   .     A
C1125  C1127   1.405   .     S
C1127  C1176   1.495   .     S
C1127  C1184   1.357   .     S
C1128  H1131   1.084   .     S
C1128  C1478   1.369   1_545 S
C1129  H1141   1.084   .     S
C1129  C1278   1.369   .     S
C1130  H1142   1.084   .     S
C1130  C1302   1.369   .     S
H1134  C72     1.082   1_556 S
N1149  Zn1159  2.006   .     S
N1150  Zn1160  2.006   .     S
O1151  Zn1159  1.998   .     S
O1152  Zn1160  1.998   .     S
O1153  Zn1160  2.000   .     S
O1154  Zn1159  2.000   .     S
O1155  Zn1159  1.977   .     S
O1156  Zn1160  1.977   .     S
O1157  Zn1160  1.987   .     S
O1158  Zn1159  1.987   .     S
C1161  C1164   1.419   .     S
C1161  O1211   1.282   .     A
C1161  O1209   1.281   .     A
C1162  C1164   1.397   .     A
C1162  H1201   1.084   .     S
C1162  C1535   1.369   1_545 S
C1163  C1187   1.397   .     A
C1163  C1188   1.397   .     A
C1163  C1172   1.419   .     S
C1164  C1186   1.397   .     A
C1165  H1202   1.082   .     S
C1165  N1208   1.366   .     A
C1166  H1203   1.082   .     S
C1166  N1207   1.366   .     A
C1166  C124    1.415   1_556 S
C1167  H1204   1.082   .     S
C1167  N1207   1.366   .     A
C1167  C121    1.415   1_556 S
C1168  N1208   1.366   .     A
C1168  H1205   1.082   .     S
C1169  C1170   1.406   .     A
C1169  C1175   1.405   .     A
C1169  C1068   1.495   1_655 S
C1170  H1206   1.083   .     S
C1170  C1171   1.398   .     A
C1171  C1173   1.398   .     A
C1171  H1190   1.082   .     S
C1172  O1212   1.282   .     A
C1172  O1210   1.281   .     A
C1173  H1191   1.082   .     S
C1173  C1174   1.398   .     A
C1174  C1175   1.398   .     A
C1175  H1193   1.083   .     S
C1176  C1181   1.406   .     A
C1176  C1177   1.405   .     A
C1177  C1178   1.398   .     A
C1177  H1194   1.083   .     S
C1178  C1179   1.398   .     A
C1178  H151    1.082   1_556 S
C1179  C1180   1.398   .     A
C1179  H1196   1.082   .     S
C1180  H1197   1.082   .     S
C1180  C1181   1.398   .     A
C1181  H1198   1.083   .     S
C1182  O1215   1.280   .     A
C1182  O1213   1.272   .     A
C1182  C1184   1.405   .     S
C1183  O1216   1.280   .     A
C1183  O1214   1.272   .     A
C1183  C1185   1.405   .     S
C1185  C1060   1.495   1_655 S
C1185  C1068   1.357   1_655 S
C1186  H1189   1.084   .     S
C1186  C1536   1.369   1_545 S
C1187  H1199   1.084   .     S
C1187  C1336   1.369   .     S
C1188  H1200   1.084   .     S
C1188  C1360   1.369   .     S
H1192  C130    1.082   1_556 S
N1207  Zn1217  2.006   .     S
N1208  Zn1218  2.006   .     S
O1209  Zn1217  1.998   .     S
O1210  Zn1218  1.998   .     S
O1211  Zn1218  2.000   .     S
O1212  Zn1217  2.000   .     S
O1213  Zn1217  1.977   .     S
O1214  Zn1218  1.977   .     S
O1215  Zn1218  1.987   .     S
O1216  Zn1217  1.987   .     S
C1219  C1222   1.419   .     S
C1219  O1269   1.282   .     A
C1219  O1267   1.281   .     A
C1220  C1222   1.397   .     A
C1220  H1259   1.084   .     S
C1221  C1245   1.397   .     A
C1221  C1246   1.397   .     A
C1221  C1230   1.419   .     S
C1222  C1244   1.397   .     A
C1223  H1260   1.082   .     S
C1223  N1266   1.366   .     A
C1224  H1261   1.082   .     S
C1224  N1265   1.366   .     A
C1224  C182    1.415   1_556 S
C1225  H1262   1.082   .     S
C1225  N1265   1.366   .     A
C1225  C179    1.415   1_556 S
C1226  N1266   1.366   .     A
C1226  H1263   1.082   .     S
C1227  C1228   1.406   .     A
C1227  C1233   1.405   .     A
C1227  C1300   1.495   .     S
C1228  H1264   1.083   .     S
C1228  C1229   1.398   .     A
C1229  C1231   1.398   .     A
C1229  H1248   1.082   .     S
C1230  O1270   1.282   .     A
C1230  O1268   1.281   .     A
C1231  H1249   1.082   .     S
C1231  C1232   1.398   .     A
C1232  C1233   1.398   .     A
C1233  H1251   1.083   .     S
C1234  C1239   1.406   .     A
C1234  C1235   1.405   .     A
C1234  C1359   1.495   1_455 S
C1235  C1236   1.398   .     A
C1235  H1252   1.083   .     S
C1236  C1237   1.398   .     A
C1236  H209    1.082   1_556 S
C1237  C1238   1.398   .     A
C1237  H1254   1.082   .     S
C1238  H1255   1.082   .     S
C1238  C1239   1.398   .     A
C1239  H1256   1.083   .     S
C1240  O1273   1.280   .     A
C1240  O1271   1.272   .     A
C1240  C1242   1.405   .     S
C1241  O1274   1.280   .     A
C1241  O1272   1.272   .     A
C1241  C1243   1.405   .     S
C1242  C1343   1.495   1_455 S
C1242  C1359   1.357   1_455 S
C1243  C1292   1.495   .     S
C1243  C1300   1.357   .     S
C1244  H1247   1.084   .     S
C1245  H1257   1.084   .     S
C1245  C1394   1.369   .     S
C1246  H1258   1.084   .     S
C1246  C1418   1.369   .     S
H1250  C188    1.082   1_556 S
N1265  Zn1275  2.006   .     S
N1266  Zn1276  2.006   .     S
O1267  Zn1275  1.998   .     S
O1268  Zn1276  1.998   .     S
O1269  Zn1276  2.000   .     S
O1270  Zn1275  2.000   .     S
O1271  Zn1275  1.977   .     S
O1272  Zn1276  1.977   .     S
O1273  Zn1276  1.987   .     S
O1274  Zn1275  1.987   .     S
C1277  C1280   1.419   .     S
C1277  O1327   1.282   .     A
C1277  O1325   1.281   .     A
C1278  C1280   1.397   .     A
C1278  H1317   1.084   .     S
C1279  C1303   1.397   .     A
C1279  C1304   1.397   .     A
C1279  C1288   1.419   .     S
C1280  C1302   1.397   .     A
C1281  H1318   1.082   .     S
C1281  N1324   1.366   .     A
C1282  H1319   1.082   .     S
C1282  N1323   1.366   .     A
C1282  C240    1.415   1_556 S
C1283  H1320   1.082   .     S
C1283  N1323   1.366   .     A
C1283  C237    1.415   1_556 S
C1284  N1324   1.366   .     A
C1284  H1321   1.082   .     S
C1285  C1286   1.406   .     A
C1285  C1291   1.405   .     A
C1285  C1358   1.495   .     S
C1286  H1322   1.083   .     S
C1286  C1287   1.398   .     A
C1287  C1289   1.398   .     A
C1287  H1306   1.082   .     S
C1288  O1328   1.282   .     A
C1288  O1326   1.281   .     A
C1289  H1307   1.082   .     S
C1289  C1290   1.398   .     A
C1290  C1291   1.398   .     A
C1291  H1309   1.083   .     S
C1292  C1297   1.406   .     A
C1292  C1293   1.405   .     A
C1293  C1294   1.398   .     A
C1293  H1310   1.083   .     S
C1294  C1295   1.398   .     A
C1294  H267    1.082   1_556 S
C1295  C1296   1.398   .     A
C1295  H1312   1.082   .     S
C1296  H1313   1.082   .     S
C1296  C1297   1.398   .     A
C1297  H1314   1.083   .     S
C1298  O1331   1.280   .     A
C1298  O1329   1.272   .     A
C1298  C1300   1.405   .     S
C1299  O1332   1.280   .     A
C1299  O1330   1.272   .     A
C1299  C1301   1.405   .     S
C1301  C1350   1.495   .     S
C1301  C1358   1.357   .     S
C1302  H1305   1.084   .     S
C1303  H1315   1.084   .     S
C1303  C1452   1.369   .     S
C1304  H1316   1.084   .     S
C1304  C1476   1.369   .     S
H1308  C246    1.082   1_556 S
N1323  Zn1333  2.006   .     S
N1324  Zn1334  2.006   .     S
O1325  Zn1333  1.998   .     S
O1326  Zn1334  1.998   .     S
O1327  Zn1334  2.000   .     S
O1328  Zn1333  2.000   .     S
O1329  Zn1333  1.977   .     S
O1330  Zn1334  1.977   .     S
O1331  Zn1334  1.987   .     S
O1332  Zn1333  1.987   .     S
C1335  C1338   1.419   .     S
C1335  O1385   1.282   .     A
C1335  O1383   1.281   .     A
C1336  C1338   1.397   .     A
C1336  H1375   1.084   .     S
C1337  C1361   1.397   .     A
C1337  C1362   1.397   .     A
C1337  C1346   1.419   .     S
C1338  C1360   1.397   .     A
C1339  H1376   1.082   .     S
C1339  N1382   1.366   .     A
C1340  H1377   1.082   .     S
C1340  N1381   1.366   .     A
C1340  C298    1.415   1_556 S
C1341  H1378   1.082   .     S
C1341  N1381   1.366   .     A
C1341  C295    1.415   1_556 S
C1342  N1382   1.366   .     A
C1342  H1379   1.082   .     S
C1343  C1344   1.406   .     A
C1343  C1349   1.405   .     A
C1343  C1242   1.495   1_655 S
C1344  H1380   1.083   .     S
C1344  C1345   1.398   .     A
C1345  C1347   1.398   .     A
C1345  H1364   1.082   .     S
C1346  O1386   1.282   .     A
C1346  O1384   1.281   .     A
C1347  H1365   1.082   .     S
C1347  C1348   1.398   .     A
C1348  C1349   1.398   .     A
C1349  H1367   1.083   .     S
C1350  C1355   1.406   .     A
C1350  C1351   1.405   .     A
C1351  C1352   1.398   .     A
C1351  H1368   1.083   .     S
C1352  C1353   1.398   .     A
C1352  H325    1.082   1_556 S
C1353  C1354   1.398   .     A
C1353  H1370   1.082   .     S
C1354  H1371   1.082   .     S
C1354  C1355   1.398   .     A
C1355  H1372   1.083   .     S
C1356  O1389   1.280   .     A
C1356  O1387   1.272   .     A
C1356  C1358   1.405   .     S
C1357  O1390   1.280   .     A
C1357  O1388   1.272   .     A
C1357  C1359   1.405   .     S
C1359  C1234   1.495   1_655 S
C1359  C1242   1.357   1_655 S
C1360  H1363   1.084   .     S
C1361  H1373   1.084   .     S
C1361  C1510   1.369   .     S
C1362  H1374   1.084   .     S
C1362  C1534   1.369   .     S
H1366  C304    1.082   1_556 S
N1381  Zn1391  2.006   .     S
N1382  Zn1392  2.006   .     S
O1383  Zn1391  1.998   .     S
O1384  Zn1392  1.998   .     S
O1385  Zn1392  2.000   .     S
O1386  Zn1391  2.000   .     S
O1387  Zn1391  1.977   .     S
O1388  Zn1392  1.977   .     S
O1389  Zn1392  1.987   .     S
O1390  Zn1391  1.987   .     S
C1393  C1396   1.419   .     S
C1393  O1443   1.282   .     A
C1393  O1441   1.281   .     A
C1394  C1396   1.397   .     A
C1394  H1433   1.084   .     S
C1395  C1419   1.397   .     A
C1395  C1420   1.397   .     A
C1395  C1404   1.419   .     S
C1396  C1418   1.397   .     A
C1397  H1434   1.082   .     S
C1397  N1440   1.366   .     A
C1398  H1435   1.082   .     S
C1398  N1439   1.366   .     A
C1398  C356    1.415   1_556 S
C1399  H1436   1.082   .     S
C1399  N1439   1.366   .     A
C1399  C353    1.415   1_556 S
C1400  N1440   1.366   .     A
C1400  H1437   1.082   .     S
C1401  C1402   1.406   .     A
C1401  C1407   1.405   .     A
C1401  C1474   1.495   .     S
C1402  H1438   1.083   .     S
C1402  C1403   1.398   .     A
C1403  C1405   1.398   .     A
C1403  H1422   1.082   .     S
C1404  O1444   1.282   .     A
C1404  O1442   1.281   .     A
C1405  H1423   1.082   .     S
C1405  C1406   1.398   .     A
C1406  C1407   1.398   .     A
C1407  H1425   1.083   .     S
C1408  C1413   1.406   .     A
C1408  C1409   1.405   .     A
C1408  C1533   1.495   1_455 S
C1409  C1410   1.398   .     A
C1409  H1426   1.083   .     S
C1410  C1411   1.398   .     A
C1410  H383    1.082   1_556 S
C1411  C1412   1.398   .     A
C1411  H1428   1.082   .     S
C1412  H1429   1.082   .     S
C1412  C1413   1.398   .     A
C1413  H1430   1.083   .     S
C1414  O1447   1.280   .     A
C1414  O1445   1.272   .     A
C1414  C1416   1.405   .     S
C1415  O1448   1.280   .     A
C1415  O1446   1.272   .     A
C1415  C1417   1.405   .     S
C1416  C1517   1.495   1_455 S
C1416  C1533   1.357   1_455 S
C1417  C1466   1.495   .     S
C1417  C1474   1.357   .     S
C1418  H1421   1.084   .     S
C1419  H1431   1.084   .     S
C1419  C1046   1.369   1_565 S
C1420  H1432   1.084   .     S
C1420  C1070   1.369   1_565 S
H1424  C362    1.082   1_556 S
N1439  Zn1449  2.006   .     S
N1440  Zn1450  2.006   .     S
O1441  Zn1449  1.998   .     S
O1442  Zn1450  1.998   .     S
O1443  Zn1450  2.000   .     S
O1444  Zn1449  2.000   .     S
O1445  Zn1449  1.977   .     S
O1446  Zn1450  1.977   .     S
O1447  Zn1450  1.987   .     S
O1448  Zn1449  1.987   .     S
C1451  C1454   1.419   .     S
C1451  O1501   1.282   .     A
C1451  O1499   1.281   .     A
C1452  C1454   1.397   .     A
C1452  H1491   1.084   .     S
C1453  C1477   1.397   .     A
C1453  C1478   1.397   .     A
C1453  C1462   1.419   .     S
C1454  C1476   1.397   .     A
C1455  H1492   1.082   .     S
C1455  N1498   1.366   .     A
C1456  H1493   1.082   .     S
C1456  N1497   1.366   .     A
C1456  C414    1.415   1_556 S
C1457  H1494   1.082   .     S
C1457  N1497   1.366   .     A
C1457  C411    1.415   1_556 S
C1458  N1498   1.366   .     A
C1458  H1495   1.082   .     S
C1459  C1460   1.406   .     A
C1459  C1465   1.405   .     A
C1459  C1532   1.495   .     S
C1460  H1496   1.083   .     S
C1460  C1461   1.398   .     A
C1461  C1463   1.398   .     A
C1461  H1480   1.082   .     S
C1462  O1502   1.282   .     A
C1462  O1500   1.281   .     A
C1463  H1481   1.082   .     S
C1463  C1464   1.398   .     A
C1464  C1465   1.398   .     A
C1465  H1483   1.083   .     S
C1466  C1471   1.406   .     A
C1466  C1467   1.405   .     A
C1467  C1468   1.398   .     A
C1467  H1484   1.083   .     S
C1468  C1469   1.398   .     A
C1468  H441    1.082   1_556 S
C1469  C1470   1.398   .     A
C1469  H1486   1.082   .     S
C1470  H1487   1.082   .     S
C1470  C1471   1.398   .     A
C1471  H1488   1.083   .     S
C1472  O1505   1.280   .     A
C1472  O1503   1.272   .     A
C1472  C1474   1.405   .     S
C1473  O1506   1.280   .     A
C1473  O1504   1.272   .     A
C1473  C1475   1.405   .     S
C1475  C1524   1.495   .     S
C1475  C1532   1.357   .     S
C1476  H1479   1.084   .     S
C1477  H1489   1.084   .     S
C1477  C1104   1.369   1_565 S
C1478  H1490   1.084   .     S
C1478  C1128   1.369   1_565 S
H1482  C420    1.082   1_556 S
N1497  Zn1507  2.006   .     S
N1498  Zn1508  2.006   .     S
O1499  Zn1507  1.998   .     S
O1500  Zn1508  1.998   .     S
O1501  Zn1508  2.000   .     S
O1502  Zn1507  2.000   .     S
O1503  Zn1507  1.977   .     S
O1504  Zn1508  1.977   .     S
O1505  Zn1508  1.987   .     S
O1506  Zn1507  1.987   .     S
C1509  C1512   1.419   .     S
C1509  O1559   1.282   .     A
C1509  O1557   1.281   .     A
C1510  C1512   1.397   .     A
C1510  H1549   1.084   .     S
C1511  C1535   1.397   .     A
C1511  C1536   1.397   .     A
C1511  C1520   1.419   .     S
C1512  C1534   1.397   .     A
C1513  H1550   1.082   .     S
C1513  N1556   1.366   .     A
C1514  H1551   1.082   .     S
C1514  N1555   1.366   .     A
C1514  C472    1.415   1_556 S
C1515  H1552   1.082   .     S
C1515  N1555   1.366   .     A
C1515  C469    1.415   1_556 S
C1516  N1556   1.366   .     A
C1516  H1553   1.082   .     S
C1517  C1518   1.406   .     A
C1517  C1523   1.405   .     A
C1517  C1416   1.495   1_655 S
C1518  H1554   1.083   .     S
C1518  C1519   1.398   .     A
C1519  C1521   1.398   .     A
C1519  H1538   1.082   .     S
C1520  O1560   1.282   .     A
C1520  O1558   1.281   .     A
C1521  H1539   1.082   .     S
C1521  C1522   1.398   .     A
C1522  C1523   1.398   .     A
C1523  H1541   1.083   .     S
C1524  C1529   1.406   .     A
C1524  C1525   1.405   .     A
C1525  C1526   1.398   .     A
C1525  H1542   1.083   .     S
C1526  C1527   1.398   .     A
C1526  H499    1.082   1_556 S
C1527  C1528   1.398   .     A
C1527  H1544   1.082   .     S
C1528  H1545   1.082   .     S
C1528  C1529   1.398   .     A
C1529  H1546   1.083   .     S
C1530  O1563   1.280   .     A
C1530  O1561   1.272   .     A
C1530  C1532   1.405   .     S
C1531  O1564   1.280   .     A
C1531  O1562   1.272   .     A
C1531  C1533   1.405   .     S
C1533  C1408   1.495   1_655 S
C1533  C1416   1.357   1_655 S
C1534  H1537   1.084   .     S
C1535  H1547   1.084   .     S
C1535  C1162   1.369   1_565 S
C1536  H1548   1.084   .     S
C1536  C1186   1.369   1_565 S
H1540  C478    1.082   1_556 S
N1555  Zn1565  2.006   .     S
N1556  Zn1566  2.006   .     S
O1557  Zn1565  1.998   .     S
O1558  Zn1566  1.998   .     S
O1559  Zn1566  2.000   .     S
O1560  Zn1565  2.000   .     S
O1561  Zn1565  1.977   .     S
O1562  Zn1566  1.977   .     S
O1563  Zn1566  1.987   .     S
O1564  Zn1565  1.987   .     S
