data_str_m3_o10_o16_pcu_sym.34
_audit_creation_date              2020-01-03
_audit_creation_method            'Materials Studio'
_symmetry_space_group_name_H-M    'P1'
_symmetry_Int_Tables_number       1
_symmetry_cell_setting            triclinic
loop_
_symmetry_equiv_pos_as_xyz
  x,y,z
_cell_length_a                    23.4551
_cell_length_b                    25.7260
_cell_length_c                    24.3071
_cell_angle_alpha                 92.4114
_cell_angle_beta                  100.8668
_cell_angle_gamma                 94.1811
loop_
_atom_site_label
_atom_site_type_symbol
_atom_site_fract_x
_atom_site_fract_y
_atom_site_fract_z
_atom_site_U_iso_or_equiv
_atom_site_adp_type
_atom_site_occupancy
C1     C     0.01542   0.26499   0.25128   0.00000  Uiso   1.00
C2     C     0.05676   0.18316   0.41435   0.00000  Uiso   1.00
C3     C     0.02223   0.31960   0.25094   0.00000  Uiso   1.00
C4     C     0.03566   0.16991   0.35510   0.00000  Uiso   1.00
C5     C     0.31448   0.01549   0.26501   0.00000  Uiso   1.00
C6     C     0.31923   0.06868   0.25401   0.00000  Uiso   1.00
C7     C     0.29821   0.16588   0.14504   0.00000  Uiso   1.00
C8     C     0.27504   0.11467   0.49863   0.00000  Uiso   1.00
C9     C     0.28054   0.16569   0.08463   0.00000  Uiso   1.00
C10    C     0.03727   0.22805   0.43684   0.00000  Uiso   1.00
C11    C     0.07541   0.26010   0.47677   0.00000  Uiso   1.00
C12    C     0.14767   0.19569   0.48251   0.00000  Uiso   1.00
C13    C     0.13152   0.24594   0.49601   0.00000  Uiso   1.00
C14    C     0.10963   0.16450   0.43976   0.00000  Uiso   1.00
C15    C     0.20138   0.17628   0.00693   0.00000  Uiso   1.00
C16    C     0.22075   0.13287   0.47888   0.00000  Uiso   1.00
C17    C     0.18356   0.10443   0.43487   0.00000  Uiso   1.00
C18    C     0.12713   0.11753   0.41888   0.00000  Uiso   1.00
C19    C     0.23287   0.19302   0.06120   0.00000  Uiso   1.00
C20    C     0.30497   0.13105   0.05169   0.00000  Uiso   1.00
Cl21   Cl    0.25902   0.32851   0.30238   0.00000  Uiso   1.00
Cl22   Cl    0.20982   0.24104   0.10556   0.00000  Uiso   1.00
H23    H     0.01000   0.11185   0.06931   0.00000  Uiso   1.00
H24    H     0.05850   0.00221   0.23308   0.00000  Uiso   1.00
H25    H     0.15673   0.12505   0.20826   0.00000  Uiso   1.00
H26    H     0.17662   0.20826   0.29177   0.00000  Uiso   1.00
H27    H     0.19679   0.06975   0.41541   0.00000  Uiso   1.00
H28    H     0.29121   0.08361   0.47581   0.00000  Uiso   1.00
H29    H     0.32977   0.24257   0.41752   0.00000  Uiso   1.00
H30    H     0.16244   0.27636   0.01782   0.00000  Uiso   1.00
H31    H     0.06329   0.29807   0.48906   0.00000  Uiso   1.00
H32    H     0.09787   0.09192   0.38772   0.00000  Uiso   1.00
N33    N     0.14493   0.15223   0.23543   0.00000  Uiso   1.00
N34    N     0.18840   0.18110   0.26458   0.00000  Uiso   1.00
O35    O     0.29769   0.24629   0.25358   0.00000  Uiso   1.00
O36    O     0.05742   0.23704   0.24424   0.00000  Uiso   1.00
O37    O     0.31490   0.17358   0.33380   0.00000  Uiso   1.00
O38    O     0.07463   0.16433   0.32446   0.00000  Uiso   1.00
O39    O     0.27592   0.09629   0.25577   0.00000  Uiso   1.00
O40    O     0.03565   0.08704   0.24643   0.00000  Uiso   1.00
O41    O     0.25870   0.16901   0.17554   0.00000  Uiso   1.00
O42    O     0.01843   0.15976   0.16620   0.00000  Uiso   1.00
Zn43   Zn    0.27119   0.17284   0.25624   0.00000  Uiso   1.00
Zn44   Zn    0.06214   0.16049   0.24377   0.00000  Uiso   1.00
C45    C     0.34875   0.26499   0.25128   0.00000  Uiso   1.00
C46    C     0.39010   0.18316   0.41435   0.00000  Uiso   1.00
C47    C     0.35556   0.31960   0.25094   0.00000  Uiso   1.00
C48    C     0.36899   0.16991   0.35510   0.00000  Uiso   1.00
C49    C     0.64781   0.01549   0.26501   0.00000  Uiso   1.00
C50    C     0.65256   0.06868   0.25401   0.00000  Uiso   1.00
C51    C     0.63154   0.16588   0.14504   0.00000  Uiso   1.00
C52    C     0.60838   0.11467   0.49863   0.00000  Uiso   1.00
C53    C     0.61387   0.16569   0.08463   0.00000  Uiso   1.00
C54    C     0.37060   0.22805   0.43684   0.00000  Uiso   1.00
C55    C     0.40875   0.26010   0.47677   0.00000  Uiso   1.00
C56    C     0.48101   0.19569   0.48251   0.00000  Uiso   1.00
C57    C     0.46485   0.24594   0.49601   0.00000  Uiso   1.00
C58    C     0.44296   0.16450   0.43976   0.00000  Uiso   1.00
C59    C     0.53471   0.17628   0.00693   0.00000  Uiso   1.00
C60    C     0.55409   0.13287   0.47888   0.00000  Uiso   1.00
C61    C     0.51689   0.10443   0.43487   0.00000  Uiso   1.00
C62    C     0.46046   0.11753   0.41888   0.00000  Uiso   1.00
C63    C     0.56620   0.19302   0.06120   0.00000  Uiso   1.00
C64    C     0.63831   0.13105   0.05169   0.00000  Uiso   1.00
Cl65   Cl    0.59235   0.32851   0.30238   0.00000  Uiso   1.00
Cl66   Cl    0.54315   0.24104   0.10556   0.00000  Uiso   1.00
H67    H     0.34334   0.11185   0.06931   0.00000  Uiso   1.00
H68    H     0.39183   0.00221   0.23308   0.00000  Uiso   1.00
H69    H     0.49006   0.12505   0.20826   0.00000  Uiso   1.00
H70    H     0.50995   0.20826   0.29177   0.00000  Uiso   1.00
H71    H     0.53012   0.06975   0.41541   0.00000  Uiso   1.00
H72    H     0.62454   0.08361   0.47581   0.00000  Uiso   1.00
H73    H     0.66311   0.24257   0.41752   0.00000  Uiso   1.00
H74    H     0.49577   0.27636   0.01782   0.00000  Uiso   1.00
H75    H     0.39663   0.29807   0.48906   0.00000  Uiso   1.00
H76    H     0.43121   0.09192   0.38772   0.00000  Uiso   1.00
N77    N     0.47827   0.15223   0.23543   0.00000  Uiso   1.00
N78    N     0.52173   0.18110   0.26458   0.00000  Uiso   1.00
O79    O     0.63102   0.24629   0.25358   0.00000  Uiso   1.00
O80    O     0.39075   0.23704   0.24424   0.00000  Uiso   1.00
O81    O     0.64823   0.17358   0.33380   0.00000  Uiso   1.00
O82    O     0.40796   0.16433   0.32446   0.00000  Uiso   1.00
O83    O     0.60925   0.09629   0.25577   0.00000  Uiso   1.00
O84    O     0.36898   0.08704   0.24643   0.00000  Uiso   1.00
O85    O     0.59204   0.16901   0.17554   0.00000  Uiso   1.00
O86    O     0.35177   0.15976   0.16620   0.00000  Uiso   1.00
Zn87   Zn    0.60453   0.17284   0.25624   0.00000  Uiso   1.00
Zn88   Zn    0.39547   0.16049   0.24377   0.00000  Uiso   1.00
C89    C     0.68208   0.26499   0.25128   0.00000  Uiso   1.00
C90    C     0.72343   0.18316   0.41435   0.00000  Uiso   1.00
C91    C     0.68889   0.31960   0.25094   0.00000  Uiso   1.00
C92    C     0.70232   0.16991   0.35510   0.00000  Uiso   1.00
C93    C     0.98115   0.01549   0.26501   0.00000  Uiso   1.00
C94    C     0.98590   0.06868   0.25401   0.00000  Uiso   1.00
C95    C     0.96487   0.16588   0.14504   0.00000  Uiso   1.00
C96    C     0.94171   0.11467   0.49863   0.00000  Uiso   1.00
C97    C     0.94720   0.16569   0.08463   0.00000  Uiso   1.00
C98    C     0.70394   0.22805   0.43684   0.00000  Uiso   1.00
C99    C     0.74208   0.26010   0.47677   0.00000  Uiso   1.00
C100   C     0.81434   0.19569   0.48251   0.00000  Uiso   1.00
C101   C     0.79818   0.24594   0.49601   0.00000  Uiso   1.00
C102   C     0.77630   0.16450   0.43976   0.00000  Uiso   1.00
C103   C     0.86804   0.17628   0.00693   0.00000  Uiso   1.00
C104   C     0.88742   0.13287   0.47888   0.00000  Uiso   1.00
C105   C     0.85022   0.10443   0.43487   0.00000  Uiso   1.00
C106   C     0.79379   0.11753   0.41888   0.00000  Uiso   1.00
C107   C     0.89953   0.19302   0.06120   0.00000  Uiso   1.00
C108   C     0.97164   0.13105   0.05169   0.00000  Uiso   1.00
Cl109  Cl    0.92568   0.32851   0.30238   0.00000  Uiso   1.00
Cl110  Cl    0.87649   0.24104   0.10556   0.00000  Uiso   1.00
H111   H     0.67667   0.11185   0.06931   0.00000  Uiso   1.00
H112   H     0.72517   0.00221   0.23308   0.00000  Uiso   1.00
H113   H     0.82339   0.12505   0.20826   0.00000  Uiso   1.00
H114   H     0.84329   0.20826   0.29177   0.00000  Uiso   1.00
H115   H     0.86346   0.06975   0.41541   0.00000  Uiso   1.00
H116   H     0.95788   0.08361   0.47581   0.00000  Uiso   1.00
H117   H     0.99644   0.24257   0.41752   0.00000  Uiso   1.00
H118   H     0.82911   0.27636   0.01782   0.00000  Uiso   1.00
H119   H     0.72996   0.29807   0.48906   0.00000  Uiso   1.00
H120   H     0.76454   0.09192   0.38772   0.00000  Uiso   1.00
N121   N     0.81160   0.15223   0.23543   0.00000  Uiso   1.00
N122   N     0.85507   0.18110   0.26458   0.00000  Uiso   1.00
O123   O     0.96435   0.24629   0.25358   0.00000  Uiso   1.00
O124   O     0.72408   0.23704   0.24424   0.00000  Uiso   1.00
O125   O     0.98157   0.17358   0.33380   0.00000  Uiso   1.00
O126   O     0.74130   0.16433   0.32446   0.00000  Uiso   1.00
O127   O     0.94258   0.09629   0.25577   0.00000  Uiso   1.00
O128   O     0.70231   0.08704   0.24643   0.00000  Uiso   1.00
O129   O     0.92537   0.16901   0.17554   0.00000  Uiso   1.00
O130   O     0.68510   0.15976   0.16620   0.00000  Uiso   1.00
Zn131  Zn    0.93786   0.17284   0.25624   0.00000  Uiso   1.00
Zn132  Zn    0.72881   0.16049   0.24377   0.00000  Uiso   1.00
C133   C     0.01542   0.59833   0.25128   0.00000  Uiso   1.00
C134   C     0.05676   0.51649   0.41435   0.00000  Uiso   1.00
C135   C     0.02223   0.65294   0.25094   0.00000  Uiso   1.00
C136   C     0.03566   0.50325   0.35510   0.00000  Uiso   1.00
C137   C     0.31448   0.34882   0.26501   0.00000  Uiso   1.00
C138   C     0.31923   0.40201   0.25401   0.00000  Uiso   1.00
C139   C     0.29821   0.49921   0.14504   0.00000  Uiso   1.00
C140   C     0.27504   0.44800   0.49863   0.00000  Uiso   1.00
C141   C     0.28054   0.49902   0.08463   0.00000  Uiso   1.00
C142   C     0.03727   0.56138   0.43684   0.00000  Uiso   1.00
C143   C     0.07541   0.59343   0.47677   0.00000  Uiso   1.00
C144   C     0.14767   0.52902   0.48251   0.00000  Uiso   1.00
C145   C     0.13152   0.57928   0.49601   0.00000  Uiso   1.00
C146   C     0.10963   0.49783   0.43976   0.00000  Uiso   1.00
C147   C     0.20138   0.50961   0.00693   0.00000  Uiso   1.00
C148   C     0.22075   0.46621   0.47888   0.00000  Uiso   1.00
C149   C     0.18356   0.43776   0.43487   0.00000  Uiso   1.00
C150   C     0.12713   0.45086   0.41888   0.00000  Uiso   1.00
C151   C     0.23287   0.52636   0.06120   0.00000  Uiso   1.00
C152   C     0.30497   0.46439   0.05169   0.00000  Uiso   1.00
Cl153  Cl    0.25902   0.66184   0.30238   0.00000  Uiso   1.00
Cl154  Cl    0.20982   0.57437   0.10556   0.00000  Uiso   1.00
H155   H     0.01000   0.44518   0.06931   0.00000  Uiso   1.00
H156   H     0.05850   0.33554   0.23308   0.00000  Uiso   1.00
H157   H     0.15673   0.45839   0.20826   0.00000  Uiso   1.00
H158   H     0.17662   0.54159   0.29177   0.00000  Uiso   1.00
H159   H     0.19679   0.40308   0.41541   0.00000  Uiso   1.00
H160   H     0.29121   0.41695   0.47581   0.00000  Uiso   1.00
H161   H     0.32977   0.57590   0.41752   0.00000  Uiso   1.00
H162   H     0.16244   0.60969   0.01782   0.00000  Uiso   1.00
H163   H     0.06329   0.63141   0.48906   0.00000  Uiso   1.00
H164   H     0.09787   0.42526   0.38772   0.00000  Uiso   1.00
N165   N     0.14493   0.48556   0.23543   0.00000  Uiso   1.00
N166   N     0.18840   0.51444   0.26458   0.00000  Uiso   1.00
O167   O     0.29769   0.57963   0.25358   0.00000  Uiso   1.00
O168   O     0.05742   0.57038   0.24424   0.00000  Uiso   1.00
O169   O     0.31490   0.50691   0.33380   0.00000  Uiso   1.00
O170   O     0.07463   0.49766   0.32446   0.00000  Uiso   1.00
O171   O     0.27592   0.42962   0.25577   0.00000  Uiso   1.00
O172   O     0.03565   0.42037   0.24643   0.00000  Uiso   1.00
O173   O     0.25870   0.50234   0.17554   0.00000  Uiso   1.00
O174   O     0.01843   0.49309   0.16620   0.00000  Uiso   1.00
Zn175  Zn    0.27119   0.50618   0.25624   0.00000  Uiso   1.00
Zn176  Zn    0.06214   0.49382   0.24377   0.00000  Uiso   1.00
C177   C     0.34875   0.59833   0.25128   0.00000  Uiso   1.00
C178   C     0.39010   0.51649   0.41435   0.00000  Uiso   1.00
C179   C     0.35556   0.65294   0.25094   0.00000  Uiso   1.00
C180   C     0.36899   0.50325   0.35510   0.00000  Uiso   1.00
C181   C     0.64781   0.34882   0.26501   0.00000  Uiso   1.00
C182   C     0.65256   0.40201   0.25401   0.00000  Uiso   1.00
C183   C     0.63154   0.49921   0.14504   0.00000  Uiso   1.00
C184   C     0.60838   0.44800   0.49863   0.00000  Uiso   1.00
C185   C     0.61387   0.49902   0.08463   0.00000  Uiso   1.00
C186   C     0.37060   0.56138   0.43684   0.00000  Uiso   1.00
C187   C     0.40875   0.59343   0.47677   0.00000  Uiso   1.00
C188   C     0.48101   0.52902   0.48251   0.00000  Uiso   1.00
C189   C     0.46485   0.57928   0.49601   0.00000  Uiso   1.00
C190   C     0.44296   0.49783   0.43976   0.00000  Uiso   1.00
C191   C     0.53471   0.50961   0.00693   0.00000  Uiso   1.00
C192   C     0.55409   0.46621   0.47888   0.00000  Uiso   1.00
C193   C     0.51689   0.43776   0.43487   0.00000  Uiso   1.00
C194   C     0.46046   0.45086   0.41888   0.00000  Uiso   1.00
C195   C     0.56620   0.52636   0.06120   0.00000  Uiso   1.00
C196   C     0.63831   0.46439   0.05169   0.00000  Uiso   1.00
Cl197  Cl    0.59235   0.66184   0.30238   0.00000  Uiso   1.00
Cl198  Cl    0.54315   0.57437   0.10556   0.00000  Uiso   1.00
H199   H     0.34334   0.44518   0.06931   0.00000  Uiso   1.00
H200   H     0.39183   0.33554   0.23308   0.00000  Uiso   1.00
H201   H     0.49006   0.45839   0.20826   0.00000  Uiso   1.00
H202   H     0.50995   0.54159   0.29177   0.00000  Uiso   1.00
H203   H     0.53012   0.40308   0.41541   0.00000  Uiso   1.00
H204   H     0.62454   0.41695   0.47581   0.00000  Uiso   1.00
H205   H     0.66311   0.57590   0.41752   0.00000  Uiso   1.00
H206   H     0.49577   0.60969   0.01782   0.00000  Uiso   1.00
H207   H     0.39663   0.63141   0.48906   0.00000  Uiso   1.00
H208   H     0.43121   0.42526   0.38772   0.00000  Uiso   1.00
N209   N     0.47827   0.48556   0.23543   0.00000  Uiso   1.00
N210   N     0.52173   0.51444   0.26458   0.00000  Uiso   1.00
O211   O     0.63102   0.57963   0.25358   0.00000  Uiso   1.00
O212   O     0.39075   0.57038   0.24424   0.00000  Uiso   1.00
O213   O     0.64823   0.50691   0.33380   0.00000  Uiso   1.00
O214   O     0.40796   0.49766   0.32446   0.00000  Uiso   1.00
O215   O     0.60925   0.42962   0.25577   0.00000  Uiso   1.00
O216   O     0.36898   0.42037   0.24643   0.00000  Uiso   1.00
O217   O     0.59204   0.50234   0.17554   0.00000  Uiso   1.00
O218   O     0.35177   0.49309   0.16620   0.00000  Uiso   1.00
Zn219  Zn    0.60453   0.50618   0.25624   0.00000  Uiso   1.00
Zn220  Zn    0.39547   0.49382   0.24377   0.00000  Uiso   1.00
C221   C     0.68208   0.59833   0.25128   0.00000  Uiso   1.00
C222   C     0.72343   0.51649   0.41435   0.00000  Uiso   1.00
C223   C     0.68889   0.65294   0.25094   0.00000  Uiso   1.00
C224   C     0.70232   0.50325   0.35510   0.00000  Uiso   1.00
C225   C     0.98115   0.34882   0.26501   0.00000  Uiso   1.00
C226   C     0.98590   0.40201   0.25401   0.00000  Uiso   1.00
C227   C     0.96487   0.49921   0.14504   0.00000  Uiso   1.00
C228   C     0.94171   0.44800   0.49863   0.00000  Uiso   1.00
C229   C     0.94720   0.49902   0.08463   0.00000  Uiso   1.00
C230   C     0.70394   0.56138   0.43684   0.00000  Uiso   1.00
C231   C     0.74208   0.59343   0.47677   0.00000  Uiso   1.00
C232   C     0.81434   0.52902   0.48251   0.00000  Uiso   1.00
C233   C     0.79818   0.57928   0.49601   0.00000  Uiso   1.00
C234   C     0.77630   0.49783   0.43976   0.00000  Uiso   1.00
C235   C     0.86804   0.50961   0.00693   0.00000  Uiso   1.00
C236   C     0.88742   0.46621   0.47888   0.00000  Uiso   1.00
C237   C     0.85022   0.43776   0.43487   0.00000  Uiso   1.00
C238   C     0.79379   0.45086   0.41888   0.00000  Uiso   1.00
C239   C     0.89953   0.52636   0.06120   0.00000  Uiso   1.00
C240   C     0.97164   0.46439   0.05169   0.00000  Uiso   1.00
Cl241  Cl    0.92568   0.66184   0.30238   0.00000  Uiso   1.00
Cl242  Cl    0.87649   0.57437   0.10556   0.00000  Uiso   1.00
H243   H     0.67667   0.44518   0.06931   0.00000  Uiso   1.00
H244   H     0.72517   0.33554   0.23308   0.00000  Uiso   1.00
H245   H     0.82339   0.45839   0.20826   0.00000  Uiso   1.00
H246   H     0.84329   0.54159   0.29177   0.00000  Uiso   1.00
H247   H     0.86346   0.40308   0.41541   0.00000  Uiso   1.00
H248   H     0.95788   0.41695   0.47581   0.00000  Uiso   1.00
H249   H     0.99644   0.57590   0.41752   0.00000  Uiso   1.00
H250   H     0.82911   0.60969   0.01782   0.00000  Uiso   1.00
H251   H     0.72996   0.63141   0.48906   0.00000  Uiso   1.00
H252   H     0.76454   0.42526   0.38772   0.00000  Uiso   1.00
N253   N     0.81160   0.48556   0.23543   0.00000  Uiso   1.00
N254   N     0.85507   0.51444   0.26458   0.00000  Uiso   1.00
O255   O     0.96435   0.57963   0.25358   0.00000  Uiso   1.00
O256   O     0.72408   0.57038   0.24424   0.00000  Uiso   1.00
O257   O     0.98157   0.50691   0.33380   0.00000  Uiso   1.00
O258   O     0.74130   0.49766   0.32446   0.00000  Uiso   1.00
O259   O     0.94258   0.42962   0.25577   0.00000  Uiso   1.00
O260   O     0.70231   0.42037   0.24643   0.00000  Uiso   1.00
O261   O     0.92537   0.50234   0.17554   0.00000  Uiso   1.00
O262   O     0.68510   0.49309   0.16620   0.00000  Uiso   1.00
Zn263  Zn    0.93786   0.50618   0.25624   0.00000  Uiso   1.00
Zn264  Zn    0.72881   0.49382   0.24377   0.00000  Uiso   1.00
C265   C     0.01542   0.93166   0.25128   0.00000  Uiso   1.00
C266   C     0.05676   0.84982   0.41435   0.00000  Uiso   1.00
C267   C     0.02223   0.98627   0.25094   0.00000  Uiso   1.00
C268   C     0.03566   0.83658   0.35510   0.00000  Uiso   1.00
C269   C     0.31448   0.68215   0.26501   0.00000  Uiso   1.00
C270   C     0.31923   0.73535   0.25401   0.00000  Uiso   1.00
C271   C     0.29821   0.83254   0.14504   0.00000  Uiso   1.00
C272   C     0.27504   0.78134   0.49863   0.00000  Uiso   1.00
C273   C     0.28054   0.83235   0.08463   0.00000  Uiso   1.00
C274   C     0.03727   0.89471   0.43684   0.00000  Uiso   1.00
C275   C     0.07541   0.92676   0.47677   0.00000  Uiso   1.00
C276   C     0.14767   0.86236   0.48251   0.00000  Uiso   1.00
C277   C     0.13152   0.91261   0.49601   0.00000  Uiso   1.00
C278   C     0.10963   0.83116   0.43976   0.00000  Uiso   1.00
C279   C     0.20138   0.84295   0.00693   0.00000  Uiso   1.00
C280   C     0.22075   0.79954   0.47888   0.00000  Uiso   1.00
C281   C     0.18356   0.77110   0.43487   0.00000  Uiso   1.00
C282   C     0.12713   0.78420   0.41888   0.00000  Uiso   1.00
C283   C     0.23287   0.85969   0.06120   0.00000  Uiso   1.00
C284   C     0.30497   0.79772   0.05169   0.00000  Uiso   1.00
Cl285  Cl    0.25902   0.99518   0.30238   0.00000  Uiso   1.00
Cl286  Cl    0.20982   0.90771   0.10556   0.00000  Uiso   1.00
H287   H     0.01000   0.77852   0.06931   0.00000  Uiso   1.00
H288   H     0.05850   0.66888   0.23308   0.00000  Uiso   1.00
H289   H     0.15673   0.79172   0.20826   0.00000  Uiso   1.00
H290   H     0.17662   0.87493   0.29177   0.00000  Uiso   1.00
H291   H     0.19679   0.73642   0.41541   0.00000  Uiso   1.00
H292   H     0.29121   0.75028   0.47581   0.00000  Uiso   1.00
H293   H     0.32977   0.90923   0.41752   0.00000  Uiso   1.00
H294   H     0.16244   0.94302   0.01782   0.00000  Uiso   1.00
H295   H     0.06329   0.96474   0.48906   0.00000  Uiso   1.00
H296   H     0.09787   0.75859   0.38772   0.00000  Uiso   1.00
N297   N     0.14493   0.81890   0.23543   0.00000  Uiso   1.00
N298   N     0.18840   0.84777   0.26458   0.00000  Uiso   1.00
O299   O     0.29769   0.91296   0.25358   0.00000  Uiso   1.00
O300   O     0.05742   0.90371   0.24424   0.00000  Uiso   1.00
O301   O     0.31490   0.84024   0.33380   0.00000  Uiso   1.00
O302   O     0.07463   0.83099   0.32446   0.00000  Uiso   1.00
O303   O     0.27592   0.76296   0.25577   0.00000  Uiso   1.00
O304   O     0.03565   0.75371   0.24643   0.00000  Uiso   1.00
O305   O     0.25870   0.83567   0.17554   0.00000  Uiso   1.00
O306   O     0.01843   0.82642   0.16620   0.00000  Uiso   1.00
Zn307  Zn    0.27119   0.83951   0.25624   0.00000  Uiso   1.00
Zn308  Zn    0.06214   0.82716   0.24377   0.00000  Uiso   1.00
C309   C     0.34875   0.93166   0.25128   0.00000  Uiso   1.00
C310   C     0.39010   0.84982   0.41435   0.00000  Uiso   1.00
C311   C     0.35556   0.98627   0.25094   0.00000  Uiso   1.00
C312   C     0.36899   0.83658   0.35510   0.00000  Uiso   1.00
C313   C     0.64781   0.68215   0.26501   0.00000  Uiso   1.00
C314   C     0.65256   0.73535   0.25401   0.00000  Uiso   1.00
C315   C     0.63154   0.83254   0.14504   0.00000  Uiso   1.00
C316   C     0.60838   0.78134   0.49863   0.00000  Uiso   1.00
C317   C     0.61387   0.83235   0.08463   0.00000  Uiso   1.00
C318   C     0.37060   0.89471   0.43684   0.00000  Uiso   1.00
C319   C     0.40875   0.92676   0.47677   0.00000  Uiso   1.00
C320   C     0.48101   0.86236   0.48251   0.00000  Uiso   1.00
C321   C     0.46485   0.91261   0.49601   0.00000  Uiso   1.00
C322   C     0.44296   0.83116   0.43976   0.00000  Uiso   1.00
C323   C     0.53471   0.84295   0.00693   0.00000  Uiso   1.00
C324   C     0.55409   0.79954   0.47888   0.00000  Uiso   1.00
C325   C     0.51689   0.77110   0.43487   0.00000  Uiso   1.00
C326   C     0.46046   0.78420   0.41888   0.00000  Uiso   1.00
C327   C     0.56620   0.85969   0.06120   0.00000  Uiso   1.00
C328   C     0.63831   0.79772   0.05169   0.00000  Uiso   1.00
Cl329  Cl    0.59235   0.99518   0.30238   0.00000  Uiso   1.00
Cl330  Cl    0.54315   0.90771   0.10556   0.00000  Uiso   1.00
H331   H     0.34334   0.77852   0.06931   0.00000  Uiso   1.00
H332   H     0.39183   0.66888   0.23308   0.00000  Uiso   1.00
H333   H     0.49006   0.79172   0.20826   0.00000  Uiso   1.00
H334   H     0.50995   0.87493   0.29177   0.00000  Uiso   1.00
H335   H     0.53012   0.73642   0.41541   0.00000  Uiso   1.00
H336   H     0.62454   0.75028   0.47581   0.00000  Uiso   1.00
H337   H     0.66311   0.90923   0.41752   0.00000  Uiso   1.00
H338   H     0.49577   0.94302   0.01782   0.00000  Uiso   1.00
H339   H     0.39663   0.96474   0.48906   0.00000  Uiso   1.00
H340   H     0.43121   0.75859   0.38772   0.00000  Uiso   1.00
N341   N     0.47827   0.81890   0.23543   0.00000  Uiso   1.00
N342   N     0.52173   0.84777   0.26458   0.00000  Uiso   1.00
O343   O     0.63102   0.91296   0.25358   0.00000  Uiso   1.00
O344   O     0.39075   0.90371   0.24424   0.00000  Uiso   1.00
O345   O     0.64823   0.84024   0.33380   0.00000  Uiso   1.00
O346   O     0.40796   0.83099   0.32446   0.00000  Uiso   1.00
O347   O     0.60925   0.76296   0.25577   0.00000  Uiso   1.00
O348   O     0.36898   0.75371   0.24643   0.00000  Uiso   1.00
O349   O     0.59204   0.83567   0.17554   0.00000  Uiso   1.00
O350   O     0.35177   0.82642   0.16620   0.00000  Uiso   1.00
Zn351  Zn    0.60453   0.83951   0.25624   0.00000  Uiso   1.00
Zn352  Zn    0.39547   0.82716   0.24377   0.00000  Uiso   1.00
C353   C     0.68208   0.93166   0.25128   0.00000  Uiso   1.00
C354   C     0.72343   0.84982   0.41435   0.00000  Uiso   1.00
C355   C     0.68889   0.98627   0.25094   0.00000  Uiso   1.00
C356   C     0.70232   0.83658   0.35510   0.00000  Uiso   1.00
C357   C     0.98115   0.68215   0.26501   0.00000  Uiso   1.00
C358   C     0.98590   0.73535   0.25401   0.00000  Uiso   1.00
C359   C     0.96487   0.83254   0.14504   0.00000  Uiso   1.00
C360   C     0.94171   0.78134   0.49863   0.00000  Uiso   1.00
C361   C     0.94720   0.83235   0.08463   0.00000  Uiso   1.00
C362   C     0.70394   0.89471   0.43684   0.00000  Uiso   1.00
C363   C     0.74208   0.92676   0.47677   0.00000  Uiso   1.00
C364   C     0.81434   0.86236   0.48251   0.00000  Uiso   1.00
C365   C     0.79818   0.91261   0.49601   0.00000  Uiso   1.00
C366   C     0.77630   0.83116   0.43976   0.00000  Uiso   1.00
C367   C     0.86804   0.84295   0.00693   0.00000  Uiso   1.00
C368   C     0.88742   0.79954   0.47888   0.00000  Uiso   1.00
C369   C     0.85022   0.77110   0.43487   0.00000  Uiso   1.00
C370   C     0.79379   0.78420   0.41888   0.00000  Uiso   1.00
C371   C     0.89953   0.85969   0.06120   0.00000  Uiso   1.00
C372   C     0.97164   0.79772   0.05169   0.00000  Uiso   1.00
Cl373  Cl    0.92568   0.99518   0.30238   0.00000  Uiso   1.00
Cl374  Cl    0.87649   0.90771   0.10556   0.00000  Uiso   1.00
H375   H     0.67667   0.77852   0.06931   0.00000  Uiso   1.00
H376   H     0.72517   0.66888   0.23308   0.00000  Uiso   1.00
H377   H     0.82339   0.79172   0.20826   0.00000  Uiso   1.00
H378   H     0.84329   0.87493   0.29177   0.00000  Uiso   1.00
H379   H     0.86346   0.73642   0.41541   0.00000  Uiso   1.00
H380   H     0.95788   0.75028   0.47581   0.00000  Uiso   1.00
H381   H     0.99644   0.90923   0.41752   0.00000  Uiso   1.00
H382   H     0.82911   0.94302   0.01782   0.00000  Uiso   1.00
H383   H     0.72996   0.96474   0.48906   0.00000  Uiso   1.00
H384   H     0.76454   0.75859   0.38772   0.00000  Uiso   1.00
N385   N     0.81160   0.81890   0.23543   0.00000  Uiso   1.00
N386   N     0.85507   0.84777   0.26458   0.00000  Uiso   1.00
O387   O     0.96435   0.91296   0.25358   0.00000  Uiso   1.00
O388   O     0.72408   0.90371   0.24424   0.00000  Uiso   1.00
O389   O     0.98157   0.84024   0.33380   0.00000  Uiso   1.00
O390   O     0.74130   0.83099   0.32446   0.00000  Uiso   1.00
O391   O     0.94258   0.76296   0.25577   0.00000  Uiso   1.00
O392   O     0.70231   0.75371   0.24643   0.00000  Uiso   1.00
O393   O     0.92537   0.83567   0.17554   0.00000  Uiso   1.00
O394   O     0.68510   0.82642   0.16620   0.00000  Uiso   1.00
Zn395  Zn    0.93786   0.83951   0.25624   0.00000  Uiso   1.00
Zn396  Zn    0.72881   0.82716   0.24377   0.00000  Uiso   1.00
C397   C     0.01542   0.26499   0.75128   0.00000  Uiso   1.00
C398   C     0.05676   0.18316   0.91435   0.00000  Uiso   1.00
C399   C     0.02223   0.31960   0.75094   0.00000  Uiso   1.00
C400   C     0.03566   0.16991   0.85510   0.00000  Uiso   1.00
C401   C     0.31448   0.01549   0.76501   0.00000  Uiso   1.00
C402   C     0.31923   0.06868   0.75401   0.00000  Uiso   1.00
C403   C     0.29821   0.16588   0.64504   0.00000  Uiso   1.00
C404   C     0.27504   0.11467   0.99863   0.00000  Uiso   1.00
C405   C     0.28054   0.16569   0.58463   0.00000  Uiso   1.00
C406   C     0.03727   0.22805   0.93684   0.00000  Uiso   1.00
C407   C     0.07541   0.26010   0.97677   0.00000  Uiso   1.00
C408   C     0.14767   0.19569   0.98251   0.00000  Uiso   1.00
C409   C     0.13152   0.24594   0.99601   0.00000  Uiso   1.00
C410   C     0.10963   0.16450   0.93976   0.00000  Uiso   1.00
C411   C     0.20138   0.17628   0.50693   0.00000  Uiso   1.00
C412   C     0.22075   0.13287   0.97888   0.00000  Uiso   1.00
C413   C     0.18356   0.10443   0.93487   0.00000  Uiso   1.00
C414   C     0.12713   0.11753   0.91888   0.00000  Uiso   1.00
C415   C     0.23287   0.19302   0.56120   0.00000  Uiso   1.00
C416   C     0.30497   0.13105   0.55169   0.00000  Uiso   1.00
Cl417  Cl    0.25902   0.32851   0.80238   0.00000  Uiso   1.00
Cl418  Cl    0.20982   0.24104   0.60556   0.00000  Uiso   1.00
H419   H     0.01000   0.11185   0.56931   0.00000  Uiso   1.00
H420   H     0.05850   0.00221   0.73308   0.00000  Uiso   1.00
H421   H     0.15673   0.12505   0.70826   0.00000  Uiso   1.00
H422   H     0.17662   0.20826   0.79177   0.00000  Uiso   1.00
H423   H     0.19679   0.06975   0.91541   0.00000  Uiso   1.00
H424   H     0.29121   0.08361   0.97581   0.00000  Uiso   1.00
H425   H     0.32977   0.24257   0.91752   0.00000  Uiso   1.00
H426   H     0.16244   0.27636   0.51782   0.00000  Uiso   1.00
H427   H     0.06329   0.29807   0.98906   0.00000  Uiso   1.00
H428   H     0.09787   0.09192   0.88772   0.00000  Uiso   1.00
N429   N     0.14493   0.15223   0.73543   0.00000  Uiso   1.00
N430   N     0.18840   0.18110   0.76458   0.00000  Uiso   1.00
O431   O     0.29769   0.24629   0.75358   0.00000  Uiso   1.00
O432   O     0.05742   0.23704   0.74424   0.00000  Uiso   1.00
O433   O     0.31490   0.17358   0.83380   0.00000  Uiso   1.00
O434   O     0.07463   0.16433   0.82446   0.00000  Uiso   1.00
O435   O     0.27592   0.09629   0.75577   0.00000  Uiso   1.00
O436   O     0.03565   0.08704   0.74643   0.00000  Uiso   1.00
O437   O     0.25870   0.16901   0.67554   0.00000  Uiso   1.00
O438   O     0.01843   0.15976   0.66620   0.00000  Uiso   1.00
Zn439  Zn    0.27119   0.17284   0.75624   0.00000  Uiso   1.00
Zn440  Zn    0.06214   0.16049   0.74377   0.00000  Uiso   1.00
C441   C     0.34875   0.26499   0.75128   0.00000  Uiso   1.00
C442   C     0.39010   0.18316   0.91435   0.00000  Uiso   1.00
C443   C     0.35556   0.31960   0.75094   0.00000  Uiso   1.00
C444   C     0.36899   0.16991   0.85510   0.00000  Uiso   1.00
C445   C     0.64781   0.01549   0.76501   0.00000  Uiso   1.00
C446   C     0.65256   0.06868   0.75401   0.00000  Uiso   1.00
C447   C     0.63154   0.16588   0.64504   0.00000  Uiso   1.00
C448   C     0.60838   0.11467   0.99863   0.00000  Uiso   1.00
C449   C     0.61387   0.16569   0.58463   0.00000  Uiso   1.00
C450   C     0.37060   0.22805   0.93684   0.00000  Uiso   1.00
C451   C     0.40875   0.26010   0.97677   0.00000  Uiso   1.00
C452   C     0.48101   0.19569   0.98251   0.00000  Uiso   1.00
C453   C     0.46485   0.24594   0.99601   0.00000  Uiso   1.00
C454   C     0.44296   0.16450   0.93976   0.00000  Uiso   1.00
C455   C     0.53471   0.17628   0.50693   0.00000  Uiso   1.00
C456   C     0.55409   0.13287   0.97888   0.00000  Uiso   1.00
C457   C     0.51689   0.10443   0.93487   0.00000  Uiso   1.00
C458   C     0.46046   0.11753   0.91888   0.00000  Uiso   1.00
C459   C     0.56620   0.19302   0.56120   0.00000  Uiso   1.00
C460   C     0.63831   0.13105   0.55169   0.00000  Uiso   1.00
Cl461  Cl    0.59235   0.32851   0.80238   0.00000  Uiso   1.00
Cl462  Cl    0.54315   0.24104   0.60556   0.00000  Uiso   1.00
H463   H     0.34334   0.11185   0.56931   0.00000  Uiso   1.00
H464   H     0.39183   0.00221   0.73308   0.00000  Uiso   1.00
H465   H     0.49006   0.12505   0.70826   0.00000  Uiso   1.00
H466   H     0.50995   0.20826   0.79177   0.00000  Uiso   1.00
H467   H     0.53012   0.06975   0.91541   0.00000  Uiso   1.00
H468   H     0.62454   0.08361   0.97581   0.00000  Uiso   1.00
H469   H     0.66311   0.24257   0.91752   0.00000  Uiso   1.00
H470   H     0.49577   0.27636   0.51782   0.00000  Uiso   1.00
H471   H     0.39663   0.29807   0.98906   0.00000  Uiso   1.00
H472   H     0.43121   0.09192   0.88772   0.00000  Uiso   1.00
N473   N     0.47827   0.15223   0.73543   0.00000  Uiso   1.00
N474   N     0.52173   0.18110   0.76458   0.00000  Uiso   1.00
O475   O     0.63102   0.24629   0.75358   0.00000  Uiso   1.00
O476   O     0.39075   0.23704   0.74424   0.00000  Uiso   1.00
O477   O     0.64823   0.17358   0.83380   0.00000  Uiso   1.00
O478   O     0.40796   0.16433   0.82446   0.00000  Uiso   1.00
O479   O     0.60925   0.09629   0.75577   0.00000  Uiso   1.00
O480   O     0.36898   0.08704   0.74643   0.00000  Uiso   1.00
O481   O     0.59204   0.16901   0.67554   0.00000  Uiso   1.00
O482   O     0.35177   0.15976   0.66620   0.00000  Uiso   1.00
Zn483  Zn    0.60453   0.17284   0.75624   0.00000  Uiso   1.00
Zn484  Zn    0.39547   0.16049   0.74377   0.00000  Uiso   1.00
C485   C     0.68208   0.26499   0.75128   0.00000  Uiso   1.00
C486   C     0.72343   0.18316   0.91435   0.00000  Uiso   1.00
C487   C     0.68889   0.31960   0.75094   0.00000  Uiso   1.00
C488   C     0.70232   0.16991   0.85510   0.00000  Uiso   1.00
C489   C     0.98115   0.01549   0.76501   0.00000  Uiso   1.00
C490   C     0.98590   0.06868   0.75401   0.00000  Uiso   1.00
C491   C     0.96487   0.16588   0.64504   0.00000  Uiso   1.00
C492   C     0.94171   0.11467   0.99863   0.00000  Uiso   1.00
C493   C     0.94720   0.16569   0.58463   0.00000  Uiso   1.00
C494   C     0.70394   0.22805   0.93684   0.00000  Uiso   1.00
C495   C     0.74208   0.26010   0.97677   0.00000  Uiso   1.00
C496   C     0.81434   0.19569   0.98251   0.00000  Uiso   1.00
C497   C     0.79818   0.24594   0.99601   0.00000  Uiso   1.00
C498   C     0.77630   0.16450   0.93976   0.00000  Uiso   1.00
C499   C     0.86804   0.17628   0.50693   0.00000  Uiso   1.00
C500   C     0.88742   0.13287   0.97888   0.00000  Uiso   1.00
C501   C     0.85022   0.10443   0.93487   0.00000  Uiso   1.00
C502   C     0.79379   0.11753   0.91888   0.00000  Uiso   1.00
C503   C     0.89953   0.19302   0.56120   0.00000  Uiso   1.00
C504   C     0.97164   0.13105   0.55169   0.00000  Uiso   1.00
Cl505  Cl    0.92568   0.32851   0.80238   0.00000  Uiso   1.00
Cl506  Cl    0.87649   0.24104   0.60556   0.00000  Uiso   1.00
H507   H     0.67667   0.11185   0.56931   0.00000  Uiso   1.00
H508   H     0.72517   0.00221   0.73308   0.00000  Uiso   1.00
H509   H     0.82339   0.12505   0.70826   0.00000  Uiso   1.00
H510   H     0.84329   0.20826   0.79177   0.00000  Uiso   1.00
H511   H     0.86346   0.06975   0.91541   0.00000  Uiso   1.00
H512   H     0.95788   0.08361   0.97581   0.00000  Uiso   1.00
H513   H     0.99644   0.24257   0.91752   0.00000  Uiso   1.00
H514   H     0.82911   0.27636   0.51782   0.00000  Uiso   1.00
H515   H     0.72996   0.29807   0.98906   0.00000  Uiso   1.00
H516   H     0.76454   0.09192   0.88772   0.00000  Uiso   1.00
N517   N     0.81160   0.15223   0.73543   0.00000  Uiso   1.00
N518   N     0.85507   0.18110   0.76458   0.00000  Uiso   1.00
O519   O     0.96435   0.24629   0.75358   0.00000  Uiso   1.00
O520   O     0.72408   0.23704   0.74424   0.00000  Uiso   1.00
O521   O     0.98157   0.17358   0.83380   0.00000  Uiso   1.00
O522   O     0.74130   0.16433   0.82446   0.00000  Uiso   1.00
O523   O     0.94258   0.09629   0.75577   0.00000  Uiso   1.00
O524   O     0.70231   0.08704   0.74643   0.00000  Uiso   1.00
O525   O     0.92537   0.16901   0.67554   0.00000  Uiso   1.00
O526   O     0.68510   0.15976   0.66620   0.00000  Uiso   1.00
Zn527  Zn    0.93786   0.17284   0.75624   0.00000  Uiso   1.00
Zn528  Zn    0.72881   0.16049   0.74377   0.00000  Uiso   1.00
C529   C     0.01542   0.59833   0.75128   0.00000  Uiso   1.00
C530   C     0.05676   0.51649   0.91435   0.00000  Uiso   1.00
C531   C     0.02223   0.65294   0.75094   0.00000  Uiso   1.00
C532   C     0.03566   0.50325   0.85510   0.00000  Uiso   1.00
C533   C     0.31448   0.34882   0.76501   0.00000  Uiso   1.00
C534   C     0.31923   0.40201   0.75401   0.00000  Uiso   1.00
C535   C     0.29821   0.49921   0.64504   0.00000  Uiso   1.00
C536   C     0.27504   0.44800   0.99863   0.00000  Uiso   1.00
C537   C     0.28054   0.49902   0.58463   0.00000  Uiso   1.00
C538   C     0.03727   0.56138   0.93684   0.00000  Uiso   1.00
C539   C     0.07541   0.59343   0.97677   0.00000  Uiso   1.00
C540   C     0.14767   0.52902   0.98251   0.00000  Uiso   1.00
C541   C     0.13152   0.57928   0.99601   0.00000  Uiso   1.00
C542   C     0.10963   0.49783   0.93976   0.00000  Uiso   1.00
C543   C     0.20138   0.50961   0.50693   0.00000  Uiso   1.00
C544   C     0.22075   0.46621   0.97888   0.00000  Uiso   1.00
C545   C     0.18356   0.43776   0.93487   0.00000  Uiso   1.00
C546   C     0.12713   0.45086   0.91888   0.00000  Uiso   1.00
C547   C     0.23287   0.52636   0.56120   0.00000  Uiso   1.00
C548   C     0.30497   0.46439   0.55169   0.00000  Uiso   1.00
Cl549  Cl    0.25902   0.66184   0.80238   0.00000  Uiso   1.00
Cl550  Cl    0.20982   0.57437   0.60556   0.00000  Uiso   1.00
H551   H     0.01000   0.44518   0.56931   0.00000  Uiso   1.00
H552   H     0.05850   0.33554   0.73308   0.00000  Uiso   1.00
H553   H     0.15673   0.45839   0.70826   0.00000  Uiso   1.00
H554   H     0.17662   0.54159   0.79177   0.00000  Uiso   1.00
H555   H     0.19679   0.40308   0.91541   0.00000  Uiso   1.00
H556   H     0.29121   0.41695   0.97581   0.00000  Uiso   1.00
H557   H     0.32977   0.57590   0.91752   0.00000  Uiso   1.00
H558   H     0.16244   0.60969   0.51782   0.00000  Uiso   1.00
H559   H     0.06329   0.63141   0.98906   0.00000  Uiso   1.00
H560   H     0.09787   0.42526   0.88772   0.00000  Uiso   1.00
N561   N     0.14493   0.48556   0.73543   0.00000  Uiso   1.00
N562   N     0.18840   0.51444   0.76458   0.00000  Uiso   1.00
O563   O     0.29769   0.57963   0.75358   0.00000  Uiso   1.00
O564   O     0.05742   0.57038   0.74424   0.00000  Uiso   1.00
O565   O     0.31490   0.50691   0.83380   0.00000  Uiso   1.00
O566   O     0.07463   0.49766   0.82446   0.00000  Uiso   1.00
O567   O     0.27592   0.42962   0.75577   0.00000  Uiso   1.00
O568   O     0.03565   0.42037   0.74643   0.00000  Uiso   1.00
O569   O     0.25870   0.50234   0.67554   0.00000  Uiso   1.00
O570   O     0.01843   0.49309   0.66620   0.00000  Uiso   1.00
Zn571  Zn    0.27119   0.50618   0.75624   0.00000  Uiso   1.00
Zn572  Zn    0.06214   0.49382   0.74377   0.00000  Uiso   1.00
C573   C     0.34875   0.59833   0.75128   0.00000  Uiso   1.00
C574   C     0.39010   0.51649   0.91435   0.00000  Uiso   1.00
C575   C     0.35556   0.65294   0.75094   0.00000  Uiso   1.00
C576   C     0.36899   0.50325   0.85510   0.00000  Uiso   1.00
C577   C     0.64781   0.34882   0.76501   0.00000  Uiso   1.00
C578   C     0.65256   0.40201   0.75401   0.00000  Uiso   1.00
C579   C     0.63154   0.49921   0.64504   0.00000  Uiso   1.00
C580   C     0.60838   0.44800   0.99863   0.00000  Uiso   1.00
C581   C     0.61387   0.49902   0.58463   0.00000  Uiso   1.00
C582   C     0.37060   0.56138   0.93684   0.00000  Uiso   1.00
C583   C     0.40875   0.59343   0.97677   0.00000  Uiso   1.00
C584   C     0.48101   0.52902   0.98251   0.00000  Uiso   1.00
C585   C     0.46485   0.57928   0.99601   0.00000  Uiso   1.00
C586   C     0.44296   0.49783   0.93976   0.00000  Uiso   1.00
C587   C     0.53471   0.50961   0.50693   0.00000  Uiso   1.00
C588   C     0.55409   0.46621   0.97888   0.00000  Uiso   1.00
C589   C     0.51689   0.43776   0.93487   0.00000  Uiso   1.00
C590   C     0.46046   0.45086   0.91888   0.00000  Uiso   1.00
C591   C     0.56620   0.52636   0.56120   0.00000  Uiso   1.00
C592   C     0.63831   0.46439   0.55169   0.00000  Uiso   1.00
Cl593  Cl    0.59235   0.66184   0.80238   0.00000  Uiso   1.00
Cl594  Cl    0.54315   0.57437   0.60556   0.00000  Uiso   1.00
H595   H     0.34334   0.44518   0.56931   0.00000  Uiso   1.00
H596   H     0.39183   0.33554   0.73308   0.00000  Uiso   1.00
H597   H     0.49006   0.45839   0.70826   0.00000  Uiso   1.00
H598   H     0.50995   0.54159   0.79177   0.00000  Uiso   1.00
H599   H     0.53012   0.40308   0.91541   0.00000  Uiso   1.00
H600   H     0.62454   0.41695   0.97581   0.00000  Uiso   1.00
H601   H     0.66311   0.57590   0.91752   0.00000  Uiso   1.00
H602   H     0.49577   0.60969   0.51782   0.00000  Uiso   1.00
H603   H     0.39663   0.63141   0.98906   0.00000  Uiso   1.00
H604   H     0.43121   0.42526   0.88772   0.00000  Uiso   1.00
N605   N     0.47827   0.48556   0.73543   0.00000  Uiso   1.00
N606   N     0.52173   0.51444   0.76458   0.00000  Uiso   1.00
O607   O     0.63102   0.57963   0.75358   0.00000  Uiso   1.00
O608   O     0.39075   0.57038   0.74424   0.00000  Uiso   1.00
O609   O     0.64823   0.50691   0.83380   0.00000  Uiso   1.00
O610   O     0.40796   0.49766   0.82446   0.00000  Uiso   1.00
O611   O     0.60925   0.42962   0.75577   0.00000  Uiso   1.00
O612   O     0.36898   0.42037   0.74643   0.00000  Uiso   1.00
O613   O     0.59204   0.50234   0.67554   0.00000  Uiso   1.00
O614   O     0.35177   0.49309   0.66620   0.00000  Uiso   1.00
Zn615  Zn    0.60453   0.50618   0.75624   0.00000  Uiso   1.00
Zn616  Zn    0.39547   0.49382   0.74377   0.00000  Uiso   1.00
C617   C     0.68208   0.59833   0.75128   0.00000  Uiso   1.00
C618   C     0.72343   0.51649   0.91435   0.00000  Uiso   1.00
C619   C     0.68889   0.65294   0.75094   0.00000  Uiso   1.00
C620   C     0.70232   0.50325   0.85510   0.00000  Uiso   1.00
C621   C     0.98115   0.34882   0.76501   0.00000  Uiso   1.00
C622   C     0.98590   0.40201   0.75401   0.00000  Uiso   1.00
C623   C     0.96487   0.49921   0.64504   0.00000  Uiso   1.00
C624   C     0.94171   0.44800   0.99863   0.00000  Uiso   1.00
C625   C     0.94720   0.49902   0.58463   0.00000  Uiso   1.00
C626   C     0.70394   0.56138   0.93684   0.00000  Uiso   1.00
C627   C     0.74208   0.59343   0.97677   0.00000  Uiso   1.00
C628   C     0.81434   0.52902   0.98251   0.00000  Uiso   1.00
C629   C     0.79818   0.57928   0.99601   0.00000  Uiso   1.00
C630   C     0.77630   0.49783   0.93976   0.00000  Uiso   1.00
C631   C     0.86804   0.50961   0.50693   0.00000  Uiso   1.00
C632   C     0.88742   0.46621   0.97888   0.00000  Uiso   1.00
C633   C     0.85022   0.43776   0.93487   0.00000  Uiso   1.00
C634   C     0.79379   0.45086   0.91888   0.00000  Uiso   1.00
C635   C     0.89953   0.52636   0.56120   0.00000  Uiso   1.00
C636   C     0.97164   0.46439   0.55169   0.00000  Uiso   1.00
Cl637  Cl    0.92568   0.66184   0.80238   0.00000  Uiso   1.00
Cl638  Cl    0.87649   0.57437   0.60556   0.00000  Uiso   1.00
H639   H     0.67667   0.44518   0.56931   0.00000  Uiso   1.00
H640   H     0.72517   0.33554   0.73308   0.00000  Uiso   1.00
H641   H     0.82339   0.45839   0.70826   0.00000  Uiso   1.00
H642   H     0.84329   0.54159   0.79177   0.00000  Uiso   1.00
H643   H     0.86346   0.40308   0.91541   0.00000  Uiso   1.00
H644   H     0.95788   0.41695   0.97581   0.00000  Uiso   1.00
H645   H     0.99644   0.57590   0.91752   0.00000  Uiso   1.00
H646   H     0.82911   0.60969   0.51782   0.00000  Uiso   1.00
H647   H     0.72996   0.63141   0.98906   0.00000  Uiso   1.00
H648   H     0.76454   0.42526   0.88772   0.00000  Uiso   1.00
N649   N     0.81160   0.48556   0.73543   0.00000  Uiso   1.00
N650   N     0.85507   0.51444   0.76458   0.00000  Uiso   1.00
O651   O     0.96435   0.57963   0.75358   0.00000  Uiso   1.00
O652   O     0.72408   0.57038   0.74424   0.00000  Uiso   1.00
O653   O     0.98157   0.50691   0.83380   0.00000  Uiso   1.00
O654   O     0.74130   0.49766   0.82446   0.00000  Uiso   1.00
O655   O     0.94258   0.42962   0.75577   0.00000  Uiso   1.00
O656   O     0.70231   0.42037   0.74643   0.00000  Uiso   1.00
O657   O     0.92537   0.50234   0.67554   0.00000  Uiso   1.00
O658   O     0.68510   0.49309   0.66620   0.00000  Uiso   1.00
Zn659  Zn    0.93786   0.50618   0.75624   0.00000  Uiso   1.00
Zn660  Zn    0.72881   0.49382   0.74377   0.00000  Uiso   1.00
C661   C     0.01542   0.93166   0.75128   0.00000  Uiso   1.00
C662   C     0.05676   0.84982   0.91435   0.00000  Uiso   1.00
C663   C     0.02223   0.98627   0.75094   0.00000  Uiso   1.00
C664   C     0.03566   0.83658   0.85510   0.00000  Uiso   1.00
C665   C     0.31448   0.68215   0.76501   0.00000  Uiso   1.00
C666   C     0.31923   0.73535   0.75401   0.00000  Uiso   1.00
C667   C     0.29821   0.83254   0.64504   0.00000  Uiso   1.00
C668   C     0.27504   0.78134   0.99863   0.00000  Uiso   1.00
C669   C     0.28054   0.83235   0.58463   0.00000  Uiso   1.00
C670   C     0.03727   0.89471   0.93684   0.00000  Uiso   1.00
C671   C     0.07541   0.92676   0.97677   0.00000  Uiso   1.00
C672   C     0.14767   0.86236   0.98251   0.00000  Uiso   1.00
C673   C     0.13152   0.91261   0.99601   0.00000  Uiso   1.00
C674   C     0.10963   0.83116   0.93976   0.00000  Uiso   1.00
C675   C     0.20138   0.84295   0.50693   0.00000  Uiso   1.00
C676   C     0.22075   0.79954   0.97888   0.00000  Uiso   1.00
C677   C     0.18356   0.77110   0.93487   0.00000  Uiso   1.00
C678   C     0.12713   0.78420   0.91888   0.00000  Uiso   1.00
C679   C     0.23287   0.85969   0.56120   0.00000  Uiso   1.00
C680   C     0.30497   0.79772   0.55169   0.00000  Uiso   1.00
Cl681  Cl    0.25902   0.99518   0.80238   0.00000  Uiso   1.00
Cl682  Cl    0.20982   0.90771   0.60556   0.00000  Uiso   1.00
H683   H     0.01000   0.77852   0.56931   0.00000  Uiso   1.00
H684   H     0.05850   0.66888   0.73308   0.00000  Uiso   1.00
H685   H     0.15673   0.79172   0.70826   0.00000  Uiso   1.00
H686   H     0.17662   0.87493   0.79177   0.00000  Uiso   1.00
H687   H     0.19679   0.73642   0.91541   0.00000  Uiso   1.00
H688   H     0.29121   0.75028   0.97581   0.00000  Uiso   1.00
H689   H     0.32977   0.90923   0.91752   0.00000  Uiso   1.00
H690   H     0.16244   0.94302   0.51782   0.00000  Uiso   1.00
H691   H     0.06329   0.96474   0.98906   0.00000  Uiso   1.00
H692   H     0.09787   0.75859   0.88772   0.00000  Uiso   1.00
N693   N     0.14493   0.81890   0.73543   0.00000  Uiso   1.00
N694   N     0.18840   0.84777   0.76458   0.00000  Uiso   1.00
O695   O     0.29769   0.91296   0.75358   0.00000  Uiso   1.00
O696   O     0.05742   0.90371   0.74424   0.00000  Uiso   1.00
O697   O     0.31490   0.84024   0.83380   0.00000  Uiso   1.00
O698   O     0.07463   0.83099   0.82446   0.00000  Uiso   1.00
O699   O     0.27592   0.76296   0.75577   0.00000  Uiso   1.00
O700   O     0.03565   0.75371   0.74643   0.00000  Uiso   1.00
O701   O     0.25870   0.83567   0.67554   0.00000  Uiso   1.00
O702   O     0.01843   0.82642   0.66620   0.00000  Uiso   1.00
Zn703  Zn    0.27119   0.83951   0.75624   0.00000  Uiso   1.00
Zn704  Zn    0.06214   0.82716   0.74377   0.00000  Uiso   1.00
C705   C     0.34875   0.93166   0.75128   0.00000  Uiso   1.00
C706   C     0.39010   0.84982   0.91435   0.00000  Uiso   1.00
C707   C     0.35556   0.98627   0.75094   0.00000  Uiso   1.00
C708   C     0.36899   0.83658   0.85510   0.00000  Uiso   1.00
C709   C     0.64781   0.68215   0.76501   0.00000  Uiso   1.00
C710   C     0.65256   0.73535   0.75401   0.00000  Uiso   1.00
C711   C     0.63154   0.83254   0.64504   0.00000  Uiso   1.00
C712   C     0.60838   0.78134   0.99863   0.00000  Uiso   1.00
C713   C     0.61387   0.83235   0.58463   0.00000  Uiso   1.00
C714   C     0.37060   0.89471   0.93684   0.00000  Uiso   1.00
C715   C     0.40875   0.92676   0.97677   0.00000  Uiso   1.00
C716   C     0.48101   0.86236   0.98251   0.00000  Uiso   1.00
C717   C     0.46485   0.91261   0.99601   0.00000  Uiso   1.00
C718   C     0.44296   0.83116   0.93976   0.00000  Uiso   1.00
C719   C     0.53471   0.84295   0.50693   0.00000  Uiso   1.00
C720   C     0.55409   0.79954   0.97888   0.00000  Uiso   1.00
C721   C     0.51689   0.77110   0.93487   0.00000  Uiso   1.00
C722   C     0.46046   0.78420   0.91888   0.00000  Uiso   1.00
C723   C     0.56620   0.85969   0.56120   0.00000  Uiso   1.00
C724   C     0.63831   0.79772   0.55169   0.00000  Uiso   1.00
Cl725  Cl    0.59235   0.99518   0.80238   0.00000  Uiso   1.00
Cl726  Cl    0.54315   0.90771   0.60556   0.00000  Uiso   1.00
H727   H     0.34334   0.77852   0.56931   0.00000  Uiso   1.00
H728   H     0.39183   0.66888   0.73308   0.00000  Uiso   1.00
H729   H     0.49006   0.79172   0.70826   0.00000  Uiso   1.00
H730   H     0.50995   0.87493   0.79177   0.00000  Uiso   1.00
H731   H     0.53012   0.73642   0.91541   0.00000  Uiso   1.00
H732   H     0.62454   0.75028   0.97581   0.00000  Uiso   1.00
H733   H     0.66311   0.90923   0.91752   0.00000  Uiso   1.00
H734   H     0.49577   0.94302   0.51782   0.00000  Uiso   1.00
H735   H     0.39663   0.96474   0.98906   0.00000  Uiso   1.00
H736   H     0.43121   0.75859   0.88772   0.00000  Uiso   1.00
N737   N     0.47827   0.81890   0.73543   0.00000  Uiso   1.00
N738   N     0.52173   0.84777   0.76458   0.00000  Uiso   1.00
O739   O     0.63102   0.91296   0.75358   0.00000  Uiso   1.00
O740   O     0.39075   0.90371   0.74424   0.00000  Uiso   1.00
O741   O     0.64823   0.84024   0.83380   0.00000  Uiso   1.00
O742   O     0.40796   0.83099   0.82446   0.00000  Uiso   1.00
O743   O     0.60925   0.76296   0.75577   0.00000  Uiso   1.00
O744   O     0.36898   0.75371   0.74643   0.00000  Uiso   1.00
O745   O     0.59204   0.83567   0.67554   0.00000  Uiso   1.00
O746   O     0.35177   0.82642   0.66620   0.00000  Uiso   1.00
Zn747  Zn    0.60453   0.83951   0.75624   0.00000  Uiso   1.00
Zn748  Zn    0.39547   0.82716   0.74377   0.00000  Uiso   1.00
C749   C     0.68208   0.93166   0.75128   0.00000  Uiso   1.00
C750   C     0.72343   0.84982   0.91435   0.00000  Uiso   1.00
C751   C     0.68889   0.98627   0.75094   0.00000  Uiso   1.00
C752   C     0.70232   0.83658   0.85510   0.00000  Uiso   1.00
C753   C     0.98115   0.68215   0.76501   0.00000  Uiso   1.00
C754   C     0.98590   0.73535   0.75401   0.00000  Uiso   1.00
C755   C     0.96487   0.83254   0.64504   0.00000  Uiso   1.00
C756   C     0.94171   0.78134   0.99863   0.00000  Uiso   1.00
C757   C     0.94720   0.83235   0.58463   0.00000  Uiso   1.00
C758   C     0.70394   0.89471   0.93684   0.00000  Uiso   1.00
C759   C     0.74208   0.92676   0.97677   0.00000  Uiso   1.00
C760   C     0.81434   0.86236   0.98251   0.00000  Uiso   1.00
C761   C     0.79818   0.91261   0.99601   0.00000  Uiso   1.00
C762   C     0.77630   0.83116   0.93976   0.00000  Uiso   1.00
C763   C     0.86804   0.84295   0.50693   0.00000  Uiso   1.00
C764   C     0.88742   0.79954   0.97888   0.00000  Uiso   1.00
C765   C     0.85022   0.77110   0.93487   0.00000  Uiso   1.00
C766   C     0.79379   0.78420   0.91888   0.00000  Uiso   1.00
C767   C     0.89953   0.85969   0.56120   0.00000  Uiso   1.00
C768   C     0.97164   0.79772   0.55169   0.00000  Uiso   1.00
Cl769  Cl    0.92568   0.99518   0.80238   0.00000  Uiso   1.00
Cl770  Cl    0.87649   0.90771   0.60556   0.00000  Uiso   1.00
H771   H     0.67667   0.77852   0.56931   0.00000  Uiso   1.00
H772   H     0.72517   0.66888   0.73308   0.00000  Uiso   1.00
H773   H     0.82339   0.79172   0.70826   0.00000  Uiso   1.00
H774   H     0.84329   0.87493   0.79177   0.00000  Uiso   1.00
H775   H     0.86346   0.73642   0.91541   0.00000  Uiso   1.00
H776   H     0.95788   0.75028   0.97581   0.00000  Uiso   1.00
H777   H     0.99644   0.90923   0.91752   0.00000  Uiso   1.00
H778   H     0.82911   0.94302   0.51782   0.00000  Uiso   1.00
H779   H     0.72996   0.96474   0.98906   0.00000  Uiso   1.00
H780   H     0.76454   0.75859   0.88772   0.00000  Uiso   1.00
N781   N     0.81160   0.81890   0.73543   0.00000  Uiso   1.00
N782   N     0.85507   0.84777   0.76458   0.00000  Uiso   1.00
O783   O     0.96435   0.91296   0.75358   0.00000  Uiso   1.00
O784   O     0.72408   0.90371   0.74424   0.00000  Uiso   1.00
O785   O     0.98157   0.84024   0.83380   0.00000  Uiso   1.00
O786   O     0.74130   0.83099   0.82446   0.00000  Uiso   1.00
O787   O     0.94258   0.76296   0.75577   0.00000  Uiso   1.00
O788   O     0.70231   0.75371   0.74643   0.00000  Uiso   1.00
O789   O     0.92537   0.83567   0.67554   0.00000  Uiso   1.00
O790   O     0.68510   0.82642   0.66620   0.00000  Uiso   1.00
Zn791  Zn    0.93786   0.83951   0.75624   0.00000  Uiso   1.00
Zn792  Zn    0.72881   0.82716   0.74377   0.00000  Uiso   1.00
loop_
_geom_bond_atom_site_label_1
_geom_bond_atom_site_label_2
_geom_bond_distance
_geom_bond_site_symmetry_2
_ccdc_geom_bond_type
C1     O36     1.294   .     A
C1     C3      1.403   .     S
C1     O123    1.270   1_455 S
C2     C4      1.449   .     S
C2     C14     1.405   .     A
C2     C10     1.400   .     A
C3     C225    1.349   1_455 S
C3     H156    1.088   .     S
C4     O38     1.295   .     A
C4     O125    1.289   1_455 S
C5     C6      1.406   .     S
C5     C311    1.349   1_545 S
C5     Cl285   1.782   1_545 S
C6     O39     1.287   .     A
C6     O84     1.275   .     S
C7     O41     1.296   .     A
C7     C9      1.448   .     S
C7     O86     1.288   .     S
C8     C16     1.395   .     A
C8     H28     1.084   .     S
C8     C416    1.380   .     S
C9     C20     1.397   .     A
C9     C19     1.406   .     A
C10    C11     1.386   .     A
C10    H117    1.084   1_455 S
C11    H31     1.083   .     S
C11    C13     1.391   .     A
C12    C14     1.413   .     A
C12    C13     1.416   .     A
C12    C411    1.422   .     S
C13    H426    1.075   .     S
C14    C18     1.409   .     A
C15    C19     1.418   .     A
C15    C408    1.422   1_554 S
C15    C412    1.430   1_554 S
C16    C17     1.389   .     A
C16    C411    1.430   .     S
C17    C18     1.378   .     A
C17    H27     1.085   .     S
C18    H32     1.084   .     S
C19    Cl22    1.785   .     S
C20    C404    1.380   1_554 S
C20    H67     1.084   .     S
Cl21   C137    1.782   .     S
H23    C108    1.084   1_455 S
H24    C267    1.088   1_545 S
H25    N33     1.029   .     S
H26    N34     1.029   .     S
H29    C54     1.084   .     S
H30    C409    1.075   1_554 S
N33    N34     1.291   .     D
N33    Zn44    2.016   .     S
N34    Zn43    2.016   .     S
O35    Zn43    1.953   .     S
O35    C45     1.270   .     S
O36    Zn44    1.980   .     S
O37    Zn43    1.968   .     S
O37    C48     1.289   .     S
O38    Zn44    1.925   .     S
O39    Zn43    1.980   .     S
O40    Zn44    1.953   .     S
O40    C94     1.275   1_455 S
O41    Zn43    1.925   .     S
O42    Zn44    1.968   .     S
O42    C95     1.288   1_455 S
C45    O80     1.294   .     A
C45    C47     1.403   .     S
C46    C48     1.449   .     S
C46    C58     1.405   .     A
C46    C54     1.400   .     A
C47    C137    1.349   .     S
C47    H200    1.088   .     S
C48    O82     1.295   .     A
C49    C50     1.406   .     S
C49    C355    1.349   1_545 S
C49    Cl329   1.782   1_545 S
C50    O83     1.287   .     A
C50    O128    1.275   .     S
C51    O85     1.296   .     A
C51    C53     1.448   .     S
C51    O130    1.288   .     S
C52    C60     1.395   .     A
C52    H72     1.084   .     S
C52    C460    1.380   .     S
C53    C64     1.397   .     A
C53    C63     1.406   .     A
C54    C55     1.386   .     A
C55    H75     1.083   .     S
C55    C57     1.391   .     A
C56    C58     1.413   .     A
C56    C57     1.416   .     A
C56    C455    1.422   .     S
C57    H470    1.075   .     S
C58    C62     1.409   .     A
C59    C63     1.418   .     A
C59    C452    1.422   1_554 S
C59    C456    1.430   1_554 S
C60    C61     1.389   .     A
C60    C455    1.430   .     S
C61    C62     1.378   .     A
C61    H71     1.085   .     S
C62    H76     1.084   .     S
C63    Cl66    1.785   .     S
C64    C448    1.380   1_554 S
C64    H111    1.084   .     S
Cl65   C181    1.782   .     S
H68    C311    1.088   1_545 S
H69    N77     1.029   .     S
H70    N78     1.029   .     S
H73    C98     1.084   .     S
H74    C453    1.075   1_554 S
N77    N78     1.291   .     D
N77    Zn88    2.016   .     S
N78    Zn87    2.016   .     S
O79    Zn87    1.953   .     S
O79    C89     1.270   .     S
O80    Zn88    1.980   .     S
O81    Zn87    1.968   .     S
O81    C92     1.289   .     S
O82    Zn88    1.925   .     S
O83    Zn87    1.980   .     S
O84    Zn88    1.953   .     S
O85    Zn87    1.925   .     S
O86    Zn88    1.968   .     S
C89    O124    1.294   .     A
C89    C91     1.403   .     S
C90    C92     1.449   .     S
C90    C102    1.405   .     A
C90    C98     1.400   .     A
C91    C181    1.349   .     S
C91    H244    1.088   .     S
C92    O126    1.295   .     A
C93    C94     1.406   .     S
C93    C267    1.349   1_645 S
C93    Cl373   1.782   1_545 S
C94    O127    1.287   .     A
C94    O40     1.275   1_655 S
C95    O129    1.296   .     A
C95    C97     1.448   .     S
C95    O42     1.288   1_655 S
C96    C104    1.395   .     A
C96    H116    1.084   .     S
C96    C504    1.380   .     S
C97    C108    1.397   .     A
C97    C107    1.406   .     A
C98    C99     1.386   .     A
C99    H119    1.083   .     S
C99    C101    1.391   .     A
C100   C102    1.413   .     A
C100   C101    1.416   .     A
C100   C499    1.422   .     S
C101   H514    1.075   .     S
C102   C106    1.409   .     A
C103   C107    1.418   .     A
C103   C496    1.422   1_554 S
C103   C500    1.430   1_554 S
C104   C105    1.389   .     A
C104   C499    1.430   .     S
C105   C106    1.378   .     A
C105   H115    1.085   .     S
C106   H120    1.084   .     S
C107   Cl110   1.785   .     S
C108   C492    1.380   1_554 S
C108   H23     1.084   1_655 S
Cl109  C225    1.782   .     S
H112   C355    1.088   1_545 S
H113   N121    1.029   .     S
H114   N122    1.029   .     S
H117   C10     1.084   1_655 S
H118   C497    1.075   1_554 S
N121   N122    1.291   .     D
N121   Zn132   2.016   .     S
N122   Zn131   2.016   .     S
O123   Zn131   1.953   .     S
O123   C1      1.270   1_655 S
O124   Zn132   1.980   .     S
O125   Zn131   1.968   .     S
O125   C4      1.289   1_655 S
O126   Zn132   1.925   .     S
O127   Zn131   1.980   .     S
O128   Zn132   1.953   .     S
O129   Zn131   1.925   .     S
O130   Zn132   1.968   .     S
C133   O168    1.294   .     A
C133   C135    1.403   .     S
C133   O255    1.270   1_455 S
C134   C136    1.449   .     S
C134   C146    1.405   .     A
C134   C142    1.400   .     A
C135   C357    1.349   1_455 S
C135   H288    1.088   .     S
C136   O170    1.295   .     A
C136   O257    1.289   1_455 S
C137   C138    1.406   .     S
C138   O171    1.287   .     A
C138   O216    1.275   .     S
C139   O173    1.296   .     A
C139   C141    1.448   .     S
C139   O218    1.288   .     S
C140   C148    1.395   .     A
C140   H160    1.084   .     S
C140   C548    1.380   .     S
C141   C152    1.397   .     A
C141   C151    1.406   .     A
C142   C143    1.386   .     A
C142   H249    1.084   1_455 S
C143   H163    1.083   .     S
C143   C145    1.391   .     A
C144   C146    1.413   .     A
C144   C145    1.416   .     A
C144   C543    1.422   .     S
C145   H558    1.075   .     S
C146   C150    1.409   .     A
C147   C151    1.418   .     A
C147   C540    1.422   1_554 S
C147   C544    1.430   1_554 S
C148   C149    1.389   .     A
C148   C543    1.430   .     S
C149   C150    1.378   .     A
C149   H159    1.085   .     S
C150   H164    1.084   .     S
C151   Cl154   1.785   .     S
C152   C536    1.380   1_554 S
C152   H199    1.084   .     S
Cl153  C269    1.782   .     S
H155   C240    1.084   1_455 S
H157   N165    1.029   .     S
H158   N166    1.029   .     S
H161   C186    1.084   .     S
H162   C541    1.075   1_554 S
N165   N166    1.291   .     D
N165   Zn176   2.016   .     S
N166   Zn175   2.016   .     S
O167   Zn175   1.953   .     S
O167   C177    1.270   .     S
O168   Zn176   1.980   .     S
O169   Zn175   1.968   .     S
O169   C180    1.289   .     S
O170   Zn176   1.925   .     S
O171   Zn175   1.980   .     S
O172   Zn176   1.953   .     S
O172   C226    1.275   1_455 S
O173   Zn175   1.925   .     S
O174   Zn176   1.968   .     S
O174   C227    1.288   1_455 S
C177   O212    1.294   .     A
C177   C179    1.403   .     S
C178   C180    1.449   .     S
C178   C190    1.405   .     A
C178   C186    1.400   .     A
C179   C269    1.349   .     S
C179   H332    1.088   .     S
C180   O214    1.295   .     A
C181   C182    1.406   .     S
C182   O215    1.287   .     A
C182   O260    1.275   .     S
C183   O217    1.296   .     A
C183   C185    1.448   .     S
C183   O262    1.288   .     S
C184   C192    1.395   .     A
C184   H204    1.084   .     S
C184   C592    1.380   .     S
C185   C196    1.397   .     A
C185   C195    1.406   .     A
C186   C187    1.386   .     A
C187   H207    1.083   .     S
C187   C189    1.391   .     A
C188   C190    1.413   .     A
C188   C189    1.416   .     A
C188   C587    1.422   .     S
C189   H602    1.075   .     S
C190   C194    1.409   .     A
C191   C195    1.418   .     A
C191   C584    1.422   1_554 S
C191   C588    1.430   1_554 S
C192   C193    1.389   .     A
C192   C587    1.430   .     S
C193   C194    1.378   .     A
C193   H203    1.085   .     S
C194   H208    1.084   .     S
C195   Cl198   1.785   .     S
C196   C580    1.380   1_554 S
C196   H243    1.084   .     S
Cl197  C313    1.782   .     S
H201   N209    1.029   .     S
H202   N210    1.029   .     S
H205   C230    1.084   .     S
H206   C585    1.075   1_554 S
N209   N210    1.291   .     D
N209   Zn220   2.016   .     S
N210   Zn219   2.016   .     S
O211   Zn219   1.953   .     S
O211   C221    1.270   .     S
O212   Zn220   1.980   .     S
O213   Zn219   1.968   .     S
O213   C224    1.289   .     S
O214   Zn220   1.925   .     S
O215   Zn219   1.980   .     S
O216   Zn220   1.953   .     S
O217   Zn219   1.925   .     S
O218   Zn220   1.968   .     S
C221   O256    1.294   .     A
C221   C223    1.403   .     S
C222   C224    1.449   .     S
C222   C234    1.405   .     A
C222   C230    1.400   .     A
C223   C313    1.349   .     S
C223   H376    1.088   .     S
C224   O258    1.295   .     A
C225   C226    1.406   .     S
C225   C3      1.349   1_655 S
C226   O259    1.287   .     A
C226   O172    1.275   1_655 S
C227   O261    1.296   .     A
C227   C229    1.448   .     S
C227   O174    1.288   1_655 S
C228   C236    1.395   .     A
C228   H248    1.084   .     S
C228   C636    1.380   .     S
C229   C240    1.397   .     A
C229   C239    1.406   .     A
C230   C231    1.386   .     A
C231   H251    1.083   .     S
C231   C233    1.391   .     A
C232   C234    1.413   .     A
C232   C233    1.416   .     A
C232   C631    1.422   .     S
C233   H646    1.075   .     S
C234   C238    1.409   .     A
C235   C239    1.418   .     A
C235   C628    1.422   1_554 S
C235   C632    1.430   1_554 S
C236   C237    1.389   .     A
C236   C631    1.430   .     S
C237   C238    1.378   .     A
C237   H247    1.085   .     S
C238   H252    1.084   .     S
C239   Cl242   1.785   .     S
C240   C624    1.380   1_554 S
C240   H155    1.084   1_655 S
Cl241  C357    1.782   .     S
H245   N253    1.029   .     S
H246   N254    1.029   .     S
H249   C142    1.084   1_655 S
H250   C629    1.075   1_554 S
N253   N254    1.291   .     D
N253   Zn264   2.016   .     S
N254   Zn263   2.016   .     S
O255   Zn263   1.953   .     S
O255   C133    1.270   1_655 S
O256   Zn264   1.980   .     S
O257   Zn263   1.968   .     S
O257   C136    1.289   1_655 S
O258   Zn264   1.925   .     S
O259   Zn263   1.980   .     S
O260   Zn264   1.953   .     S
O261   Zn263   1.925   .     S
O262   Zn264   1.968   .     S
C265   O300    1.294   .     A
C265   C267    1.403   .     S
C265   O387    1.270   1_455 S
C266   C268    1.449   .     S
C266   C278    1.405   .     A
C266   C274    1.400   .     A
C267   C93     1.349   1_465 S
C267   H24     1.088   1_565 S
C268   O302    1.295   .     A
C268   O389    1.289   1_455 S
C269   C270    1.406   .     S
C270   O303    1.287   .     A
C270   O348    1.275   .     S
C271   O305    1.296   .     A
C271   C273    1.448   .     S
C271   O350    1.288   .     S
C272   C280    1.395   .     A
C272   H292    1.084   .     S
C272   C680    1.380   .     S
C273   C284    1.397   .     A
C273   C283    1.406   .     A
C274   C275    1.386   .     A
C274   H381    1.084   1_455 S
C275   H295    1.083   .     S
C275   C277    1.391   .     A
C276   C278    1.413   .     A
C276   C277    1.416   .     A
C276   C675    1.422   .     S
C277   H690    1.075   .     S
C278   C282    1.409   .     A
C279   C283    1.418   .     A
C279   C672    1.422   1_554 S
C279   C676    1.430   1_554 S
C280   C281    1.389   .     A
C280   C675    1.430   .     S
C281   C282    1.378   .     A
C281   H291    1.085   .     S
C282   H296    1.084   .     S
C283   Cl286   1.785   .     S
C284   C668    1.380   1_554 S
C284   H331    1.084   .     S
Cl285  C5      1.782   1_565 S
H287   C372    1.084   1_455 S
H289   N297    1.029   .     S
H290   N298    1.029   .     S
H293   C318    1.084   .     S
H294   C673    1.075   1_554 S
N297   N298    1.291   .     D
N297   Zn308   2.016   .     S
N298   Zn307   2.016   .     S
O299   Zn307   1.953   .     S
O299   C309    1.270   .     S
O300   Zn308   1.980   .     S
O301   Zn307   1.968   .     S
O301   C312    1.289   .     S
O302   Zn308   1.925   .     S
O303   Zn307   1.980   .     S
O304   Zn308   1.953   .     S
O304   C358    1.275   1_455 S
O305   Zn307   1.925   .     S
O306   Zn308   1.968   .     S
O306   C359    1.288   1_455 S
C309   O344    1.294   .     A
C309   C311    1.403   .     S
C310   C312    1.449   .     S
C310   C322    1.405   .     A
C310   C318    1.400   .     A
C311   C5      1.349   1_565 S
C311   H68     1.088   1_565 S
C312   O346    1.295   .     A
C313   C314    1.406   .     S
C314   O347    1.287   .     A
C314   O392    1.275   .     S
C315   O349    1.296   .     A
C315   C317    1.448   .     S
C315   O394    1.288   .     S
C316   C324    1.395   .     A
C316   H336    1.084   .     S
C316   C724    1.380   .     S
C317   C328    1.397   .     A
C317   C327    1.406   .     A
C318   C319    1.386   .     A
C319   H339    1.083   .     S
C319   C321    1.391   .     A
C320   C322    1.413   .     A
C320   C321    1.416   .     A
C320   C719    1.422   .     S
C321   H734    1.075   .     S
C322   C326    1.409   .     A
C323   C327    1.418   .     A
C323   C716    1.422   1_554 S
C323   C720    1.430   1_554 S
C324   C325    1.389   .     A
C324   C719    1.430   .     S
C325   C326    1.378   .     A
C325   H335    1.085   .     S
C326   H340    1.084   .     S
C327   Cl330   1.785   .     S
C328   C712    1.380   1_554 S
C328   H375    1.084   .     S
Cl329  C49     1.782   1_565 S
H333   N341    1.029   .     S
H334   N342    1.029   .     S
H337   C362    1.084   .     S
H338   C717    1.075   1_554 S
N341   N342    1.291   .     D
N341   Zn352   2.016   .     S
N342   Zn351   2.016   .     S
O343   Zn351   1.953   .     S
O343   C353    1.270   .     S
O344   Zn352   1.980   .     S
O345   Zn351   1.968   .     S
O345   C356    1.289   .     S
O346   Zn352   1.925   .     S
O347   Zn351   1.980   .     S
O348   Zn352   1.953   .     S
O349   Zn351   1.925   .     S
O350   Zn352   1.968   .     S
C353   O388    1.294   .     A
C353   C355    1.403   .     S
C354   C356    1.449   .     S
C354   C366    1.405   .     A
C354   C362    1.400   .     A
C355   C49     1.349   1_565 S
C355   H112    1.088   1_565 S
C356   O390    1.295   .     A
C357   C358    1.406   .     S
C357   C135    1.349   1_655 S
C358   O391    1.287   .     A
C358   O304    1.275   1_655 S
C359   O393    1.296   .     A
C359   C361    1.448   .     S
C359   O306    1.288   1_655 S
C360   C368    1.395   .     A
C360   H380    1.084   .     S
C360   C768    1.380   .     S
C361   C372    1.397   .     A
C361   C371    1.406   .     A
C362   C363    1.386   .     A
C363   H383    1.083   .     S
C363   C365    1.391   .     A
C364   C366    1.413   .     A
C364   C365    1.416   .     A
C364   C763    1.422   .     S
C365   H778    1.075   .     S
C366   C370    1.409   .     A
C367   C371    1.418   .     A
C367   C760    1.422   1_554 S
C367   C764    1.430   1_554 S
C368   C369    1.389   .     A
C368   C763    1.430   .     S
C369   C370    1.378   .     A
C369   H379    1.085   .     S
C370   H384    1.084   .     S
C371   Cl374   1.785   .     S
C372   C756    1.380   1_554 S
C372   H287    1.084   1_655 S
Cl373  C93     1.782   1_565 S
H377   N385    1.029   .     S
H378   N386    1.029   .     S
H381   C274    1.084   1_655 S
H382   C761    1.075   1_554 S
N385   N386    1.291   .     D
N385   Zn396   2.016   .     S
N386   Zn395   2.016   .     S
O387   Zn395   1.953   .     S
O387   C265    1.270   1_655 S
O388   Zn396   1.980   .     S
O389   Zn395   1.968   .     S
O389   C268    1.289   1_655 S
O390   Zn396   1.925   .     S
O391   Zn395   1.980   .     S
O392   Zn396   1.953   .     S
O393   Zn395   1.925   .     S
O394   Zn396   1.968   .     S
C397   O432    1.294   .     A
C397   C399    1.403   .     S
C397   O519    1.270   1_455 S
C398   C400    1.449   .     S
C398   C410    1.405   .     A
C398   C406    1.400   .     A
C399   C621    1.349   1_455 S
C399   H552    1.088   .     S
C400   O434    1.295   .     A
C400   O521    1.289   1_455 S
C401   C402    1.406   .     S
C401   C707    1.349   1_545 S
C401   Cl681   1.782   1_545 S
C402   O435    1.287   .     A
C402   O480    1.275   .     S
C403   O437    1.296   .     A
C403   C405    1.448   .     S
C403   O482    1.288   .     S
C404   C412    1.395   .     A
C404   H424    1.084   .     S
C404   C20     1.380   1_556 S
C405   C416    1.397   .     A
C405   C415    1.406   .     A
C406   C407    1.386   .     A
C406   H513    1.084   1_455 S
C407   H427    1.083   .     S
C407   C409    1.391   .     A
C408   C410    1.413   .     A
C408   C409    1.416   .     A
C408   C15     1.422   1_556 S
C409   H30     1.075   1_556 S
C410   C414    1.409   .     A
C411   C415    1.418   .     A
C412   C413    1.389   .     A
C412   C15     1.430   1_556 S
C413   C414    1.378   .     A
C413   H423    1.085   .     S
C414   H428    1.084   .     S
C415   Cl418   1.785   .     S
C416   H463    1.084   .     S
Cl417  C533    1.782   .     S
H419   C504    1.084   1_455 S
H420   C663    1.088   1_545 S
H421   N429    1.029   .     S
H422   N430    1.029   .     S
H425   C450    1.084   .     S
N429   N430    1.291   .     D
N429   Zn440   2.016   .     S
N430   Zn439   2.016   .     S
O431   Zn439   1.953   .     S
O431   C441    1.270   .     S
O432   Zn440   1.980   .     S
O433   Zn439   1.968   .     S
O433   C444    1.289   .     S
O434   Zn440   1.925   .     S
O435   Zn439   1.980   .     S
O436   Zn440   1.953   .     S
O436   C490    1.275   1_455 S
O437   Zn439   1.925   .     S
O438   Zn440   1.968   .     S
O438   C491    1.288   1_455 S
C441   O476    1.294   .     A
C441   C443    1.403   .     S
C442   C444    1.449   .     S
C442   C454    1.405   .     A
C442   C450    1.400   .     A
C443   C533    1.349   .     S
C443   H596    1.088   .     S
C444   O478    1.295   .     A
C445   C446    1.406   .     S
C445   C751    1.349   1_545 S
C445   Cl725   1.782   1_545 S
C446   O479    1.287   .     A
C446   O524    1.275   .     S
C447   O481    1.296   .     A
C447   C449    1.448   .     S
C447   O526    1.288   .     S
C448   C456    1.395   .     A
C448   H468    1.084   .     S
C448   C64     1.380   1_556 S
C449   C460    1.397   .     A
C449   C459    1.406   .     A
C450   C451    1.386   .     A
C451   H471    1.083   .     S
C451   C453    1.391   .     A
C452   C454    1.413   .     A
C452   C453    1.416   .     A
C452   C59     1.422   1_556 S
C453   H74     1.075   1_556 S
C454   C458    1.409   .     A
C455   C459    1.418   .     A
C456   C457    1.389   .     A
C456   C59     1.430   1_556 S
C457   C458    1.378   .     A
C457   H467    1.085   .     S
C458   H472    1.084   .     S
C459   Cl462   1.785   .     S
C460   H507    1.084   .     S
Cl461  C577    1.782   .     S
H464   C707    1.088   1_545 S
H465   N473    1.029   .     S
H466   N474    1.029   .     S
H469   C494    1.084   .     S
N473   N474    1.291   .     D
N473   Zn484   2.016   .     S
N474   Zn483   2.016   .     S
O475   Zn483   1.953   .     S
O475   C485    1.270   .     S
O476   Zn484   1.980   .     S
O477   Zn483   1.968   .     S
O477   C488    1.289   .     S
O478   Zn484   1.925   .     S
O479   Zn483   1.980   .     S
O480   Zn484   1.953   .     S
O481   Zn483   1.925   .     S
O482   Zn484   1.968   .     S
C485   O520    1.294   .     A
C485   C487    1.403   .     S
C486   C488    1.449   .     S
C486   C498    1.405   .     A
C486   C494    1.400   .     A
C487   C577    1.349   .     S
C487   H640    1.088   .     S
C488   O522    1.295   .     A
C489   C490    1.406   .     S
C489   C663    1.349   1_645 S
C489   Cl769   1.782   1_545 S
C490   O523    1.287   .     A
C490   O436    1.275   1_655 S
C491   O525    1.296   .     A
C491   C493    1.448   .     S
C491   O438    1.288   1_655 S
C492   C500    1.395   .     A
C492   H512    1.084   .     S
C492   C108    1.380   1_556 S
C493   C504    1.397   .     A
C493   C503    1.406   .     A
C494   C495    1.386   .     A
C495   H515    1.083   .     S
C495   C497    1.391   .     A
C496   C498    1.413   .     A
C496   C497    1.416   .     A
C496   C103    1.422   1_556 S
C497   H118    1.075   1_556 S
C498   C502    1.409   .     A
C499   C503    1.418   .     A
C500   C501    1.389   .     A
C500   C103    1.430   1_556 S
C501   C502    1.378   .     A
C501   H511    1.085   .     S
C502   H516    1.084   .     S
C503   Cl506   1.785   .     S
C504   H419    1.084   1_655 S
Cl505  C621    1.782   .     S
H508   C751    1.088   1_545 S
H509   N517    1.029   .     S
H510   N518    1.029   .     S
H513   C406    1.084   1_655 S
N517   N518    1.291   .     D
N517   Zn528   2.016   .     S
N518   Zn527   2.016   .     S
O519   Zn527   1.953   .     S
O519   C397    1.270   1_655 S
O520   Zn528   1.980   .     S
O521   Zn527   1.968   .     S
O521   C400    1.289   1_655 S
O522   Zn528   1.925   .     S
O523   Zn527   1.980   .     S
O524   Zn528   1.953   .     S
O525   Zn527   1.925   .     S
O526   Zn528   1.968   .     S
C529   O564    1.294   .     A
C529   C531    1.403   .     S
C529   O651    1.270   1_455 S
C530   C532    1.449   .     S
C530   C542    1.405   .     A
C530   C538    1.400   .     A
C531   C753    1.349   1_455 S
C531   H684    1.088   .     S
C532   O566    1.295   .     A
C532   O653    1.289   1_455 S
C533   C534    1.406   .     S
C534   O567    1.287   .     A
C534   O612    1.275   .     S
C535   O569    1.296   .     A
C535   C537    1.448   .     S
C535   O614    1.288   .     S
C536   C544    1.395   .     A
C536   H556    1.084   .     S
C536   C152    1.380   1_556 S
C537   C548    1.397   .     A
C537   C547    1.406   .     A
C538   C539    1.386   .     A
C538   H645    1.084   1_455 S
C539   H559    1.083   .     S
C539   C541    1.391   .     A
C540   C542    1.413   .     A
C540   C541    1.416   .     A
C540   C147    1.422   1_556 S
C541   H162    1.075   1_556 S
C542   C546    1.409   .     A
C543   C547    1.418   .     A
C544   C545    1.389   .     A
C544   C147    1.430   1_556 S
C545   C546    1.378   .     A
C545   H555    1.085   .     S
C546   H560    1.084   .     S
C547   Cl550   1.785   .     S
C548   H595    1.084   .     S
Cl549  C665    1.782   .     S
H551   C636    1.084   1_455 S
H553   N561    1.029   .     S
H554   N562    1.029   .     S
H557   C582    1.084   .     S
N561   N562    1.291   .     D
N561   Zn572   2.016   .     S
N562   Zn571   2.016   .     S
O563   Zn571   1.953   .     S
O563   C573    1.270   .     S
O564   Zn572   1.980   .     S
O565   Zn571   1.968   .     S
O565   C576    1.289   .     S
O566   Zn572   1.925   .     S
O567   Zn571   1.980   .     S
O568   Zn572   1.953   .     S
O568   C622    1.275   1_455 S
O569   Zn571   1.925   .     S
O570   Zn572   1.968   .     S
O570   C623    1.288   1_455 S
C573   O608    1.294   .     A
C573   C575    1.403   .     S
C574   C576    1.449   .     S
C574   C586    1.405   .     A
C574   C582    1.400   .     A
C575   C665    1.349   .     S
C575   H728    1.088   .     S
C576   O610    1.295   .     A
C577   C578    1.406   .     S
C578   O611    1.287   .     A
C578   O656    1.275   .     S
C579   O613    1.296   .     A
C579   C581    1.448   .     S
C579   O658    1.288   .     S
C580   C588    1.395   .     A
C580   H600    1.084   .     S
C580   C196    1.380   1_556 S
C581   C592    1.397   .     A
C581   C591    1.406   .     A
C582   C583    1.386   .     A
C583   H603    1.083   .     S
C583   C585    1.391   .     A
C584   C586    1.413   .     A
C584   C585    1.416   .     A
C584   C191    1.422   1_556 S
C585   H206    1.075   1_556 S
C586   C590    1.409   .     A
C587   C591    1.418   .     A
C588   C589    1.389   .     A
C588   C191    1.430   1_556 S
C589   C590    1.378   .     A
C589   H599    1.085   .     S
C590   H604    1.084   .     S
C591   Cl594   1.785   .     S
C592   H639    1.084   .     S
Cl593  C709    1.782   .     S
H597   N605    1.029   .     S
H598   N606    1.029   .     S
H601   C626    1.084   .     S
N605   N606    1.291   .     D
N605   Zn616   2.016   .     S
N606   Zn615   2.016   .     S
O607   Zn615   1.953   .     S
O607   C617    1.270   .     S
O608   Zn616   1.980   .     S
O609   Zn615   1.968   .     S
O609   C620    1.289   .     S
O610   Zn616   1.925   .     S
O611   Zn615   1.980   .     S
O612   Zn616   1.953   .     S
O613   Zn615   1.925   .     S
O614   Zn616   1.968   .     S
C617   O652    1.294   .     A
C617   C619    1.403   .     S
C618   C620    1.449   .     S
C618   C630    1.405   .     A
C618   C626    1.400   .     A
C619   C709    1.349   .     S
C619   H772    1.088   .     S
C620   O654    1.295   .     A
C621   C622    1.406   .     S
C621   C399    1.349   1_655 S
C622   O655    1.287   .     A
C622   O568    1.275   1_655 S
C623   O657    1.296   .     A
C623   C625    1.448   .     S
C623   O570    1.288   1_655 S
C624   C632    1.395   .     A
C624   H644    1.084   .     S
C624   C240    1.380   1_556 S
C625   C636    1.397   .     A
C625   C635    1.406   .     A
C626   C627    1.386   .     A
C627   H647    1.083   .     S
C627   C629    1.391   .     A
C628   C630    1.413   .     A
C628   C629    1.416   .     A
C628   C235    1.422   1_556 S
C629   H250    1.075   1_556 S
C630   C634    1.409   .     A
C631   C635    1.418   .     A
C632   C633    1.389   .     A
C632   C235    1.430   1_556 S
C633   C634    1.378   .     A
C633   H643    1.085   .     S
C634   H648    1.084   .     S
C635   Cl638   1.785   .     S
C636   H551    1.084   1_655 S
Cl637  C753    1.782   .     S
H641   N649    1.029   .     S
H642   N650    1.029   .     S
H645   C538    1.084   1_655 S
N649   N650    1.291   .     D
N649   Zn660   2.016   .     S
N650   Zn659   2.016   .     S
O651   Zn659   1.953   .     S
O651   C529    1.270   1_655 S
O652   Zn660   1.980   .     S
O653   Zn659   1.968   .     S
O653   C532    1.289   1_655 S
O654   Zn660   1.925   .     S
O655   Zn659   1.980   .     S
O656   Zn660   1.953   .     S
O657   Zn659   1.925   .     S
O658   Zn660   1.968   .     S
C661   O696    1.294   .     A
C661   C663    1.403   .     S
C661   O783    1.270   1_455 S
C662   C664    1.449   .     S
C662   C674    1.405   .     A
C662   C670    1.400   .     A
C663   C489    1.349   1_465 S
C663   H420    1.088   1_565 S
C664   O698    1.295   .     A
C664   O785    1.289   1_455 S
C665   C666    1.406   .     S
C666   O699    1.287   .     A
C666   O744    1.275   .     S
C667   O701    1.296   .     A
C667   C669    1.448   .     S
C667   O746    1.288   .     S
C668   C676    1.395   .     A
C668   H688    1.084   .     S
C668   C284    1.380   1_556 S
C669   C680    1.397   .     A
C669   C679    1.406   .     A
C670   C671    1.386   .     A
C670   H777    1.084   1_455 S
C671   H691    1.083   .     S
C671   C673    1.391   .     A
C672   C674    1.413   .     A
C672   C673    1.416   .     A
C672   C279    1.422   1_556 S
C673   H294    1.075   1_556 S
C674   C678    1.409   .     A
C675   C679    1.418   .     A
C676   C677    1.389   .     A
C676   C279    1.430   1_556 S
C677   C678    1.378   .     A
C677   H687    1.085   .     S
C678   H692    1.084   .     S
C679   Cl682   1.785   .     S
C680   H727    1.084   .     S
Cl681  C401    1.782   1_565 S
H683   C768    1.084   1_455 S
H685   N693    1.029   .     S
H686   N694    1.029   .     S
H689   C714    1.084   .     S
N693   N694    1.291   .     D
N693   Zn704   2.016   .     S
N694   Zn703   2.016   .     S
O695   Zn703   1.953   .     S
O695   C705    1.270   .     S
O696   Zn704   1.980   .     S
O697   Zn703   1.968   .     S
O697   C708    1.289   .     S
O698   Zn704   1.925   .     S
O699   Zn703   1.980   .     S
O700   Zn704   1.953   .     S
O700   C754    1.275   1_455 S
O701   Zn703   1.925   .     S
O702   Zn704   1.968   .     S
O702   C755    1.288   1_455 S
C705   O740    1.294   .     A
C705   C707    1.403   .     S
C706   C708    1.449   .     S
C706   C718    1.405   .     A
C706   C714    1.400   .     A
C707   C401    1.349   1_565 S
C707   H464    1.088   1_565 S
C708   O742    1.295   .     A
C709   C710    1.406   .     S
C710   O743    1.287   .     A
C710   O788    1.275   .     S
C711   O745    1.296   .     A
C711   C713    1.448   .     S
C711   O790    1.288   .     S
C712   C720    1.395   .     A
C712   H732    1.084   .     S
C712   C328    1.380   1_556 S
C713   C724    1.397   .     A
C713   C723    1.406   .     A
C714   C715    1.386   .     A
C715   H735    1.083   .     S
C715   C717    1.391   .     A
C716   C718    1.413   .     A
C716   C717    1.416   .     A
C716   C323    1.422   1_556 S
C717   H338    1.075   1_556 S
C718   C722    1.409   .     A
C719   C723    1.418   .     A
C720   C721    1.389   .     A
C720   C323    1.430   1_556 S
C721   C722    1.378   .     A
C721   H731    1.085   .     S
C722   H736    1.084   .     S
C723   Cl726   1.785   .     S
C724   H771    1.084   .     S
Cl725  C445    1.782   1_565 S
H729   N737    1.029   .     S
H730   N738    1.029   .     S
H733   C758    1.084   .     S
N737   N738    1.291   .     D
N737   Zn748   2.016   .     S
N738   Zn747   2.016   .     S
O739   Zn747   1.953   .     S
O739   C749    1.270   .     S
O740   Zn748   1.980   .     S
O741   Zn747   1.968   .     S
O741   C752    1.289   .     S
O742   Zn748   1.925   .     S
O743   Zn747   1.980   .     S
O744   Zn748   1.953   .     S
O745   Zn747   1.925   .     S
O746   Zn748   1.968   .     S
C749   O784    1.294   .     A
C749   C751    1.403   .     S
C750   C752    1.449   .     S
C750   C762    1.405   .     A
C750   C758    1.400   .     A
C751   C445    1.349   1_565 S
C751   H508    1.088   1_565 S
C752   O786    1.295   .     A
C753   C754    1.406   .     S
C753   C531    1.349   1_655 S
C754   O787    1.287   .     A
C754   O700    1.275   1_655 S
C755   O789    1.296   .     A
C755   C757    1.448   .     S
C755   O702    1.288   1_655 S
C756   C764    1.395   .     A
C756   H776    1.084   .     S
C756   C372    1.380   1_556 S
C757   C768    1.397   .     A
C757   C767    1.406   .     A
C758   C759    1.386   .     A
C759   H779    1.083   .     S
C759   C761    1.391   .     A
C760   C762    1.413   .     A
C760   C761    1.416   .     A
C760   C367    1.422   1_556 S
C761   H382    1.075   1_556 S
C762   C766    1.409   .     A
C763   C767    1.418   .     A
C764   C765    1.389   .     A
C764   C367    1.430   1_556 S
C765   C766    1.378   .     A
C765   H775    1.085   .     S
C766   H780    1.084   .     S
C767   Cl770   1.785   .     S
C768   H683    1.084   1_655 S
Cl769  C489    1.782   1_565 S
H773   N781    1.029   .     S
H774   N782    1.029   .     S
H777   C670    1.084   1_655 S
N781   N782    1.291   .     D
N781   Zn792   2.016   .     S
N782   Zn791   2.016   .     S
O783   Zn791   1.953   .     S
O783   C661    1.270   1_655 S
O784   Zn792   1.980   .     S
O785   Zn791   1.968   .     S
O785   C664    1.289   1_655 S
O786   Zn792   1.925   .     S
O787   Zn791   1.980   .     S
O788   Zn792   1.953   .     S
O789   Zn791   1.925   .     S
O790   Zn792   1.968   .     S
