data_str_m3_o10_o17_pcu_sym.79
_audit_creation_date              2020-01-03
_audit_creation_method            'Materials Studio'
_symmetry_space_group_name_H-M    'P1'
_symmetry_Int_Tables_number       1
_symmetry_cell_setting            triclinic
loop_
_symmetry_equiv_pos_as_xyz
  x,y,z
_cell_length_a                    23.2461
_cell_length_b                    25.6399
_cell_length_c                    29.8148
_cell_angle_alpha                 91.1521
_cell_angle_beta                  86.5703
_cell_angle_gamma                 93.5815
loop_
_atom_site_label
_atom_site_type_symbol
_atom_site_fract_x
_atom_site_fract_y
_atom_site_fract_z
_atom_site_U_iso_or_equiv
_atom_site_adp_type
_atom_site_occupancy
C1     C     0.18192   0.26491   0.24887   0.00000  Uiso   1.00
C2     C     0.20515   0.20475   0.40610   0.00000  Uiso   1.00
C3     C     0.16314   0.16614   0.11596   0.00000  Uiso   1.00
C4     C     0.17019   0.16720   0.38403   0.00000  Uiso   1.00
C5     C     0.19704   0.20430   0.09289   0.00000  Uiso   1.00
C6     C     0.13636   0.12899   0.40709   0.00000  Uiso   1.00
C7     C     0.19615   0.20620   0.04680   0.00000  Uiso   1.00
C8     C     0.13724   0.12709   0.45318   0.00000  Uiso   1.00
C9     C     0.16587   0.16597   0.02338   0.00000  Uiso   1.00
C10    C     0.16744   0.16737   0.47661   0.00000  Uiso   1.00
C11    C     0.13439   0.12437   0.04679   0.00000  Uiso   1.00
C12    C     0.15142   0.06842   0.25117   0.00000  Uiso   1.00
C13    C     0.19886   0.20899   0.45320   0.00000  Uiso   1.00
C14    C     0.22396   0.24866   0.02430   0.00000  Uiso   1.00
C15    C     0.10948   0.08461   0.47567   0.00000  Uiso   1.00
C16    C     0.03355   0.12031   0.11752   0.00000  Uiso   1.00
C17    C     0.29969   0.21319   0.38246   0.00000  Uiso   1.00
C18    C     0.22314   0.25215   0.47786   0.00000  Uiso   1.00
C19    C     0.11013   0.08120   0.02211   0.00000  Uiso   1.00
C20    C     0.19000   0.31939   0.24823   0.00000  Uiso   1.00
C21    C     0.14334   0.01394   0.25188   0.00000  Uiso   1.00
C22    C     0.16794   0.16743   0.33643   0.00000  Uiso   1.00
C23    C     0.16539   0.16591   0.16357   0.00000  Uiso   1.00
C24    C     0.12810   0.12864   0.09390   0.00000  Uiso   1.00
H25    H     0.22210   0.23388   0.11124   0.00000  Uiso   1.00
H26    H     0.00056   0.09543   0.13690   0.00000  Uiso   1.00
H27    H     0.01941   0.12220   0.08260   0.00000  Uiso   1.00
H28    H     0.33264   0.23811   0.36307   0.00000  Uiso   1.00
H29    H     0.29861   0.17343   0.36677   0.00000  Uiso   1.00
H30    H     0.31387   0.21131   0.41736   0.00000  Uiso   1.00
H31    H     0.21461   0.02925   0.40298   0.00000  Uiso   1.00
H32    H     0.08475   0.27236   0.02141   0.00000  Uiso   1.00
H33    H     0.11138   0.09936   0.38873   0.00000  Uiso   1.00
H34    H     0.24429   0.28042   0.04339   0.00000  Uiso   1.00
H35    H     0.08921   0.05282   0.45659   0.00000  Uiso   1.00
H36    H     0.23408   0.00304   0.24473   0.00000  Uiso   1.00
H37    H     0.09926   0.33030   0.25538   0.00000  Uiso   1.00
H38    H     0.00440   0.12645   0.21713   0.00000  Uiso   1.00
H39    H     0.32893   0.20688   0.28287   0.00000  Uiso   1.00
H40    H     0.03467   0.16007   0.13320   0.00000  Uiso   1.00
N41    N     0.31678   0.15265   0.23783   0.00000  Uiso   1.00
N42    N     0.01656   0.18068   0.26217   0.00000  Uiso   1.00
O43    O     0.12975   0.24619   0.25299   0.00000  Uiso   1.00
O44    O     0.24579   0.23563   0.38128   0.00000  Uiso   1.00
O45    O     0.23906   0.02292   0.48978   0.00000  Uiso   1.00
O46    O     0.30629   0.31456   0.43634   0.00000  Uiso   1.00
O47    O     0.20193   0.32670   0.41255   0.00000  Uiso   1.00
O48    O     0.12649   0.00755   0.08268   0.00000  Uiso   1.00
O49    O     0.02671   0.01893   0.06349   0.00000  Uiso   1.00
O50    O     0.09412   0.30564   0.00551   0.00000  Uiso   1.00
O51    O     0.20358   0.08714   0.24702   0.00000  Uiso   1.00
O52    O     0.22613   0.23721   0.24519   0.00000  Uiso   1.00
O53    O     0.10720   0.09613   0.25482   0.00000  Uiso   1.00
O54    O     0.11847   0.17117   0.31998   0.00000  Uiso   1.00
O55    O     0.21486   0.16216   0.18003   0.00000  Uiso   1.00
O56    O     0.21485   0.16219   0.31218   0.00000  Uiso   1.00
O57    O     0.11848   0.17115   0.18783   0.00000  Uiso   1.00
O58    O     0.08742   0.09782   0.11873   0.00000  Uiso   1.00
S59    S     0.24446   0.31407   0.45425   0.00000  Uiso   1.00
S60    S     0.08851   0.01927   0.04552   0.00000  Uiso   1.00
Zn61   Zn    0.10231   0.17266   0.25521   0.00000  Uiso   1.00
Zn62   Zn    0.23102   0.16067   0.24479   0.00000  Uiso   1.00
C63    C     0.51525   0.26491   0.24887   0.00000  Uiso   1.00
C64    C     0.53848   0.20475   0.40610   0.00000  Uiso   1.00
C65    C     0.49647   0.16614   0.11596   0.00000  Uiso   1.00
C66    C     0.50352   0.16720   0.38403   0.00000  Uiso   1.00
C67    C     0.53037   0.20430   0.09289   0.00000  Uiso   1.00
C68    C     0.46969   0.12899   0.40709   0.00000  Uiso   1.00
C69    C     0.52949   0.20620   0.04680   0.00000  Uiso   1.00
C70    C     0.47057   0.12709   0.45318   0.00000  Uiso   1.00
C71    C     0.49920   0.16597   0.02338   0.00000  Uiso   1.00
C72    C     0.50077   0.16737   0.47661   0.00000  Uiso   1.00
C73    C     0.46772   0.12437   0.04679   0.00000  Uiso   1.00
C74    C     0.48475   0.06842   0.25117   0.00000  Uiso   1.00
C75    C     0.53220   0.20899   0.45320   0.00000  Uiso   1.00
C76    C     0.55729   0.24866   0.02430   0.00000  Uiso   1.00
C77    C     0.44281   0.08461   0.47567   0.00000  Uiso   1.00
C78    C     0.36689   0.12031   0.11752   0.00000  Uiso   1.00
C79    C     0.63302   0.21319   0.38246   0.00000  Uiso   1.00
C80    C     0.55647   0.25215   0.47786   0.00000  Uiso   1.00
C81    C     0.44346   0.08120   0.02211   0.00000  Uiso   1.00
C82    C     0.52333   0.31939   0.24823   0.00000  Uiso   1.00
C83    C     0.47667   0.01394   0.25188   0.00000  Uiso   1.00
C84    C     0.50128   0.16743   0.33643   0.00000  Uiso   1.00
C85    C     0.49872   0.16591   0.16357   0.00000  Uiso   1.00
C86    C     0.46144   0.12864   0.09390   0.00000  Uiso   1.00
H87    H     0.55543   0.23388   0.11124   0.00000  Uiso   1.00
H88    H     0.33389   0.09543   0.13690   0.00000  Uiso   1.00
H89    H     0.35274   0.12220   0.08260   0.00000  Uiso   1.00
H90    H     0.66598   0.23811   0.36307   0.00000  Uiso   1.00
H91    H     0.63195   0.17343   0.36677   0.00000  Uiso   1.00
H92    H     0.64720   0.21131   0.41736   0.00000  Uiso   1.00
H93    H     0.54794   0.02925   0.40298   0.00000  Uiso   1.00
H94    H     0.41808   0.27236   0.02141   0.00000  Uiso   1.00
H95    H     0.44471   0.09936   0.38873   0.00000  Uiso   1.00
H96    H     0.57762   0.28042   0.04339   0.00000  Uiso   1.00
H97    H     0.42254   0.05282   0.45659   0.00000  Uiso   1.00
H98    H     0.56742   0.00304   0.24473   0.00000  Uiso   1.00
H99    H     0.43259   0.33030   0.25538   0.00000  Uiso   1.00
H100   H     0.33774   0.12645   0.21713   0.00000  Uiso   1.00
H101   H     0.66226   0.20688   0.28287   0.00000  Uiso   1.00
H102   H     0.36800   0.16007   0.13320   0.00000  Uiso   1.00
N103   N     0.65011   0.15265   0.23783   0.00000  Uiso   1.00
N104   N     0.34989   0.18068   0.26217   0.00000  Uiso   1.00
O105   O     0.46308   0.24619   0.25299   0.00000  Uiso   1.00
O106   O     0.57912   0.23563   0.38128   0.00000  Uiso   1.00
O107   O     0.57240   0.02292   0.48978   0.00000  Uiso   1.00
O108   O     0.63963   0.31456   0.43634   0.00000  Uiso   1.00
O109   O     0.53526   0.32670   0.41255   0.00000  Uiso   1.00
O110   O     0.45983   0.00755   0.08268   0.00000  Uiso   1.00
O111   O     0.36004   0.01893   0.06349   0.00000  Uiso   1.00
O112   O     0.42745   0.30564   0.00551   0.00000  Uiso   1.00
O113   O     0.53692   0.08714   0.24702   0.00000  Uiso   1.00
O114   O     0.55946   0.23721   0.24519   0.00000  Uiso   1.00
O115   O     0.44054   0.09613   0.25482   0.00000  Uiso   1.00
O116   O     0.45181   0.17117   0.31998   0.00000  Uiso   1.00
O117   O     0.54819   0.16216   0.18003   0.00000  Uiso   1.00
O118   O     0.54819   0.16219   0.31218   0.00000  Uiso   1.00
O119   O     0.45181   0.17115   0.18783   0.00000  Uiso   1.00
O120   O     0.42075   0.09782   0.11873   0.00000  Uiso   1.00
S121   S     0.57779   0.31407   0.45425   0.00000  Uiso   1.00
S122   S     0.42184   0.01927   0.04552   0.00000  Uiso   1.00
Zn123  Zn    0.43565   0.17266   0.25521   0.00000  Uiso   1.00
Zn124  Zn    0.56435   0.16067   0.24479   0.00000  Uiso   1.00
C125   C     0.84859   0.26491   0.24887   0.00000  Uiso   1.00
C126   C     0.87181   0.20475   0.40610   0.00000  Uiso   1.00
C127   C     0.82981   0.16614   0.11596   0.00000  Uiso   1.00
C128   C     0.83686   0.16720   0.38403   0.00000  Uiso   1.00
C129   C     0.86371   0.20430   0.09289   0.00000  Uiso   1.00
C130   C     0.80302   0.12899   0.40709   0.00000  Uiso   1.00
C131   C     0.86282   0.20620   0.04680   0.00000  Uiso   1.00
C132   C     0.80390   0.12709   0.45318   0.00000  Uiso   1.00
C133   C     0.83253   0.16597   0.02338   0.00000  Uiso   1.00
C134   C     0.83411   0.16737   0.47661   0.00000  Uiso   1.00
C135   C     0.80106   0.12437   0.04679   0.00000  Uiso   1.00
C136   C     0.81808   0.06842   0.25117   0.00000  Uiso   1.00
C137   C     0.86553   0.20899   0.45320   0.00000  Uiso   1.00
C138   C     0.89063   0.24866   0.02430   0.00000  Uiso   1.00
C139   C     0.77614   0.08461   0.47567   0.00000  Uiso   1.00
C140   C     0.70022   0.12031   0.11752   0.00000  Uiso   1.00
C141   C     0.96636   0.21319   0.38246   0.00000  Uiso   1.00
C142   C     0.88981   0.25215   0.47786   0.00000  Uiso   1.00
C143   C     0.77679   0.08120   0.02211   0.00000  Uiso   1.00
C144   C     0.85667   0.31939   0.24823   0.00000  Uiso   1.00
C145   C     0.81001   0.01394   0.25188   0.00000  Uiso   1.00
C146   C     0.83461   0.16743   0.33643   0.00000  Uiso   1.00
C147   C     0.83206   0.16591   0.16357   0.00000  Uiso   1.00
C148   C     0.79477   0.12864   0.09390   0.00000  Uiso   1.00
H149   H     0.88876   0.23388   0.11124   0.00000  Uiso   1.00
H150   H     0.66722   0.09543   0.13690   0.00000  Uiso   1.00
H151   H     0.68608   0.12220   0.08260   0.00000  Uiso   1.00
H152   H     0.99931   0.23811   0.36307   0.00000  Uiso   1.00
H153   H     0.96528   0.17343   0.36677   0.00000  Uiso   1.00
H154   H     0.98053   0.21131   0.41736   0.00000  Uiso   1.00
H155   H     0.88127   0.02925   0.40298   0.00000  Uiso   1.00
H156   H     0.75142   0.27236   0.02141   0.00000  Uiso   1.00
H157   H     0.77804   0.09936   0.38873   0.00000  Uiso   1.00
H158   H     0.91095   0.28042   0.04339   0.00000  Uiso   1.00
H159   H     0.75587   0.05282   0.45659   0.00000  Uiso   1.00
H160   H     0.90075   0.00304   0.24473   0.00000  Uiso   1.00
H161   H     0.76592   0.33030   0.25538   0.00000  Uiso   1.00
H162   H     0.67107   0.12645   0.21713   0.00000  Uiso   1.00
H163   H     0.99560   0.20688   0.28287   0.00000  Uiso   1.00
H164   H     0.70133   0.16007   0.13320   0.00000  Uiso   1.00
N165   N     0.98344   0.15265   0.23783   0.00000  Uiso   1.00
N166   N     0.68322   0.18068   0.26217   0.00000  Uiso   1.00
O167   O     0.79642   0.24619   0.25299   0.00000  Uiso   1.00
O168   O     0.91246   0.23563   0.38128   0.00000  Uiso   1.00
O169   O     0.90573   0.02292   0.48978   0.00000  Uiso   1.00
O170   O     0.97296   0.31456   0.43634   0.00000  Uiso   1.00
O171   O     0.86860   0.32670   0.41255   0.00000  Uiso   1.00
O172   O     0.79316   0.00755   0.08268   0.00000  Uiso   1.00
O173   O     0.69337   0.01893   0.06349   0.00000  Uiso   1.00
O174   O     0.76078   0.30564   0.00551   0.00000  Uiso   1.00
O175   O     0.87025   0.08714   0.24702   0.00000  Uiso   1.00
O176   O     0.89280   0.23721   0.24519   0.00000  Uiso   1.00
O177   O     0.77387   0.09613   0.25482   0.00000  Uiso   1.00
O178   O     0.78514   0.17117   0.31998   0.00000  Uiso   1.00
O179   O     0.88153   0.16216   0.18003   0.00000  Uiso   1.00
O180   O     0.88152   0.16219   0.31218   0.00000  Uiso   1.00
O181   O     0.78515   0.17115   0.18783   0.00000  Uiso   1.00
O182   O     0.75409   0.09782   0.11873   0.00000  Uiso   1.00
S183   S     0.91113   0.31407   0.45425   0.00000  Uiso   1.00
S184   S     0.75517   0.01927   0.04552   0.00000  Uiso   1.00
Zn185  Zn    0.76898   0.17266   0.25521   0.00000  Uiso   1.00
Zn186  Zn    0.89769   0.16067   0.24479   0.00000  Uiso   1.00
C187   C     0.18192   0.59825   0.24887   0.00000  Uiso   1.00
C188   C     0.20515   0.53808   0.40610   0.00000  Uiso   1.00
C189   C     0.16314   0.49947   0.11596   0.00000  Uiso   1.00
C190   C     0.17019   0.50053   0.38403   0.00000  Uiso   1.00
C191   C     0.19704   0.53763   0.09289   0.00000  Uiso   1.00
C192   C     0.13636   0.46232   0.40709   0.00000  Uiso   1.00
C193   C     0.19615   0.53954   0.04680   0.00000  Uiso   1.00
C194   C     0.13724   0.46042   0.45318   0.00000  Uiso   1.00
C195   C     0.16587   0.49930   0.02338   0.00000  Uiso   1.00
C196   C     0.16744   0.50070   0.47661   0.00000  Uiso   1.00
C197   C     0.13439   0.45770   0.04679   0.00000  Uiso   1.00
C198   C     0.15142   0.40175   0.25117   0.00000  Uiso   1.00
C199   C     0.19886   0.54233   0.45320   0.00000  Uiso   1.00
C200   C     0.22396   0.58200   0.02430   0.00000  Uiso   1.00
C201   C     0.10948   0.41794   0.47567   0.00000  Uiso   1.00
C202   C     0.03355   0.45365   0.11752   0.00000  Uiso   1.00
C203   C     0.29969   0.54652   0.38246   0.00000  Uiso   1.00
C204   C     0.22314   0.58548   0.47786   0.00000  Uiso   1.00
C205   C     0.11013   0.41453   0.02211   0.00000  Uiso   1.00
C206   C     0.19000   0.65273   0.24823   0.00000  Uiso   1.00
C207   C     0.14334   0.34727   0.25188   0.00000  Uiso   1.00
C208   C     0.16794   0.50076   0.33643   0.00000  Uiso   1.00
C209   C     0.16539   0.49924   0.16357   0.00000  Uiso   1.00
C210   C     0.12810   0.46197   0.09390   0.00000  Uiso   1.00
H211   H     0.22210   0.56721   0.11124   0.00000  Uiso   1.00
H212   H     0.00056   0.42876   0.13690   0.00000  Uiso   1.00
H213   H     0.01941   0.45553   0.08260   0.00000  Uiso   1.00
H214   H     0.33264   0.57144   0.36307   0.00000  Uiso   1.00
H215   H     0.29861   0.50677   0.36677   0.00000  Uiso   1.00
H216   H     0.31387   0.54464   0.41736   0.00000  Uiso   1.00
H217   H     0.21461   0.36259   0.40298   0.00000  Uiso   1.00
H218   H     0.08475   0.60569   0.02141   0.00000  Uiso   1.00
H219   H     0.11138   0.43269   0.38873   0.00000  Uiso   1.00
H220   H     0.24429   0.61376   0.04339   0.00000  Uiso   1.00
H221   H     0.08921   0.38615   0.45659   0.00000  Uiso   1.00
H222   H     0.23408   0.33637   0.24473   0.00000  Uiso   1.00
H223   H     0.09926   0.66363   0.25538   0.00000  Uiso   1.00
H224   H     0.00440   0.45978   0.21713   0.00000  Uiso   1.00
H225   H     0.32893   0.54022   0.28287   0.00000  Uiso   1.00
H226   H     0.03467   0.49341   0.13320   0.00000  Uiso   1.00
N227   N     0.31678   0.48598   0.23783   0.00000  Uiso   1.00
N228   N     0.01656   0.51402   0.26217   0.00000  Uiso   1.00
O229   O     0.12975   0.57952   0.25299   0.00000  Uiso   1.00
O230   O     0.24579   0.56896   0.38128   0.00000  Uiso   1.00
O231   O     0.23906   0.35625   0.48978   0.00000  Uiso   1.00
O232   O     0.30629   0.64789   0.43634   0.00000  Uiso   1.00
O233   O     0.20193   0.66003   0.41255   0.00000  Uiso   1.00
O234   O     0.12649   0.34089   0.08268   0.00000  Uiso   1.00
O235   O     0.02671   0.35226   0.06349   0.00000  Uiso   1.00
O236   O     0.09412   0.63898   0.00551   0.00000  Uiso   1.00
O237   O     0.20358   0.42048   0.24702   0.00000  Uiso   1.00
O238   O     0.22613   0.57054   0.24519   0.00000  Uiso   1.00
O239   O     0.10720   0.42946   0.25482   0.00000  Uiso   1.00
O240   O     0.11847   0.50450   0.31998   0.00000  Uiso   1.00
O241   O     0.21486   0.49550   0.18003   0.00000  Uiso   1.00
O242   O     0.21485   0.49552   0.31218   0.00000  Uiso   1.00
O243   O     0.11848   0.50448   0.18783   0.00000  Uiso   1.00
O244   O     0.08742   0.43115   0.11873   0.00000  Uiso   1.00
S245   S     0.24446   0.64740   0.45425   0.00000  Uiso   1.00
S246   S     0.08851   0.35260   0.04552   0.00000  Uiso   1.00
Zn247  Zn    0.10231   0.50600   0.25521   0.00000  Uiso   1.00
Zn248  Zn    0.23102   0.49400   0.24479   0.00000  Uiso   1.00
C249   C     0.51525   0.59825   0.24887   0.00000  Uiso   1.00
C250   C     0.53848   0.53808   0.40610   0.00000  Uiso   1.00
C251   C     0.49647   0.49947   0.11596   0.00000  Uiso   1.00
C252   C     0.50352   0.50053   0.38403   0.00000  Uiso   1.00
C253   C     0.53037   0.53763   0.09289   0.00000  Uiso   1.00
C254   C     0.46969   0.46232   0.40709   0.00000  Uiso   1.00
C255   C     0.52949   0.53954   0.04680   0.00000  Uiso   1.00
C256   C     0.47057   0.46042   0.45318   0.00000  Uiso   1.00
C257   C     0.49920   0.49930   0.02338   0.00000  Uiso   1.00
C258   C     0.50077   0.50070   0.47661   0.00000  Uiso   1.00
C259   C     0.46772   0.45770   0.04679   0.00000  Uiso   1.00
C260   C     0.48475   0.40175   0.25117   0.00000  Uiso   1.00
C261   C     0.53220   0.54233   0.45320   0.00000  Uiso   1.00
C262   C     0.55729   0.58200   0.02430   0.00000  Uiso   1.00
C263   C     0.44281   0.41794   0.47567   0.00000  Uiso   1.00
C264   C     0.36689   0.45365   0.11752   0.00000  Uiso   1.00
C265   C     0.63302   0.54652   0.38246   0.00000  Uiso   1.00
C266   C     0.55647   0.58548   0.47786   0.00000  Uiso   1.00
C267   C     0.44346   0.41453   0.02211   0.00000  Uiso   1.00
C268   C     0.52333   0.65273   0.24823   0.00000  Uiso   1.00
C269   C     0.47667   0.34727   0.25188   0.00000  Uiso   1.00
C270   C     0.50128   0.50076   0.33643   0.00000  Uiso   1.00
C271   C     0.49872   0.49924   0.16357   0.00000  Uiso   1.00
C272   C     0.46144   0.46197   0.09390   0.00000  Uiso   1.00
H273   H     0.55543   0.56721   0.11124   0.00000  Uiso   1.00
H274   H     0.33389   0.42876   0.13690   0.00000  Uiso   1.00
H275   H     0.35274   0.45553   0.08260   0.00000  Uiso   1.00
H276   H     0.66598   0.57144   0.36307   0.00000  Uiso   1.00
H277   H     0.63195   0.50677   0.36677   0.00000  Uiso   1.00
H278   H     0.64720   0.54464   0.41736   0.00000  Uiso   1.00
H279   H     0.54794   0.36259   0.40298   0.00000  Uiso   1.00
H280   H     0.41808   0.60569   0.02141   0.00000  Uiso   1.00
H281   H     0.44471   0.43269   0.38873   0.00000  Uiso   1.00
H282   H     0.57762   0.61376   0.04339   0.00000  Uiso   1.00
H283   H     0.42254   0.38615   0.45659   0.00000  Uiso   1.00
H284   H     0.56742   0.33637   0.24473   0.00000  Uiso   1.00
H285   H     0.43259   0.66363   0.25538   0.00000  Uiso   1.00
H286   H     0.33774   0.45978   0.21713   0.00000  Uiso   1.00
H287   H     0.66226   0.54022   0.28287   0.00000  Uiso   1.00
H288   H     0.36800   0.49341   0.13320   0.00000  Uiso   1.00
N289   N     0.65011   0.48598   0.23783   0.00000  Uiso   1.00
N290   N     0.34989   0.51402   0.26217   0.00000  Uiso   1.00
O291   O     0.46308   0.57952   0.25299   0.00000  Uiso   1.00
O292   O     0.57912   0.56896   0.38128   0.00000  Uiso   1.00
O293   O     0.57240   0.35625   0.48978   0.00000  Uiso   1.00
O294   O     0.63963   0.64789   0.43634   0.00000  Uiso   1.00
O295   O     0.53526   0.66003   0.41255   0.00000  Uiso   1.00
O296   O     0.45983   0.34089   0.08268   0.00000  Uiso   1.00
O297   O     0.36004   0.35226   0.06349   0.00000  Uiso   1.00
O298   O     0.42745   0.63898   0.00551   0.00000  Uiso   1.00
O299   O     0.53692   0.42048   0.24702   0.00000  Uiso   1.00
O300   O     0.55946   0.57054   0.24519   0.00000  Uiso   1.00
O301   O     0.44054   0.42946   0.25482   0.00000  Uiso   1.00
O302   O     0.45181   0.50450   0.31998   0.00000  Uiso   1.00
O303   O     0.54819   0.49550   0.18003   0.00000  Uiso   1.00
O304   O     0.54819   0.49552   0.31218   0.00000  Uiso   1.00
O305   O     0.45181   0.50448   0.18783   0.00000  Uiso   1.00
O306   O     0.42075   0.43115   0.11873   0.00000  Uiso   1.00
S307   S     0.57779   0.64740   0.45425   0.00000  Uiso   1.00
S308   S     0.42184   0.35260   0.04552   0.00000  Uiso   1.00
Zn309  Zn    0.43565   0.50600   0.25521   0.00000  Uiso   1.00
Zn310  Zn    0.56435   0.49400   0.24479   0.00000  Uiso   1.00
C311   C     0.84859   0.59825   0.24887   0.00000  Uiso   1.00
C312   C     0.87181   0.53808   0.40610   0.00000  Uiso   1.00
C313   C     0.82981   0.49947   0.11596   0.00000  Uiso   1.00
C314   C     0.83686   0.50053   0.38403   0.00000  Uiso   1.00
C315   C     0.86371   0.53763   0.09289   0.00000  Uiso   1.00
C316   C     0.80302   0.46232   0.40709   0.00000  Uiso   1.00
C317   C     0.86282   0.53954   0.04680   0.00000  Uiso   1.00
C318   C     0.80390   0.46042   0.45318   0.00000  Uiso   1.00
C319   C     0.83253   0.49930   0.02338   0.00000  Uiso   1.00
C320   C     0.83411   0.50070   0.47661   0.00000  Uiso   1.00
C321   C     0.80106   0.45770   0.04679   0.00000  Uiso   1.00
C322   C     0.81808   0.40175   0.25117   0.00000  Uiso   1.00
C323   C     0.86553   0.54233   0.45320   0.00000  Uiso   1.00
C324   C     0.89063   0.58200   0.02430   0.00000  Uiso   1.00
C325   C     0.77614   0.41794   0.47567   0.00000  Uiso   1.00
C326   C     0.70022   0.45365   0.11752   0.00000  Uiso   1.00
C327   C     0.96636   0.54652   0.38246   0.00000  Uiso   1.00
C328   C     0.88981   0.58548   0.47786   0.00000  Uiso   1.00
C329   C     0.77679   0.41453   0.02211   0.00000  Uiso   1.00
C330   C     0.85667   0.65273   0.24823   0.00000  Uiso   1.00
C331   C     0.81001   0.34727   0.25188   0.00000  Uiso   1.00
C332   C     0.83461   0.50076   0.33643   0.00000  Uiso   1.00
C333   C     0.83206   0.49924   0.16357   0.00000  Uiso   1.00
C334   C     0.79477   0.46197   0.09390   0.00000  Uiso   1.00
H335   H     0.88876   0.56721   0.11124   0.00000  Uiso   1.00
H336   H     0.66722   0.42876   0.13690   0.00000  Uiso   1.00
H337   H     0.68608   0.45553   0.08260   0.00000  Uiso   1.00
H338   H     0.99931   0.57144   0.36307   0.00000  Uiso   1.00
H339   H     0.96528   0.50677   0.36677   0.00000  Uiso   1.00
H340   H     0.98053   0.54464   0.41736   0.00000  Uiso   1.00
H341   H     0.88127   0.36259   0.40298   0.00000  Uiso   1.00
H342   H     0.75142   0.60569   0.02141   0.00000  Uiso   1.00
H343   H     0.77804   0.43269   0.38873   0.00000  Uiso   1.00
H344   H     0.91095   0.61376   0.04339   0.00000  Uiso   1.00
H345   H     0.75587   0.38615   0.45659   0.00000  Uiso   1.00
H346   H     0.90075   0.33637   0.24473   0.00000  Uiso   1.00
H347   H     0.76592   0.66363   0.25538   0.00000  Uiso   1.00
H348   H     0.67107   0.45978   0.21713   0.00000  Uiso   1.00
H349   H     0.99560   0.54022   0.28287   0.00000  Uiso   1.00
H350   H     0.70133   0.49341   0.13320   0.00000  Uiso   1.00
N351   N     0.98344   0.48598   0.23783   0.00000  Uiso   1.00
N352   N     0.68322   0.51402   0.26217   0.00000  Uiso   1.00
O353   O     0.79642   0.57952   0.25299   0.00000  Uiso   1.00
O354   O     0.91246   0.56896   0.38128   0.00000  Uiso   1.00
O355   O     0.90573   0.35625   0.48978   0.00000  Uiso   1.00
O356   O     0.97296   0.64789   0.43634   0.00000  Uiso   1.00
O357   O     0.86860   0.66003   0.41255   0.00000  Uiso   1.00
O358   O     0.79316   0.34089   0.08268   0.00000  Uiso   1.00
O359   O     0.69337   0.35226   0.06349   0.00000  Uiso   1.00
O360   O     0.76078   0.63898   0.00551   0.00000  Uiso   1.00
O361   O     0.87025   0.42048   0.24702   0.00000  Uiso   1.00
O362   O     0.89280   0.57054   0.24519   0.00000  Uiso   1.00
O363   O     0.77387   0.42946   0.25482   0.00000  Uiso   1.00
O364   O     0.78514   0.50450   0.31998   0.00000  Uiso   1.00
O365   O     0.88153   0.49550   0.18003   0.00000  Uiso   1.00
O366   O     0.88152   0.49552   0.31218   0.00000  Uiso   1.00
O367   O     0.78515   0.50448   0.18783   0.00000  Uiso   1.00
O368   O     0.75409   0.43115   0.11873   0.00000  Uiso   1.00
S369   S     0.91113   0.64740   0.45425   0.00000  Uiso   1.00
S370   S     0.75517   0.35260   0.04552   0.00000  Uiso   1.00
Zn371  Zn    0.76898   0.50600   0.25521   0.00000  Uiso   1.00
Zn372  Zn    0.89769   0.49400   0.24479   0.00000  Uiso   1.00
C373   C     0.18192   0.93158   0.24887   0.00000  Uiso   1.00
C374   C     0.20515   0.87142   0.40610   0.00000  Uiso   1.00
C375   C     0.16314   0.83281   0.11596   0.00000  Uiso   1.00
C376   C     0.17019   0.83386   0.38403   0.00000  Uiso   1.00
C377   C     0.19704   0.87097   0.09289   0.00000  Uiso   1.00
C378   C     0.13636   0.79565   0.40709   0.00000  Uiso   1.00
C379   C     0.19615   0.87287   0.04680   0.00000  Uiso   1.00
C380   C     0.13724   0.79375   0.45318   0.00000  Uiso   1.00
C381   C     0.16587   0.83263   0.02338   0.00000  Uiso   1.00
C382   C     0.16744   0.83403   0.47661   0.00000  Uiso   1.00
C383   C     0.13439   0.79104   0.04679   0.00000  Uiso   1.00
C384   C     0.15142   0.73509   0.25117   0.00000  Uiso   1.00
C385   C     0.19886   0.87566   0.45320   0.00000  Uiso   1.00
C386   C     0.22396   0.91533   0.02430   0.00000  Uiso   1.00
C387   C     0.10948   0.75127   0.47567   0.00000  Uiso   1.00
C388   C     0.03355   0.78698   0.11752   0.00000  Uiso   1.00
C389   C     0.29969   0.87985   0.38246   0.00000  Uiso   1.00
C390   C     0.22314   0.91881   0.47786   0.00000  Uiso   1.00
C391   C     0.11013   0.74787   0.02211   0.00000  Uiso   1.00
C392   C     0.19000   0.98606   0.24823   0.00000  Uiso   1.00
C393   C     0.14334   0.68061   0.25188   0.00000  Uiso   1.00
C394   C     0.16794   0.83410   0.33643   0.00000  Uiso   1.00
C395   C     0.16539   0.83257   0.16357   0.00000  Uiso   1.00
C396   C     0.12810   0.79531   0.09390   0.00000  Uiso   1.00
H397   H     0.22210   0.90055   0.11124   0.00000  Uiso   1.00
H398   H     0.00056   0.76209   0.13690   0.00000  Uiso   1.00
H399   H     0.01941   0.78886   0.08260   0.00000  Uiso   1.00
H400   H     0.33264   0.90477   0.36307   0.00000  Uiso   1.00
H401   H     0.29861   0.84010   0.36677   0.00000  Uiso   1.00
H402   H     0.31387   0.87798   0.41736   0.00000  Uiso   1.00
H403   H     0.21461   0.69592   0.40298   0.00000  Uiso   1.00
H404   H     0.08475   0.93902   0.02141   0.00000  Uiso   1.00
H405   H     0.11138   0.76603   0.38873   0.00000  Uiso   1.00
H406   H     0.24429   0.94709   0.04339   0.00000  Uiso   1.00
H407   H     0.08921   0.71948   0.45659   0.00000  Uiso   1.00
H408   H     0.23408   0.66970   0.24473   0.00000  Uiso   1.00
H409   H     0.09926   0.99697   0.25538   0.00000  Uiso   1.00
H410   H     0.00440   0.79312   0.21713   0.00000  Uiso   1.00
H411   H     0.32893   0.87355   0.28287   0.00000  Uiso   1.00
H412   H     0.03467   0.82674   0.13320   0.00000  Uiso   1.00
N413   N     0.31678   0.81932   0.23783   0.00000  Uiso   1.00
N414   N     0.01656   0.84735   0.26217   0.00000  Uiso   1.00
O415   O     0.12975   0.91286   0.25299   0.00000  Uiso   1.00
O416   O     0.24579   0.90230   0.38128   0.00000  Uiso   1.00
O417   O     0.23906   0.68958   0.48978   0.00000  Uiso   1.00
O418   O     0.30629   0.98123   0.43634   0.00000  Uiso   1.00
O419   O     0.20193   0.99337   0.41255   0.00000  Uiso   1.00
O420   O     0.12649   0.67422   0.08268   0.00000  Uiso   1.00
O421   O     0.02671   0.68559   0.06349   0.00000  Uiso   1.00
O422   O     0.09412   0.97231   0.00551   0.00000  Uiso   1.00
O423   O     0.20358   0.75381   0.24702   0.00000  Uiso   1.00
O424   O     0.22613   0.90387   0.24519   0.00000  Uiso   1.00
O425   O     0.10720   0.76279   0.25482   0.00000  Uiso   1.00
O426   O     0.11847   0.83784   0.31998   0.00000  Uiso   1.00
O427   O     0.21486   0.82883   0.18003   0.00000  Uiso   1.00
O428   O     0.21485   0.82885   0.31218   0.00000  Uiso   1.00
O429   O     0.11848   0.83781   0.18783   0.00000  Uiso   1.00
O430   O     0.08742   0.76449   0.11873   0.00000  Uiso   1.00
S431   S     0.24446   0.98074   0.45425   0.00000  Uiso   1.00
S432   S     0.08851   0.68594   0.04552   0.00000  Uiso   1.00
Zn433  Zn    0.10231   0.83933   0.25521   0.00000  Uiso   1.00
Zn434  Zn    0.23102   0.82734   0.24479   0.00000  Uiso   1.00
C435   C     0.51525   0.93158   0.24887   0.00000  Uiso   1.00
C436   C     0.53848   0.87142   0.40610   0.00000  Uiso   1.00
C437   C     0.49647   0.83281   0.11596   0.00000  Uiso   1.00
C438   C     0.50352   0.83386   0.38403   0.00000  Uiso   1.00
C439   C     0.53037   0.87097   0.09289   0.00000  Uiso   1.00
C440   C     0.46969   0.79565   0.40709   0.00000  Uiso   1.00
C441   C     0.52949   0.87287   0.04680   0.00000  Uiso   1.00
C442   C     0.47057   0.79375   0.45318   0.00000  Uiso   1.00
C443   C     0.49920   0.83263   0.02338   0.00000  Uiso   1.00
C444   C     0.50077   0.83403   0.47661   0.00000  Uiso   1.00
C445   C     0.46772   0.79104   0.04679   0.00000  Uiso   1.00
C446   C     0.48475   0.73509   0.25117   0.00000  Uiso   1.00
C447   C     0.53220   0.87566   0.45320   0.00000  Uiso   1.00
C448   C     0.55729   0.91533   0.02430   0.00000  Uiso   1.00
C449   C     0.44281   0.75127   0.47567   0.00000  Uiso   1.00
C450   C     0.36689   0.78698   0.11752   0.00000  Uiso   1.00
C451   C     0.63302   0.87985   0.38246   0.00000  Uiso   1.00
C452   C     0.55647   0.91881   0.47786   0.00000  Uiso   1.00
C453   C     0.44346   0.74787   0.02211   0.00000  Uiso   1.00
C454   C     0.52333   0.98606   0.24823   0.00000  Uiso   1.00
C455   C     0.47667   0.68061   0.25188   0.00000  Uiso   1.00
C456   C     0.50128   0.83410   0.33643   0.00000  Uiso   1.00
C457   C     0.49872   0.83257   0.16357   0.00000  Uiso   1.00
C458   C     0.46144   0.79531   0.09390   0.00000  Uiso   1.00
H459   H     0.55543   0.90055   0.11124   0.00000  Uiso   1.00
H460   H     0.33389   0.76209   0.13690   0.00000  Uiso   1.00
H461   H     0.35274   0.78886   0.08260   0.00000  Uiso   1.00
H462   H     0.66598   0.90477   0.36307   0.00000  Uiso   1.00
H463   H     0.63195   0.84010   0.36677   0.00000  Uiso   1.00
H464   H     0.64720   0.87798   0.41736   0.00000  Uiso   1.00
H465   H     0.54794   0.69592   0.40298   0.00000  Uiso   1.00
H466   H     0.41808   0.93902   0.02141   0.00000  Uiso   1.00
H467   H     0.44471   0.76603   0.38873   0.00000  Uiso   1.00
H468   H     0.57762   0.94709   0.04339   0.00000  Uiso   1.00
H469   H     0.42254   0.71948   0.45659   0.00000  Uiso   1.00
H470   H     0.56742   0.66970   0.24473   0.00000  Uiso   1.00
H471   H     0.43259   0.99697   0.25538   0.00000  Uiso   1.00
H472   H     0.33774   0.79312   0.21713   0.00000  Uiso   1.00
H473   H     0.66226   0.87355   0.28287   0.00000  Uiso   1.00
H474   H     0.36800   0.82674   0.13320   0.00000  Uiso   1.00
N475   N     0.65011   0.81932   0.23783   0.00000  Uiso   1.00
N476   N     0.34989   0.84735   0.26217   0.00000  Uiso   1.00
O477   O     0.46308   0.91286   0.25299   0.00000  Uiso   1.00
O478   O     0.57912   0.90230   0.38128   0.00000  Uiso   1.00
O479   O     0.57240   0.68958   0.48978   0.00000  Uiso   1.00
O480   O     0.63963   0.98123   0.43634   0.00000  Uiso   1.00
O481   O     0.53526   0.99337   0.41255   0.00000  Uiso   1.00
O482   O     0.45983   0.67422   0.08268   0.00000  Uiso   1.00
O483   O     0.36004   0.68559   0.06349   0.00000  Uiso   1.00
O484   O     0.42745   0.97231   0.00551   0.00000  Uiso   1.00
O485   O     0.53692   0.75381   0.24702   0.00000  Uiso   1.00
O486   O     0.55946   0.90387   0.24519   0.00000  Uiso   1.00
O487   O     0.44054   0.76279   0.25482   0.00000  Uiso   1.00
O488   O     0.45181   0.83784   0.31998   0.00000  Uiso   1.00
O489   O     0.54819   0.82883   0.18003   0.00000  Uiso   1.00
O490   O     0.54819   0.82885   0.31218   0.00000  Uiso   1.00
O491   O     0.45181   0.83781   0.18783   0.00000  Uiso   1.00
O492   O     0.42075   0.76449   0.11873   0.00000  Uiso   1.00
S493   S     0.57779   0.98074   0.45425   0.00000  Uiso   1.00
S494   S     0.42184   0.68594   0.04552   0.00000  Uiso   1.00
Zn495  Zn    0.43565   0.83933   0.25521   0.00000  Uiso   1.00
Zn496  Zn    0.56435   0.82734   0.24479   0.00000  Uiso   1.00
C497   C     0.84859   0.93158   0.24887   0.00000  Uiso   1.00
C498   C     0.87181   0.87142   0.40610   0.00000  Uiso   1.00
C499   C     0.82981   0.83281   0.11596   0.00000  Uiso   1.00
C500   C     0.83686   0.83386   0.38403   0.00000  Uiso   1.00
C501   C     0.86371   0.87097   0.09289   0.00000  Uiso   1.00
C502   C     0.80302   0.79565   0.40709   0.00000  Uiso   1.00
C503   C     0.86282   0.87287   0.04680   0.00000  Uiso   1.00
C504   C     0.80390   0.79375   0.45318   0.00000  Uiso   1.00
C505   C     0.83253   0.83263   0.02338   0.00000  Uiso   1.00
C506   C     0.83411   0.83403   0.47661   0.00000  Uiso   1.00
C507   C     0.80106   0.79104   0.04679   0.00000  Uiso   1.00
C508   C     0.81808   0.73509   0.25117   0.00000  Uiso   1.00
C509   C     0.86553   0.87566   0.45320   0.00000  Uiso   1.00
C510   C     0.89063   0.91533   0.02430   0.00000  Uiso   1.00
C511   C     0.77614   0.75127   0.47567   0.00000  Uiso   1.00
C512   C     0.70022   0.78698   0.11752   0.00000  Uiso   1.00
C513   C     0.96636   0.87985   0.38246   0.00000  Uiso   1.00
C514   C     0.88981   0.91881   0.47786   0.00000  Uiso   1.00
C515   C     0.77679   0.74787   0.02211   0.00000  Uiso   1.00
C516   C     0.85667   0.98606   0.24823   0.00000  Uiso   1.00
C517   C     0.81001   0.68061   0.25188   0.00000  Uiso   1.00
C518   C     0.83461   0.83410   0.33643   0.00000  Uiso   1.00
C519   C     0.83206   0.83257   0.16357   0.00000  Uiso   1.00
C520   C     0.79477   0.79531   0.09390   0.00000  Uiso   1.00
H521   H     0.88876   0.90055   0.11124   0.00000  Uiso   1.00
H522   H     0.66722   0.76209   0.13690   0.00000  Uiso   1.00
H523   H     0.68608   0.78886   0.08260   0.00000  Uiso   1.00
H524   H     0.99931   0.90477   0.36307   0.00000  Uiso   1.00
H525   H     0.96528   0.84010   0.36677   0.00000  Uiso   1.00
H526   H     0.98053   0.87798   0.41736   0.00000  Uiso   1.00
H527   H     0.88127   0.69592   0.40298   0.00000  Uiso   1.00
H528   H     0.75142   0.93902   0.02141   0.00000  Uiso   1.00
H529   H     0.77804   0.76603   0.38873   0.00000  Uiso   1.00
H530   H     0.91095   0.94709   0.04339   0.00000  Uiso   1.00
H531   H     0.75587   0.71948   0.45659   0.00000  Uiso   1.00
H532   H     0.90075   0.66970   0.24473   0.00000  Uiso   1.00
H533   H     0.76592   0.99697   0.25538   0.00000  Uiso   1.00
H534   H     0.67107   0.79312   0.21713   0.00000  Uiso   1.00
H535   H     0.99560   0.87355   0.28287   0.00000  Uiso   1.00
H536   H     0.70133   0.82674   0.13320   0.00000  Uiso   1.00
N537   N     0.98344   0.81932   0.23783   0.00000  Uiso   1.00
N538   N     0.68322   0.84735   0.26217   0.00000  Uiso   1.00
O539   O     0.79642   0.91286   0.25299   0.00000  Uiso   1.00
O540   O     0.91246   0.90230   0.38128   0.00000  Uiso   1.00
O541   O     0.90573   0.68958   0.48978   0.00000  Uiso   1.00
O542   O     0.97296   0.98123   0.43634   0.00000  Uiso   1.00
O543   O     0.86860   0.99337   0.41255   0.00000  Uiso   1.00
O544   O     0.79316   0.67422   0.08268   0.00000  Uiso   1.00
O545   O     0.69337   0.68559   0.06349   0.00000  Uiso   1.00
O546   O     0.76078   0.97231   0.00551   0.00000  Uiso   1.00
O547   O     0.87025   0.75381   0.24702   0.00000  Uiso   1.00
O548   O     0.89280   0.90387   0.24519   0.00000  Uiso   1.00
O549   O     0.77387   0.76279   0.25482   0.00000  Uiso   1.00
O550   O     0.78514   0.83784   0.31998   0.00000  Uiso   1.00
O551   O     0.88153   0.82883   0.18003   0.00000  Uiso   1.00
O552   O     0.88152   0.82885   0.31218   0.00000  Uiso   1.00
O553   O     0.78515   0.83781   0.18783   0.00000  Uiso   1.00
O554   O     0.75409   0.76449   0.11873   0.00000  Uiso   1.00
S555   S     0.91113   0.98074   0.45425   0.00000  Uiso   1.00
S556   S     0.75517   0.68594   0.04552   0.00000  Uiso   1.00
Zn557  Zn    0.76898   0.83933   0.25521   0.00000  Uiso   1.00
Zn558  Zn    0.89769   0.82734   0.24479   0.00000  Uiso   1.00
C559   C     0.18192   0.26491   0.74887   0.00000  Uiso   1.00
C560   C     0.20515   0.20475   0.90610   0.00000  Uiso   1.00
C561   C     0.16314   0.16614   0.61596   0.00000  Uiso   1.00
C562   C     0.17019   0.16720   0.88403   0.00000  Uiso   1.00
C563   C     0.19704   0.20430   0.59289   0.00000  Uiso   1.00
C564   C     0.13636   0.12899   0.90709   0.00000  Uiso   1.00
C565   C     0.19615   0.20620   0.54680   0.00000  Uiso   1.00
C566   C     0.13724   0.12709   0.95318   0.00000  Uiso   1.00
C567   C     0.16587   0.16597   0.52338   0.00000  Uiso   1.00
C568   C     0.16744   0.16737   0.97661   0.00000  Uiso   1.00
C569   C     0.13439   0.12437   0.54679   0.00000  Uiso   1.00
C570   C     0.15142   0.06842   0.75117   0.00000  Uiso   1.00
C571   C     0.19886   0.20899   0.95320   0.00000  Uiso   1.00
C572   C     0.22396   0.24866   0.52430   0.00000  Uiso   1.00
C573   C     0.10948   0.08461   0.97567   0.00000  Uiso   1.00
C574   C     0.03355   0.12031   0.61752   0.00000  Uiso   1.00
C575   C     0.29969   0.21319   0.88246   0.00000  Uiso   1.00
C576   C     0.22314   0.25215   0.97786   0.00000  Uiso   1.00
C577   C     0.11013   0.08120   0.52211   0.00000  Uiso   1.00
C578   C     0.19000   0.31939   0.74823   0.00000  Uiso   1.00
C579   C     0.14334   0.01394   0.75188   0.00000  Uiso   1.00
C580   C     0.16794   0.16743   0.83643   0.00000  Uiso   1.00
C581   C     0.16539   0.16591   0.66357   0.00000  Uiso   1.00
C582   C     0.12810   0.12864   0.59390   0.00000  Uiso   1.00
H583   H     0.22210   0.23388   0.61124   0.00000  Uiso   1.00
H584   H     0.00056   0.09543   0.63690   0.00000  Uiso   1.00
H585   H     0.01941   0.12220   0.58260   0.00000  Uiso   1.00
H586   H     0.33264   0.23811   0.86307   0.00000  Uiso   1.00
H587   H     0.29861   0.17343   0.86677   0.00000  Uiso   1.00
H588   H     0.31387   0.21131   0.91736   0.00000  Uiso   1.00
H589   H     0.21461   0.02925   0.90298   0.00000  Uiso   1.00
H590   H     0.08475   0.27236   0.52141   0.00000  Uiso   1.00
H591   H     0.11138   0.09936   0.88873   0.00000  Uiso   1.00
H592   H     0.24429   0.28042   0.54339   0.00000  Uiso   1.00
H593   H     0.08921   0.05282   0.95659   0.00000  Uiso   1.00
H594   H     0.23408   0.00304   0.74473   0.00000  Uiso   1.00
H595   H     0.09926   0.33030   0.75538   0.00000  Uiso   1.00
H596   H     0.00440   0.12645   0.71713   0.00000  Uiso   1.00
H597   H     0.32893   0.20688   0.78287   0.00000  Uiso   1.00
H598   H     0.03467   0.16007   0.63320   0.00000  Uiso   1.00
N599   N     0.31678   0.15265   0.73783   0.00000  Uiso   1.00
N600   N     0.01656   0.18068   0.76217   0.00000  Uiso   1.00
O601   O     0.12975   0.24619   0.75299   0.00000  Uiso   1.00
O602   O     0.24579   0.23563   0.88128   0.00000  Uiso   1.00
O603   O     0.23906   0.02292   0.98978   0.00000  Uiso   1.00
O604   O     0.30629   0.31456   0.93634   0.00000  Uiso   1.00
O605   O     0.20193   0.32670   0.91255   0.00000  Uiso   1.00
O606   O     0.12649   0.00755   0.58268   0.00000  Uiso   1.00
O607   O     0.02671   0.01893   0.56349   0.00000  Uiso   1.00
O608   O     0.09412   0.30564   0.50551   0.00000  Uiso   1.00
O609   O     0.20358   0.08714   0.74702   0.00000  Uiso   1.00
O610   O     0.22613   0.23721   0.74519   0.00000  Uiso   1.00
O611   O     0.10720   0.09613   0.75482   0.00000  Uiso   1.00
O612   O     0.11847   0.17117   0.81998   0.00000  Uiso   1.00
O613   O     0.21486   0.16216   0.68003   0.00000  Uiso   1.00
O614   O     0.21485   0.16219   0.81218   0.00000  Uiso   1.00
O615   O     0.11848   0.17115   0.68783   0.00000  Uiso   1.00
O616   O     0.08742   0.09782   0.61873   0.00000  Uiso   1.00
S617   S     0.24446   0.31407   0.95425   0.00000  Uiso   1.00
S618   S     0.08851   0.01927   0.54552   0.00000  Uiso   1.00
Zn619  Zn    0.10231   0.17266   0.75521   0.00000  Uiso   1.00
Zn620  Zn    0.23102   0.16067   0.74479   0.00000  Uiso   1.00
C621   C     0.51525   0.26491   0.74887   0.00000  Uiso   1.00
C622   C     0.53848   0.20475   0.90610   0.00000  Uiso   1.00
C623   C     0.49647   0.16614   0.61596   0.00000  Uiso   1.00
C624   C     0.50352   0.16720   0.88403   0.00000  Uiso   1.00
C625   C     0.53037   0.20430   0.59289   0.00000  Uiso   1.00
C626   C     0.46969   0.12899   0.90709   0.00000  Uiso   1.00
C627   C     0.52949   0.20620   0.54680   0.00000  Uiso   1.00
C628   C     0.47057   0.12709   0.95318   0.00000  Uiso   1.00
C629   C     0.49920   0.16597   0.52338   0.00000  Uiso   1.00
C630   C     0.50077   0.16737   0.97661   0.00000  Uiso   1.00
C631   C     0.46772   0.12437   0.54679   0.00000  Uiso   1.00
C632   C     0.48475   0.06842   0.75117   0.00000  Uiso   1.00
C633   C     0.53220   0.20899   0.95320   0.00000  Uiso   1.00
C634   C     0.55729   0.24866   0.52430   0.00000  Uiso   1.00
C635   C     0.44281   0.08461   0.97567   0.00000  Uiso   1.00
C636   C     0.36689   0.12031   0.61752   0.00000  Uiso   1.00
C637   C     0.63302   0.21319   0.88246   0.00000  Uiso   1.00
C638   C     0.55647   0.25215   0.97786   0.00000  Uiso   1.00
C639   C     0.44346   0.08120   0.52211   0.00000  Uiso   1.00
C640   C     0.52333   0.31939   0.74823   0.00000  Uiso   1.00
C641   C     0.47667   0.01394   0.75188   0.00000  Uiso   1.00
C642   C     0.50128   0.16743   0.83643   0.00000  Uiso   1.00
C643   C     0.49872   0.16591   0.66357   0.00000  Uiso   1.00
C644   C     0.46144   0.12864   0.59390   0.00000  Uiso   1.00
H645   H     0.55543   0.23388   0.61124   0.00000  Uiso   1.00
H646   H     0.33389   0.09543   0.63690   0.00000  Uiso   1.00
H647   H     0.35274   0.12220   0.58260   0.00000  Uiso   1.00
H648   H     0.66598   0.23811   0.86307   0.00000  Uiso   1.00
H649   H     0.63195   0.17343   0.86677   0.00000  Uiso   1.00
H650   H     0.64720   0.21131   0.91736   0.00000  Uiso   1.00
H651   H     0.54794   0.02925   0.90298   0.00000  Uiso   1.00
H652   H     0.41808   0.27236   0.52141   0.00000  Uiso   1.00
H653   H     0.44471   0.09936   0.88873   0.00000  Uiso   1.00
H654   H     0.57762   0.28042   0.54339   0.00000  Uiso   1.00
H655   H     0.42254   0.05282   0.95659   0.00000  Uiso   1.00
H656   H     0.56742   0.00304   0.74473   0.00000  Uiso   1.00
H657   H     0.43259   0.33030   0.75538   0.00000  Uiso   1.00
H658   H     0.33774   0.12645   0.71713   0.00000  Uiso   1.00
H659   H     0.66226   0.20688   0.78287   0.00000  Uiso   1.00
H660   H     0.36800   0.16007   0.63320   0.00000  Uiso   1.00
N661   N     0.65011   0.15265   0.73783   0.00000  Uiso   1.00
N662   N     0.34989   0.18068   0.76217   0.00000  Uiso   1.00
O663   O     0.46308   0.24619   0.75299   0.00000  Uiso   1.00
O664   O     0.57912   0.23563   0.88128   0.00000  Uiso   1.00
O665   O     0.57240   0.02292   0.98978   0.00000  Uiso   1.00
O666   O     0.63963   0.31456   0.93634   0.00000  Uiso   1.00
O667   O     0.53526   0.32670   0.91255   0.00000  Uiso   1.00
O668   O     0.45983   0.00755   0.58268   0.00000  Uiso   1.00
O669   O     0.36004   0.01893   0.56349   0.00000  Uiso   1.00
O670   O     0.42745   0.30564   0.50551   0.00000  Uiso   1.00
O671   O     0.53692   0.08714   0.74702   0.00000  Uiso   1.00
O672   O     0.55946   0.23721   0.74519   0.00000  Uiso   1.00
O673   O     0.44054   0.09613   0.75482   0.00000  Uiso   1.00
O674   O     0.45181   0.17117   0.81998   0.00000  Uiso   1.00
O675   O     0.54819   0.16216   0.68003   0.00000  Uiso   1.00
O676   O     0.54819   0.16219   0.81218   0.00000  Uiso   1.00
O677   O     0.45181   0.17115   0.68783   0.00000  Uiso   1.00
O678   O     0.42075   0.09782   0.61873   0.00000  Uiso   1.00
S679   S     0.57779   0.31407   0.95425   0.00000  Uiso   1.00
S680   S     0.42184   0.01927   0.54552   0.00000  Uiso   1.00
Zn681  Zn    0.43565   0.17266   0.75521   0.00000  Uiso   1.00
Zn682  Zn    0.56435   0.16067   0.74479   0.00000  Uiso   1.00
C683   C     0.84859   0.26491   0.74887   0.00000  Uiso   1.00
C684   C     0.87181   0.20475   0.90610   0.00000  Uiso   1.00
C685   C     0.82981   0.16614   0.61596   0.00000  Uiso   1.00
C686   C     0.83686   0.16720   0.88403   0.00000  Uiso   1.00
C687   C     0.86371   0.20430   0.59289   0.00000  Uiso   1.00
C688   C     0.80302   0.12899   0.90709   0.00000  Uiso   1.00
C689   C     0.86282   0.20620   0.54680   0.00000  Uiso   1.00
C690   C     0.80390   0.12709   0.95318   0.00000  Uiso   1.00
C691   C     0.83253   0.16597   0.52338   0.00000  Uiso   1.00
C692   C     0.83411   0.16737   0.97661   0.00000  Uiso   1.00
C693   C     0.80106   0.12437   0.54679   0.00000  Uiso   1.00
C694   C     0.81808   0.06842   0.75117   0.00000  Uiso   1.00
C695   C     0.86553   0.20899   0.95320   0.00000  Uiso   1.00
C696   C     0.89063   0.24866   0.52430   0.00000  Uiso   1.00
C697   C     0.77614   0.08461   0.97567   0.00000  Uiso   1.00
C698   C     0.70022   0.12031   0.61752   0.00000  Uiso   1.00
C699   C     0.96636   0.21319   0.88246   0.00000  Uiso   1.00
C700   C     0.88981   0.25215   0.97786   0.00000  Uiso   1.00
C701   C     0.77679   0.08120   0.52211   0.00000  Uiso   1.00
C702   C     0.85667   0.31939   0.74823   0.00000  Uiso   1.00
C703   C     0.81001   0.01394   0.75188   0.00000  Uiso   1.00
C704   C     0.83461   0.16743   0.83643   0.00000  Uiso   1.00
C705   C     0.83206   0.16591   0.66357   0.00000  Uiso   1.00
C706   C     0.79477   0.12864   0.59390   0.00000  Uiso   1.00
H707   H     0.88876   0.23388   0.61124   0.00000  Uiso   1.00
H708   H     0.66722   0.09543   0.63690   0.00000  Uiso   1.00
H709   H     0.68608   0.12220   0.58260   0.00000  Uiso   1.00
H710   H     0.99931   0.23811   0.86307   0.00000  Uiso   1.00
H711   H     0.96528   0.17343   0.86677   0.00000  Uiso   1.00
H712   H     0.98053   0.21131   0.91736   0.00000  Uiso   1.00
H713   H     0.88127   0.02925   0.90298   0.00000  Uiso   1.00
H714   H     0.75142   0.27236   0.52141   0.00000  Uiso   1.00
H715   H     0.77804   0.09936   0.88873   0.00000  Uiso   1.00
H716   H     0.91095   0.28042   0.54339   0.00000  Uiso   1.00
H717   H     0.75587   0.05282   0.95659   0.00000  Uiso   1.00
H718   H     0.90075   0.00304   0.74473   0.00000  Uiso   1.00
H719   H     0.76592   0.33030   0.75538   0.00000  Uiso   1.00
H720   H     0.67107   0.12645   0.71713   0.00000  Uiso   1.00
H721   H     0.99560   0.20688   0.78287   0.00000  Uiso   1.00
H722   H     0.70133   0.16007   0.63320   0.00000  Uiso   1.00
N723   N     0.98344   0.15265   0.73783   0.00000  Uiso   1.00
N724   N     0.68322   0.18068   0.76217   0.00000  Uiso   1.00
O725   O     0.79642   0.24619   0.75299   0.00000  Uiso   1.00
O726   O     0.91246   0.23563   0.88128   0.00000  Uiso   1.00
O727   O     0.90573   0.02292   0.98978   0.00000  Uiso   1.00
O728   O     0.97296   0.31456   0.93634   0.00000  Uiso   1.00
O729   O     0.86860   0.32670   0.91255   0.00000  Uiso   1.00
O730   O     0.79316   0.00755   0.58268   0.00000  Uiso   1.00
O731   O     0.69337   0.01893   0.56349   0.00000  Uiso   1.00
O732   O     0.76078   0.30564   0.50551   0.00000  Uiso   1.00
O733   O     0.87025   0.08714   0.74702   0.00000  Uiso   1.00
O734   O     0.89280   0.23721   0.74519   0.00000  Uiso   1.00
O735   O     0.77387   0.09613   0.75482   0.00000  Uiso   1.00
O736   O     0.78514   0.17117   0.81998   0.00000  Uiso   1.00
O737   O     0.88153   0.16216   0.68003   0.00000  Uiso   1.00
O738   O     0.88152   0.16219   0.81218   0.00000  Uiso   1.00
O739   O     0.78515   0.17115   0.68783   0.00000  Uiso   1.00
O740   O     0.75409   0.09782   0.61873   0.00000  Uiso   1.00
S741   S     0.91113   0.31407   0.95425   0.00000  Uiso   1.00
S742   S     0.75517   0.01927   0.54552   0.00000  Uiso   1.00
Zn743  Zn    0.76898   0.17266   0.75521   0.00000  Uiso   1.00
Zn744  Zn    0.89769   0.16067   0.74479   0.00000  Uiso   1.00
C745   C     0.18192   0.59825   0.74887   0.00000  Uiso   1.00
C746   C     0.20515   0.53808   0.90610   0.00000  Uiso   1.00
C747   C     0.16314   0.49947   0.61596   0.00000  Uiso   1.00
C748   C     0.17019   0.50053   0.88403   0.00000  Uiso   1.00
C749   C     0.19704   0.53763   0.59289   0.00000  Uiso   1.00
C750   C     0.13636   0.46232   0.90709   0.00000  Uiso   1.00
C751   C     0.19615   0.53954   0.54680   0.00000  Uiso   1.00
C752   C     0.13724   0.46042   0.95318   0.00000  Uiso   1.00
C753   C     0.16587   0.49930   0.52338   0.00000  Uiso   1.00
C754   C     0.16744   0.50070   0.97661   0.00000  Uiso   1.00
C755   C     0.13439   0.45770   0.54679   0.00000  Uiso   1.00
C756   C     0.15142   0.40175   0.75117   0.00000  Uiso   1.00
C757   C     0.19886   0.54233   0.95320   0.00000  Uiso   1.00
C758   C     0.22396   0.58200   0.52430   0.00000  Uiso   1.00
C759   C     0.10948   0.41794   0.97567   0.00000  Uiso   1.00
C760   C     0.03355   0.45365   0.61752   0.00000  Uiso   1.00
C761   C     0.29969   0.54652   0.88246   0.00000  Uiso   1.00
C762   C     0.22314   0.58548   0.97786   0.00000  Uiso   1.00
C763   C     0.11013   0.41453   0.52211   0.00000  Uiso   1.00
C764   C     0.19000   0.65273   0.74823   0.00000  Uiso   1.00
C765   C     0.14334   0.34727   0.75188   0.00000  Uiso   1.00
C766   C     0.16794   0.50076   0.83643   0.00000  Uiso   1.00
C767   C     0.16539   0.49924   0.66357   0.00000  Uiso   1.00
C768   C     0.12810   0.46197   0.59390   0.00000  Uiso   1.00
H769   H     0.22210   0.56721   0.61124   0.00000  Uiso   1.00
H770   H     0.00056   0.42876   0.63690   0.00000  Uiso   1.00
H771   H     0.01941   0.45553   0.58260   0.00000  Uiso   1.00
H772   H     0.33264   0.57144   0.86307   0.00000  Uiso   1.00
H773   H     0.29861   0.50677   0.86677   0.00000  Uiso   1.00
H774   H     0.31387   0.54464   0.91736   0.00000  Uiso   1.00
H775   H     0.21461   0.36259   0.90298   0.00000  Uiso   1.00
H776   H     0.08475   0.60569   0.52141   0.00000  Uiso   1.00
H777   H     0.11138   0.43269   0.88873   0.00000  Uiso   1.00
H778   H     0.24429   0.61376   0.54339   0.00000  Uiso   1.00
H779   H     0.08921   0.38615   0.95659   0.00000  Uiso   1.00
H780   H     0.23408   0.33637   0.74473   0.00000  Uiso   1.00
H781   H     0.09926   0.66363   0.75538   0.00000  Uiso   1.00
H782   H     0.00440   0.45978   0.71713   0.00000  Uiso   1.00
H783   H     0.32893   0.54022   0.78287   0.00000  Uiso   1.00
H784   H     0.03467   0.49341   0.63320   0.00000  Uiso   1.00
N785   N     0.31678   0.48598   0.73783   0.00000  Uiso   1.00
N786   N     0.01656   0.51402   0.76217   0.00000  Uiso   1.00
O787   O     0.12975   0.57952   0.75299   0.00000  Uiso   1.00
O788   O     0.24579   0.56896   0.88128   0.00000  Uiso   1.00
O789   O     0.23906   0.35625   0.98978   0.00000  Uiso   1.00
O790   O     0.30629   0.64789   0.93634   0.00000  Uiso   1.00
O791   O     0.20193   0.66003   0.91255   0.00000  Uiso   1.00
O792   O     0.12649   0.34089   0.58268   0.00000  Uiso   1.00
O793   O     0.02671   0.35226   0.56349   0.00000  Uiso   1.00
O794   O     0.09412   0.63898   0.50551   0.00000  Uiso   1.00
O795   O     0.20358   0.42048   0.74702   0.00000  Uiso   1.00
O796   O     0.22613   0.57054   0.74519   0.00000  Uiso   1.00
O797   O     0.10720   0.42946   0.75482   0.00000  Uiso   1.00
O798   O     0.11847   0.50450   0.81998   0.00000  Uiso   1.00
O799   O     0.21486   0.49550   0.68003   0.00000  Uiso   1.00
O800   O     0.21485   0.49552   0.81218   0.00000  Uiso   1.00
O801   O     0.11848   0.50448   0.68783   0.00000  Uiso   1.00
O802   O     0.08742   0.43115   0.61873   0.00000  Uiso   1.00
S803   S     0.24446   0.64740   0.95425   0.00000  Uiso   1.00
S804   S     0.08851   0.35260   0.54552   0.00000  Uiso   1.00
Zn805  Zn    0.10231   0.50600   0.75521   0.00000  Uiso   1.00
Zn806  Zn    0.23102   0.49400   0.74479   0.00000  Uiso   1.00
C807   C     0.51525   0.59825   0.74887   0.00000  Uiso   1.00
C808   C     0.53848   0.53808   0.90610   0.00000  Uiso   1.00
C809   C     0.49647   0.49947   0.61596   0.00000  Uiso   1.00
C810   C     0.50352   0.50053   0.88403   0.00000  Uiso   1.00
C811   C     0.53037   0.53763   0.59289   0.00000  Uiso   1.00
C812   C     0.46969   0.46232   0.90709   0.00000  Uiso   1.00
C813   C     0.52949   0.53954   0.54680   0.00000  Uiso   1.00
C814   C     0.47057   0.46042   0.95318   0.00000  Uiso   1.00
C815   C     0.49920   0.49930   0.52338   0.00000  Uiso   1.00
C816   C     0.50077   0.50070   0.97661   0.00000  Uiso   1.00
C817   C     0.46772   0.45770   0.54679   0.00000  Uiso   1.00
C818   C     0.48475   0.40175   0.75117   0.00000  Uiso   1.00
C819   C     0.53220   0.54233   0.95320   0.00000  Uiso   1.00
C820   C     0.55729   0.58200   0.52430   0.00000  Uiso   1.00
C821   C     0.44281   0.41794   0.97567   0.00000  Uiso   1.00
C822   C     0.36689   0.45365   0.61752   0.00000  Uiso   1.00
C823   C     0.63302   0.54652   0.88246   0.00000  Uiso   1.00
C824   C     0.55647   0.58548   0.97786   0.00000  Uiso   1.00
C825   C     0.44346   0.41453   0.52211   0.00000  Uiso   1.00
C826   C     0.52333   0.65273   0.74823   0.00000  Uiso   1.00
C827   C     0.47667   0.34727   0.75188   0.00000  Uiso   1.00
C828   C     0.50128   0.50076   0.83643   0.00000  Uiso   1.00
C829   C     0.49872   0.49924   0.66357   0.00000  Uiso   1.00
C830   C     0.46144   0.46197   0.59390   0.00000  Uiso   1.00
H831   H     0.55543   0.56721   0.61124   0.00000  Uiso   1.00
H832   H     0.33389   0.42876   0.63690   0.00000  Uiso   1.00
H833   H     0.35274   0.45553   0.58260   0.00000  Uiso   1.00
H834   H     0.66598   0.57144   0.86307   0.00000  Uiso   1.00
H835   H     0.63195   0.50677   0.86677   0.00000  Uiso   1.00
H836   H     0.64720   0.54464   0.91736   0.00000  Uiso   1.00
H837   H     0.54794   0.36259   0.90298   0.00000  Uiso   1.00
H838   H     0.41808   0.60569   0.52141   0.00000  Uiso   1.00
H839   H     0.44471   0.43269   0.88873   0.00000  Uiso   1.00
H840   H     0.57762   0.61376   0.54339   0.00000  Uiso   1.00
H841   H     0.42254   0.38615   0.95659   0.00000  Uiso   1.00
H842   H     0.56742   0.33637   0.74473   0.00000  Uiso   1.00
H843   H     0.43259   0.66363   0.75538   0.00000  Uiso   1.00
H844   H     0.33774   0.45978   0.71713   0.00000  Uiso   1.00
H845   H     0.66226   0.54022   0.78287   0.00000  Uiso   1.00
H846   H     0.36800   0.49341   0.63320   0.00000  Uiso   1.00
N847   N     0.65011   0.48598   0.73783   0.00000  Uiso   1.00
N848   N     0.34989   0.51402   0.76217   0.00000  Uiso   1.00
O849   O     0.46308   0.57952   0.75299   0.00000  Uiso   1.00
O850   O     0.57912   0.56896   0.88128   0.00000  Uiso   1.00
O851   O     0.57240   0.35625   0.98978   0.00000  Uiso   1.00
O852   O     0.63963   0.64789   0.93634   0.00000  Uiso   1.00
O853   O     0.53526   0.66003   0.91255   0.00000  Uiso   1.00
O854   O     0.45983   0.34089   0.58268   0.00000  Uiso   1.00
O855   O     0.36004   0.35226   0.56349   0.00000  Uiso   1.00
O856   O     0.42745   0.63898   0.50551   0.00000  Uiso   1.00
O857   O     0.53692   0.42048   0.74702   0.00000  Uiso   1.00
O858   O     0.55946   0.57054   0.74519   0.00000  Uiso   1.00
O859   O     0.44054   0.42946   0.75482   0.00000  Uiso   1.00
O860   O     0.45181   0.50450   0.81998   0.00000  Uiso   1.00
O861   O     0.54819   0.49550   0.68003   0.00000  Uiso   1.00
O862   O     0.54819   0.49552   0.81218   0.00000  Uiso   1.00
O863   O     0.45181   0.50448   0.68783   0.00000  Uiso   1.00
O864   O     0.42075   0.43115   0.61873   0.00000  Uiso   1.00
S865   S     0.57779   0.64740   0.95425   0.00000  Uiso   1.00
S866   S     0.42184   0.35260   0.54552   0.00000  Uiso   1.00
Zn867  Zn    0.43565   0.50600   0.75521   0.00000  Uiso   1.00
Zn868  Zn    0.56435   0.49400   0.74479   0.00000  Uiso   1.00
C869   C     0.84859   0.59825   0.74887   0.00000  Uiso   1.00
C870   C     0.87181   0.53808   0.90610   0.00000  Uiso   1.00
C871   C     0.82981   0.49947   0.61596   0.00000  Uiso   1.00
C872   C     0.83686   0.50053   0.88403   0.00000  Uiso   1.00
C873   C     0.86371   0.53763   0.59289   0.00000  Uiso   1.00
C874   C     0.80302   0.46232   0.90709   0.00000  Uiso   1.00
C875   C     0.86282   0.53954   0.54680   0.00000  Uiso   1.00
C876   C     0.80390   0.46042   0.95318   0.00000  Uiso   1.00
C877   C     0.83253   0.49930   0.52338   0.00000  Uiso   1.00
C878   C     0.83411   0.50070   0.97661   0.00000  Uiso   1.00
C879   C     0.80106   0.45770   0.54679   0.00000  Uiso   1.00
C880   C     0.81808   0.40175   0.75117   0.00000  Uiso   1.00
C881   C     0.86553   0.54233   0.95320   0.00000  Uiso   1.00
C882   C     0.89063   0.58200   0.52430   0.00000  Uiso   1.00
C883   C     0.77614   0.41794   0.97567   0.00000  Uiso   1.00
C884   C     0.70022   0.45365   0.61752   0.00000  Uiso   1.00
C885   C     0.96636   0.54652   0.88246   0.00000  Uiso   1.00
C886   C     0.88981   0.58548   0.97786   0.00000  Uiso   1.00
C887   C     0.77679   0.41453   0.52211   0.00000  Uiso   1.00
C888   C     0.85667   0.65273   0.74823   0.00000  Uiso   1.00
C889   C     0.81001   0.34727   0.75188   0.00000  Uiso   1.00
C890   C     0.83461   0.50076   0.83643   0.00000  Uiso   1.00
C891   C     0.83206   0.49924   0.66357   0.00000  Uiso   1.00
C892   C     0.79477   0.46197   0.59390   0.00000  Uiso   1.00
H893   H     0.88876   0.56721   0.61124   0.00000  Uiso   1.00
H894   H     0.66722   0.42876   0.63690   0.00000  Uiso   1.00
H895   H     0.68608   0.45553   0.58260   0.00000  Uiso   1.00
H896   H     0.99931   0.57144   0.86307   0.00000  Uiso   1.00
H897   H     0.96528   0.50677   0.86677   0.00000  Uiso   1.00
H898   H     0.98053   0.54464   0.91736   0.00000  Uiso   1.00
H899   H     0.88127   0.36259   0.90298   0.00000  Uiso   1.00
H900   H     0.75142   0.60569   0.52141   0.00000  Uiso   1.00
H901   H     0.77804   0.43269   0.88873   0.00000  Uiso   1.00
H902   H     0.91095   0.61376   0.54339   0.00000  Uiso   1.00
H903   H     0.75587   0.38615   0.95659   0.00000  Uiso   1.00
H904   H     0.90075   0.33637   0.74473   0.00000  Uiso   1.00
H905   H     0.76592   0.66363   0.75538   0.00000  Uiso   1.00
H906   H     0.67107   0.45978   0.71713   0.00000  Uiso   1.00
H907   H     0.99560   0.54022   0.78287   0.00000  Uiso   1.00
H908   H     0.70133   0.49341   0.63320   0.00000  Uiso   1.00
N909   N     0.98344   0.48598   0.73783   0.00000  Uiso   1.00
N910   N     0.68322   0.51402   0.76217   0.00000  Uiso   1.00
O911   O     0.79642   0.57952   0.75299   0.00000  Uiso   1.00
O912   O     0.91246   0.56896   0.88128   0.00000  Uiso   1.00
O913   O     0.90573   0.35625   0.98978   0.00000  Uiso   1.00
O914   O     0.97296   0.64789   0.93634   0.00000  Uiso   1.00
O915   O     0.86860   0.66003   0.91255   0.00000  Uiso   1.00
O916   O     0.79316   0.34089   0.58268   0.00000  Uiso   1.00
O917   O     0.69337   0.35226   0.56349   0.00000  Uiso   1.00
O918   O     0.76078   0.63898   0.50551   0.00000  Uiso   1.00
O919   O     0.87025   0.42048   0.74702   0.00000  Uiso   1.00
O920   O     0.89280   0.57054   0.74519   0.00000  Uiso   1.00
O921   O     0.77387   0.42946   0.75482   0.00000  Uiso   1.00
O922   O     0.78514   0.50450   0.81998   0.00000  Uiso   1.00
O923   O     0.88153   0.49550   0.68003   0.00000  Uiso   1.00
O924   O     0.88152   0.49552   0.81218   0.00000  Uiso   1.00
O925   O     0.78515   0.50448   0.68783   0.00000  Uiso   1.00
O926   O     0.75409   0.43115   0.61873   0.00000  Uiso   1.00
S927   S     0.91113   0.64740   0.95425   0.00000  Uiso   1.00
S928   S     0.75517   0.35260   0.54552   0.00000  Uiso   1.00
Zn929  Zn    0.76898   0.50600   0.75521   0.00000  Uiso   1.00
Zn930  Zn    0.89769   0.49400   0.74479   0.00000  Uiso   1.00
C931   C     0.18192   0.93158   0.74887   0.00000  Uiso   1.00
C932   C     0.20515   0.87142   0.90610   0.00000  Uiso   1.00
C933   C     0.16314   0.83281   0.61596   0.00000  Uiso   1.00
C934   C     0.17019   0.83386   0.88403   0.00000  Uiso   1.00
C935   C     0.19704   0.87097   0.59289   0.00000  Uiso   1.00
C936   C     0.13636   0.79565   0.90709   0.00000  Uiso   1.00
C937   C     0.19615   0.87287   0.54680   0.00000  Uiso   1.00
C938   C     0.13724   0.79375   0.95318   0.00000  Uiso   1.00
C939   C     0.16587   0.83263   0.52338   0.00000  Uiso   1.00
C940   C     0.16744   0.83403   0.97661   0.00000  Uiso   1.00
C941   C     0.13439   0.79104   0.54679   0.00000  Uiso   1.00
C942   C     0.15142   0.73509   0.75117   0.00000  Uiso   1.00
C943   C     0.19886   0.87566   0.95320   0.00000  Uiso   1.00
C944   C     0.22396   0.91533   0.52430   0.00000  Uiso   1.00
C945   C     0.10948   0.75127   0.97567   0.00000  Uiso   1.00
C946   C     0.03355   0.78698   0.61752   0.00000  Uiso   1.00
C947   C     0.29969   0.87985   0.88246   0.00000  Uiso   1.00
C948   C     0.22314   0.91881   0.97786   0.00000  Uiso   1.00
C949   C     0.11013   0.74787   0.52211   0.00000  Uiso   1.00
C950   C     0.19000   0.98606   0.74823   0.00000  Uiso   1.00
C951   C     0.14334   0.68061   0.75188   0.00000  Uiso   1.00
C952   C     0.16794   0.83410   0.83643   0.00000  Uiso   1.00
C953   C     0.16539   0.83257   0.66357   0.00000  Uiso   1.00
C954   C     0.12810   0.79531   0.59390   0.00000  Uiso   1.00
H955   H     0.22210   0.90055   0.61124   0.00000  Uiso   1.00
H956   H     0.00056   0.76209   0.63690   0.00000  Uiso   1.00
H957   H     0.01941   0.78886   0.58260   0.00000  Uiso   1.00
H958   H     0.33264   0.90477   0.86307   0.00000  Uiso   1.00
H959   H     0.29861   0.84010   0.86677   0.00000  Uiso   1.00
H960   H     0.31387   0.87798   0.91736   0.00000  Uiso   1.00
H961   H     0.21461   0.69592   0.90298   0.00000  Uiso   1.00
H962   H     0.08475   0.93902   0.52141   0.00000  Uiso   1.00
H963   H     0.11138   0.76603   0.88873   0.00000  Uiso   1.00
H964   H     0.24429   0.94709   0.54339   0.00000  Uiso   1.00
H965   H     0.08921   0.71948   0.95659   0.00000  Uiso   1.00
H966   H     0.23408   0.66970   0.74473   0.00000  Uiso   1.00
H967   H     0.09926   0.99697   0.75538   0.00000  Uiso   1.00
H968   H     0.00440   0.79312   0.71713   0.00000  Uiso   1.00
H969   H     0.32893   0.87355   0.78287   0.00000  Uiso   1.00
H970   H     0.03467   0.82674   0.63320   0.00000  Uiso   1.00
N971   N     0.31678   0.81932   0.73783   0.00000  Uiso   1.00
N972   N     0.01656   0.84735   0.76217   0.00000  Uiso   1.00
O973   O     0.12975   0.91286   0.75299   0.00000  Uiso   1.00
O974   O     0.24579   0.90230   0.88128   0.00000  Uiso   1.00
O975   O     0.23906   0.68958   0.98978   0.00000  Uiso   1.00
O976   O     0.30629   0.98123   0.93634   0.00000  Uiso   1.00
O977   O     0.20193   0.99337   0.91255   0.00000  Uiso   1.00
O978   O     0.12649   0.67422   0.58268   0.00000  Uiso   1.00
O979   O     0.02671   0.68559   0.56349   0.00000  Uiso   1.00
O980   O     0.09412   0.97231   0.50551   0.00000  Uiso   1.00
O981   O     0.20358   0.75381   0.74702   0.00000  Uiso   1.00
O982   O     0.22613   0.90387   0.74519   0.00000  Uiso   1.00
O983   O     0.10720   0.76279   0.75482   0.00000  Uiso   1.00
O984   O     0.11847   0.83784   0.81998   0.00000  Uiso   1.00
O985   O     0.21486   0.82883   0.68003   0.00000  Uiso   1.00
O986   O     0.21485   0.82885   0.81218   0.00000  Uiso   1.00
O987   O     0.11848   0.83781   0.68783   0.00000  Uiso   1.00
O988   O     0.08742   0.76449   0.61873   0.00000  Uiso   1.00
S989   S     0.24446   0.98074   0.95425   0.00000  Uiso   1.00
S990   S     0.08851   0.68594   0.54552   0.00000  Uiso   1.00
Zn991  Zn    0.10231   0.83933   0.75521   0.00000  Uiso   1.00
Zn992  Zn    0.23102   0.82734   0.74479   0.00000  Uiso   1.00
C993   C     0.51525   0.93158   0.74887   0.00000  Uiso   1.00
C994   C     0.53848   0.87142   0.90610   0.00000  Uiso   1.00
C995   C     0.49647   0.83281   0.61596   0.00000  Uiso   1.00
C996   C     0.50352   0.83386   0.88403   0.00000  Uiso   1.00
C997   C     0.53037   0.87097   0.59289   0.00000  Uiso   1.00
C998   C     0.46969   0.79565   0.90709   0.00000  Uiso   1.00
C999   C     0.52949   0.87287   0.54680   0.00000  Uiso   1.00
C1000  C     0.47057   0.79375   0.95318   0.00000  Uiso   1.00
C1001  C     0.49920   0.83263   0.52338   0.00000  Uiso   1.00
C1002  C     0.50077   0.83403   0.97661   0.00000  Uiso   1.00
C1003  C     0.46772   0.79104   0.54679   0.00000  Uiso   1.00
C1004  C     0.48475   0.73509   0.75117   0.00000  Uiso   1.00
C1005  C     0.53220   0.87566   0.95320   0.00000  Uiso   1.00
C1006  C     0.55729   0.91533   0.52430   0.00000  Uiso   1.00
C1007  C     0.44281   0.75127   0.97567   0.00000  Uiso   1.00
C1008  C     0.36689   0.78698   0.61752   0.00000  Uiso   1.00
C1009  C     0.63302   0.87985   0.88246   0.00000  Uiso   1.00
C1010  C     0.55647   0.91881   0.97786   0.00000  Uiso   1.00
C1011  C     0.44346   0.74787   0.52211   0.00000  Uiso   1.00
C1012  C     0.52333   0.98606   0.74823   0.00000  Uiso   1.00
C1013  C     0.47667   0.68061   0.75188   0.00000  Uiso   1.00
C1014  C     0.50128   0.83410   0.83643   0.00000  Uiso   1.00
C1015  C     0.49872   0.83257   0.66357   0.00000  Uiso   1.00
C1016  C     0.46144   0.79531   0.59390   0.00000  Uiso   1.00
H1017  H     0.55543   0.90055   0.61124   0.00000  Uiso   1.00
H1018  H     0.33389   0.76209   0.63690   0.00000  Uiso   1.00
H1019  H     0.35274   0.78886   0.58260   0.00000  Uiso   1.00
H1020  H     0.66598   0.90477   0.86307   0.00000  Uiso   1.00
H1021  H     0.63195   0.84010   0.86677   0.00000  Uiso   1.00
H1022  H     0.64720   0.87798   0.91736   0.00000  Uiso   1.00
H1023  H     0.54794   0.69592   0.90298   0.00000  Uiso   1.00
H1024  H     0.41808   0.93902   0.52141   0.00000  Uiso   1.00
H1025  H     0.44471   0.76603   0.88873   0.00000  Uiso   1.00
H1026  H     0.57762   0.94709   0.54339   0.00000  Uiso   1.00
H1027  H     0.42254   0.71948   0.95659   0.00000  Uiso   1.00
H1028  H     0.56742   0.66970   0.74473   0.00000  Uiso   1.00
H1029  H     0.43259   0.99697   0.75538   0.00000  Uiso   1.00
H1030  H     0.33774   0.79312   0.71713   0.00000  Uiso   1.00
H1031  H     0.66226   0.87355   0.78287   0.00000  Uiso   1.00
H1032  H     0.36800   0.82674   0.63320   0.00000  Uiso   1.00
N1033  N     0.65011   0.81932   0.73783   0.00000  Uiso   1.00
N1034  N     0.34989   0.84735   0.76217   0.00000  Uiso   1.00
O1035  O     0.46308   0.91286   0.75299   0.00000  Uiso   1.00
O1036  O     0.57912   0.90230   0.88128   0.00000  Uiso   1.00
O1037  O     0.57240   0.68958   0.98978   0.00000  Uiso   1.00
O1038  O     0.63963   0.98123   0.93634   0.00000  Uiso   1.00
O1039  O     0.53526   0.99337   0.91255   0.00000  Uiso   1.00
O1040  O     0.45983   0.67422   0.58268   0.00000  Uiso   1.00
O1041  O     0.36004   0.68559   0.56349   0.00000  Uiso   1.00
O1042  O     0.42745   0.97231   0.50551   0.00000  Uiso   1.00
O1043  O     0.53692   0.75381   0.74702   0.00000  Uiso   1.00
O1044  O     0.55946   0.90387   0.74519   0.00000  Uiso   1.00
O1045  O     0.44054   0.76279   0.75482   0.00000  Uiso   1.00
O1046  O     0.45181   0.83784   0.81998   0.00000  Uiso   1.00
O1047  O     0.54819   0.82883   0.68003   0.00000  Uiso   1.00
O1048  O     0.54819   0.82885   0.81218   0.00000  Uiso   1.00
O1049  O     0.45181   0.83781   0.68783   0.00000  Uiso   1.00
O1050  O     0.42075   0.76449   0.61873   0.00000  Uiso   1.00
S1051  S     0.57779   0.98074   0.95425   0.00000  Uiso   1.00
S1052  S     0.42184   0.68594   0.54552   0.00000  Uiso   1.00
Zn1053 Zn    0.43565   0.83933   0.75521   0.00000  Uiso   1.00
Zn1054 Zn    0.56435   0.82734   0.74479   0.00000  Uiso   1.00
C1055  C     0.84859   0.93158   0.74887   0.00000  Uiso   1.00
C1056  C     0.87181   0.87142   0.90610   0.00000  Uiso   1.00
C1057  C     0.82981   0.83281   0.61596   0.00000  Uiso   1.00
C1058  C     0.83686   0.83386   0.88403   0.00000  Uiso   1.00
C1059  C     0.86371   0.87097   0.59289   0.00000  Uiso   1.00
C1060  C     0.80302   0.79565   0.90709   0.00000  Uiso   1.00
C1061  C     0.86282   0.87287   0.54680   0.00000  Uiso   1.00
C1062  C     0.80390   0.79375   0.95318   0.00000  Uiso   1.00
C1063  C     0.83253   0.83263   0.52338   0.00000  Uiso   1.00
C1064  C     0.83411   0.83403   0.97661   0.00000  Uiso   1.00
C1065  C     0.80106   0.79104   0.54679   0.00000  Uiso   1.00
C1066  C     0.81808   0.73509   0.75117   0.00000  Uiso   1.00
C1067  C     0.86553   0.87566   0.95320   0.00000  Uiso   1.00
C1068  C     0.89063   0.91533   0.52430   0.00000  Uiso   1.00
C1069  C     0.77614   0.75127   0.97567   0.00000  Uiso   1.00
C1070  C     0.70022   0.78698   0.61752   0.00000  Uiso   1.00
C1071  C     0.96636   0.87985   0.88246   0.00000  Uiso   1.00
C1072  C     0.88981   0.91881   0.97786   0.00000  Uiso   1.00
C1073  C     0.77679   0.74787   0.52211   0.00000  Uiso   1.00
C1074  C     0.85667   0.98606   0.74823   0.00000  Uiso   1.00
C1075  C     0.81001   0.68061   0.75188   0.00000  Uiso   1.00
C1076  C     0.83461   0.83410   0.83643   0.00000  Uiso   1.00
C1077  C     0.83206   0.83257   0.66357   0.00000  Uiso   1.00
C1078  C     0.79477   0.79531   0.59390   0.00000  Uiso   1.00
H1079  H     0.88876   0.90055   0.61124   0.00000  Uiso   1.00
H1080  H     0.66722   0.76209   0.63690   0.00000  Uiso   1.00
H1081  H     0.68608   0.78886   0.58260   0.00000  Uiso   1.00
H1082  H     0.99931   0.90477   0.86307   0.00000  Uiso   1.00
H1083  H     0.96528   0.84010   0.86677   0.00000  Uiso   1.00
H1084  H     0.98053   0.87798   0.91736   0.00000  Uiso   1.00
H1085  H     0.88127   0.69592   0.90298   0.00000  Uiso   1.00
H1086  H     0.75142   0.93902   0.52141   0.00000  Uiso   1.00
H1087  H     0.77804   0.76603   0.88873   0.00000  Uiso   1.00
H1088  H     0.91095   0.94709   0.54339   0.00000  Uiso   1.00
H1089  H     0.75587   0.71948   0.95659   0.00000  Uiso   1.00
H1090  H     0.90075   0.66970   0.74473   0.00000  Uiso   1.00
H1091  H     0.76592   0.99697   0.75538   0.00000  Uiso   1.00
H1092  H     0.67107   0.79312   0.71713   0.00000  Uiso   1.00
H1093  H     0.99560   0.87355   0.78287   0.00000  Uiso   1.00
H1094  H     0.70133   0.82674   0.63320   0.00000  Uiso   1.00
N1095  N     0.98344   0.81932   0.73783   0.00000  Uiso   1.00
N1096  N     0.68322   0.84735   0.76217   0.00000  Uiso   1.00
O1097  O     0.79642   0.91286   0.75299   0.00000  Uiso   1.00
O1098  O     0.91246   0.90230   0.88128   0.00000  Uiso   1.00
O1099  O     0.90573   0.68958   0.98978   0.00000  Uiso   1.00
O1100  O     0.97296   0.98123   0.93634   0.00000  Uiso   1.00
O1101  O     0.86860   0.99337   0.91255   0.00000  Uiso   1.00
O1102  O     0.79316   0.67422   0.58268   0.00000  Uiso   1.00
O1103  O     0.69337   0.68559   0.56349   0.00000  Uiso   1.00
O1104  O     0.76078   0.97231   0.50551   0.00000  Uiso   1.00
O1105  O     0.87025   0.75381   0.74702   0.00000  Uiso   1.00
O1106  O     0.89280   0.90387   0.74519   0.00000  Uiso   1.00
O1107  O     0.77387   0.76279   0.75482   0.00000  Uiso   1.00
O1108  O     0.78514   0.83784   0.81998   0.00000  Uiso   1.00
O1109  O     0.88153   0.82883   0.68003   0.00000  Uiso   1.00
O1110  O     0.88152   0.82885   0.81218   0.00000  Uiso   1.00
O1111  O     0.78515   0.83781   0.68783   0.00000  Uiso   1.00
O1112  O     0.75409   0.76449   0.61873   0.00000  Uiso   1.00
S1113  S     0.91113   0.98074   0.95425   0.00000  Uiso   1.00
S1114  S     0.75517   0.68594   0.54552   0.00000  Uiso   1.00
Zn1115 Zn    0.76898   0.83933   0.75521   0.00000  Uiso   1.00
Zn1116 Zn    0.89769   0.82734   0.74479   0.00000  Uiso   1.00
loop_
_geom_bond_atom_site_label_1
_geom_bond_atom_site_label_2
_geom_bond_distance
_geom_bond_site_symmetry_2
_ccdc_geom_bond_type
C1     O52     1.284   .     A
C1     C20     1.398   .     S
C1     O43     1.276   .     A
C2     C4      1.400   .     A
C2     C13     1.406   .     A
C2     O44     1.383   .     S
C3     C23     1.424   .     S
C3     C24     1.400   .     A
C3     C5      1.385   .     A
C4     C22     1.423   .     S
C4     C6      1.385   .     A
C5     H25     1.086   .     S
C5     C7      1.378   .     A
C6     H33     1.086   .     S
C6     C8      1.378   .     A
C7     C9      1.409   .     A
C7     C14     1.394   .     A
C8     C10     1.409   .     A
C8     C15     1.394   .     A
C9     C11     1.425   .     A
C9     C568    1.394   1_554 S
C10    C13     1.425   .     A
C10    C567    1.394   .     S
C11    C24     1.406   .     A
C11    C19     1.423   .     A
C12    O53     1.284   .     A
C12    O51     1.276   .     A
C12    C21     1.398   .     S
C13    C18     1.422   .     A
C14    H34     1.084   .     S
C14    C576    1.391   1_554 S
C15    H35     1.084   .     S
C15    C577    1.390   .     S
C16    H27     1.113   .     S
C16    O58     1.414   .     S
C16    H40     1.112   .     S
C16    H26     1.109   .     S
C17    O44     1.414   .     S
C17    H30     1.113   .     S
C17    H29     1.112   .     S
C17    H28     1.109   .     S
C18    S59     1.780   .     S
C18    C572    1.391   .     S
C19    S60     1.779   .     S
C19    C573    1.390   1_554 S
C20    C207    1.334   .     S
C20    H222    1.088   .     S
C21    C392    1.334   1_545 S
C21    H409    1.088   1_545 S
C22    O54     1.287   .     A
C22    O56     1.285   .     A
C23    O55     1.287   .     A
C23    O57     1.285   .     A
C24    O58     1.383   .     S
H31    O419    0.991   1_545 S
H32    O50     0.991   .     S
H36    C392    1.088   1_545 S
H37    C207    1.088   .     S
H38    N165    1.029   1_455 S
H39    N104    1.029   .     S
N41    Zn62    2.015   .     S
N41    H100    1.029   .     S
N41    N104    1.270   .     S
N42    Zn61    2.015   .     S
N42    H163    1.029   1_455 S
N42    N165    1.270   1_455 S
O43    Zn61    1.953   .     S
O45    S431    1.504   1_545 S
O46    S59     1.503   .     D
O47    S59     1.683   .     S
O47    H217    0.991   .     S
O48    S60     1.504   .     D
O49    S60     1.502   .     D
O50    S246    1.683   .     S
O51    Zn62    1.953   .     S
O52    Zn62    1.973   .     S
O53    Zn61    1.973   .     S
O54    Zn61    1.991   .     S
O55    Zn62    1.991   .     S
O56    Zn62    2.022   .     S
O57    Zn61    2.022   .     S
S59    O231    1.504   .     S
S60    O422    1.683   1_545 S
C63    O114    1.284   .     A
C63    C82     1.398   .     S
C63    O105    1.276   .     A
C64    C66     1.400   .     A
C64    C75     1.406   .     A
C64    O106    1.383   .     S
C65    C85     1.424   .     S
C65    C86     1.400   .     A
C65    C67     1.385   .     A
C66    C84     1.423   .     S
C66    C68     1.385   .     A
C67    H87     1.086   .     S
C67    C69     1.378   .     A
C68    H95     1.086   .     S
C68    C70     1.378   .     A
C69    C71     1.409   .     A
C69    C76     1.394   .     A
C70    C72     1.409   .     A
C70    C77     1.394   .     A
C71    C73     1.425   .     A
C71    C630    1.394   1_554 S
C72    C75     1.425   .     A
C72    C629    1.394   .     S
C73    C86     1.406   .     A
C73    C81     1.423   .     A
C74    O115    1.284   .     A
C74    O113    1.276   .     A
C74    C83     1.398   .     S
C75    C80     1.422   .     A
C76    H96     1.084   .     S
C76    C638    1.391   1_554 S
C77    H97     1.084   .     S
C77    C639    1.390   .     S
C78    H89     1.113   .     S
C78    O120    1.414   .     S
C78    H102    1.112   .     S
C78    H88     1.109   .     S
C79    O106    1.414   .     S
C79    H92     1.113   .     S
C79    H91     1.112   .     S
C79    H90     1.109   .     S
C80    S121    1.780   .     S
C80    C634    1.391   .     S
C81    S122    1.779   .     S
C81    C635    1.390   1_554 S
C82    C269    1.334   .     S
C82    H284    1.088   .     S
C83    C454    1.334   1_545 S
C83    H471    1.088   1_545 S
C84    O116    1.287   .     A
C84    O118    1.285   .     A
C85    O117    1.287   .     A
C85    O119    1.285   .     A
C86    O120    1.383   .     S
H93    O481    0.991   1_545 S
H94    O112    0.991   .     S
H98    C454    1.088   1_545 S
H99    C269    1.088   .     S
H101   N166    1.029   .     S
N103   Zn124   2.015   .     S
N103   H162    1.029   .     S
N103   N166    1.270   .     S
N104   Zn123   2.015   .     S
O105   Zn123   1.953   .     S
O107   S493    1.504   1_545 S
O108   S121    1.503   .     D
O109   S121    1.683   .     S
O109   H279    0.991   .     S
O110   S122    1.504   .     D
O111   S122    1.502   .     D
O112   S308    1.683   .     S
O113   Zn124   1.953   .     S
O114   Zn124   1.973   .     S
O115   Zn123   1.973   .     S
O116   Zn123   1.991   .     S
O117   Zn124   1.991   .     S
O118   Zn124   2.022   .     S
O119   Zn123   2.022   .     S
S121   O293    1.504   .     S
S122   O484    1.683   1_545 S
C125   O176    1.284   .     A
C125   C144    1.398   .     S
C125   O167    1.276   .     A
C126   C128    1.400   .     A
C126   C137    1.406   .     A
C126   O168    1.383   .     S
C127   C147    1.424   .     S
C127   C148    1.400   .     A
C127   C129    1.385   .     A
C128   C146    1.423   .     S
C128   C130    1.385   .     A
C129   H149    1.086   .     S
C129   C131    1.378   .     A
C130   H157    1.086   .     S
C130   C132    1.378   .     A
C131   C133    1.409   .     A
C131   C138    1.394   .     A
C132   C134    1.409   .     A
C132   C139    1.394   .     A
C133   C135    1.425   .     A
C133   C692    1.394   1_554 S
C134   C137    1.425   .     A
C134   C691    1.394   .     S
C135   C148    1.406   .     A
C135   C143    1.423   .     A
C136   O177    1.284   .     A
C136   O175    1.276   .     A
C136   C145    1.398   .     S
C137   C142    1.422   .     A
C138   H158    1.084   .     S
C138   C700    1.391   1_554 S
C139   H159    1.084   .     S
C139   C701    1.390   .     S
C140   H151    1.113   .     S
C140   O182    1.414   .     S
C140   H164    1.112   .     S
C140   H150    1.109   .     S
C141   O168    1.414   .     S
C141   H154    1.113   .     S
C141   H153    1.112   .     S
C141   H152    1.109   .     S
C142   S183    1.780   .     S
C142   C696    1.391   .     S
C143   S184    1.779   .     S
C143   C697    1.390   1_554 S
C144   C331    1.334   .     S
C144   H346    1.088   .     S
C145   C516    1.334   1_545 S
C145   H533    1.088   1_545 S
C146   O178    1.287   .     A
C146   O180    1.285   .     A
C147   O179    1.287   .     A
C147   O181    1.285   .     A
C148   O182    1.383   .     S
H155   O543    0.991   1_545 S
H156   O174    0.991   .     S
H160   C516    1.088   1_545 S
H161   C331    1.088   .     S
H163   N42     1.029   1_655 S
N165   Zn186   2.015   .     S
N165   H38     1.029   1_655 S
N165   N42     1.270   1_655 S
N166   Zn185   2.015   .     S
O167   Zn185   1.953   .     S
O169   S555    1.504   1_545 S
O170   S183    1.503   .     D
O171   S183    1.683   .     S
O171   H341    0.991   .     S
O172   S184    1.504   .     D
O173   S184    1.502   .     D
O174   S370    1.683   .     S
O175   Zn186   1.953   .     S
O176   Zn186   1.973   .     S
O177   Zn185   1.973   .     S
O178   Zn185   1.991   .     S
O179   Zn186   1.991   .     S
O180   Zn186   2.022   .     S
O181   Zn185   2.022   .     S
S183   O355    1.504   .     S
S184   O546    1.683   1_545 S
C187   O238    1.284   .     A
C187   C206    1.398   .     S
C187   O229    1.276   .     A
C188   C190    1.400   .     A
C188   C199    1.406   .     A
C188   O230    1.383   .     S
C189   C209    1.424   .     S
C189   C210    1.400   .     A
C189   C191    1.385   .     A
C190   C208    1.423   .     S
C190   C192    1.385   .     A
C191   H211    1.086   .     S
C191   C193    1.378   .     A
C192   H219    1.086   .     S
C192   C194    1.378   .     A
C193   C195    1.409   .     A
C193   C200    1.394   .     A
C194   C196    1.409   .     A
C194   C201    1.394   .     A
C195   C197    1.425   .     A
C195   C754    1.394   1_554 S
C196   C199    1.425   .     A
C196   C753    1.394   .     S
C197   C210    1.406   .     A
C197   C205    1.423   .     A
C198   O239    1.284   .     A
C198   O237    1.276   .     A
C198   C207    1.398   .     S
C199   C204    1.422   .     A
C200   H220    1.084   .     S
C200   C762    1.391   1_554 S
C201   H221    1.084   .     S
C201   C763    1.390   .     S
C202   H213    1.113   .     S
C202   O244    1.414   .     S
C202   H226    1.112   .     S
C202   H212    1.109   .     S
C203   O230    1.414   .     S
C203   H216    1.113   .     S
C203   H215    1.112   .     S
C203   H214    1.109   .     S
C204   S245    1.780   .     S
C204   C758    1.391   .     S
C205   S246    1.779   .     S
C205   C759    1.390   1_554 S
C206   C393    1.334   .     S
C206   H408    1.088   .     S
C208   O240    1.287   .     A
C208   O242    1.285   .     A
C209   O241    1.287   .     A
C209   O243    1.285   .     A
C210   O244    1.383   .     S
H218   O236    0.991   .     S
H223   C393    1.088   .     S
H224   N351    1.029   1_455 S
H225   N290    1.029   .     S
N227   Zn248   2.015   .     S
N227   H286    1.029   .     S
N227   N290    1.270   .     S
N228   Zn247   2.015   .     S
N228   H349    1.029   1_455 S
N228   N351    1.270   1_455 S
O229   Zn247   1.953   .     S
O232   S245    1.503   .     D
O233   S245    1.683   .     S
O233   H403    0.991   .     S
O234   S246    1.504   .     D
O235   S246    1.502   .     D
O236   S432    1.683   .     S
O237   Zn248   1.953   .     S
O238   Zn248   1.973   .     S
O239   Zn247   1.973   .     S
O240   Zn247   1.991   .     S
O241   Zn248   1.991   .     S
O242   Zn248   2.022   .     S
O243   Zn247   2.022   .     S
S245   O417    1.504   .     S
C249   O300    1.284   .     A
C249   C268    1.398   .     S
C249   O291    1.276   .     A
C250   C252    1.400   .     A
C250   C261    1.406   .     A
C250   O292    1.383   .     S
C251   C271    1.424   .     S
C251   C272    1.400   .     A
C251   C253    1.385   .     A
C252   C270    1.423   .     S
C252   C254    1.385   .     A
C253   H273    1.086   .     S
C253   C255    1.378   .     A
C254   H281    1.086   .     S
C254   C256    1.378   .     A
C255   C257    1.409   .     A
C255   C262    1.394   .     A
C256   C258    1.409   .     A
C256   C263    1.394   .     A
C257   C259    1.425   .     A
C257   C816    1.394   1_554 S
C258   C261    1.425   .     A
C258   C815    1.394   .     S
C259   C272    1.406   .     A
C259   C267    1.423   .     A
C260   O301    1.284   .     A
C260   O299    1.276   .     A
C260   C269    1.398   .     S
C261   C266    1.422   .     A
C262   H282    1.084   .     S
C262   C824    1.391   1_554 S
C263   H283    1.084   .     S
C263   C825    1.390   .     S
C264   H275    1.113   .     S
C264   O306    1.414   .     S
C264   H288    1.112   .     S
C264   H274    1.109   .     S
C265   O292    1.414   .     S
C265   H278    1.113   .     S
C265   H277    1.112   .     S
C265   H276    1.109   .     S
C266   S307    1.780   .     S
C266   C820    1.391   .     S
C267   S308    1.779   .     S
C267   C821    1.390   1_554 S
C268   C455    1.334   .     S
C268   H470    1.088   .     S
C270   O302    1.287   .     A
C270   O304    1.285   .     A
C271   O303    1.287   .     A
C271   O305    1.285   .     A
C272   O306    1.383   .     S
H280   O298    0.991   .     S
H285   C455    1.088   .     S
H287   N352    1.029   .     S
N289   Zn310   2.015   .     S
N289   H348    1.029   .     S
N289   N352    1.270   .     S
N290   Zn309   2.015   .     S
O291   Zn309   1.953   .     S
O294   S307    1.503   .     D
O295   S307    1.683   .     S
O295   H465    0.991   .     S
O296   S308    1.504   .     D
O297   S308    1.502   .     D
O298   S494    1.683   .     S
O299   Zn310   1.953   .     S
O300   Zn310   1.973   .     S
O301   Zn309   1.973   .     S
O302   Zn309   1.991   .     S
O303   Zn310   1.991   .     S
O304   Zn310   2.022   .     S
O305   Zn309   2.022   .     S
S307   O479    1.504   .     S
C311   O362    1.284   .     A
C311   C330    1.398   .     S
C311   O353    1.276   .     A
C312   C314    1.400   .     A
C312   C323    1.406   .     A
C312   O354    1.383   .     S
C313   C333    1.424   .     S
C313   C334    1.400   .     A
C313   C315    1.385   .     A
C314   C332    1.423   .     S
C314   C316    1.385   .     A
C315   H335    1.086   .     S
C315   C317    1.378   .     A
C316   H343    1.086   .     S
C316   C318    1.378   .     A
C317   C319    1.409   .     A
C317   C324    1.394   .     A
C318   C320    1.409   .     A
C318   C325    1.394   .     A
C319   C321    1.425   .     A
C319   C878    1.394   1_554 S
C320   C323    1.425   .     A
C320   C877    1.394   .     S
C321   C334    1.406   .     A
C321   C329    1.423   .     A
C322   O363    1.284   .     A
C322   O361    1.276   .     A
C322   C331    1.398   .     S
C323   C328    1.422   .     A
C324   H344    1.084   .     S
C324   C886    1.391   1_554 S
C325   H345    1.084   .     S
C325   C887    1.390   .     S
C326   H337    1.113   .     S
C326   O368    1.414   .     S
C326   H350    1.112   .     S
C326   H336    1.109   .     S
C327   O354    1.414   .     S
C327   H340    1.113   .     S
C327   H339    1.112   .     S
C327   H338    1.109   .     S
C328   S369    1.780   .     S
C328   C882    1.391   .     S
C329   S370    1.779   .     S
C329   C883    1.390   1_554 S
C330   C517    1.334   .     S
C330   H532    1.088   .     S
C332   O364    1.287   .     A
C332   O366    1.285   .     A
C333   O365    1.287   .     A
C333   O367    1.285   .     A
C334   O368    1.383   .     S
H342   O360    0.991   .     S
H347   C517    1.088   .     S
H349   N228    1.029   1_655 S
N351   Zn372   2.015   .     S
N351   H224    1.029   1_655 S
N351   N228    1.270   1_655 S
N352   Zn371   2.015   .     S
O353   Zn371   1.953   .     S
O356   S369    1.503   .     D
O357   S369    1.683   .     S
O357   H527    0.991   .     S
O358   S370    1.504   .     D
O359   S370    1.502   .     D
O360   S556    1.683   .     S
O361   Zn372   1.953   .     S
O362   Zn372   1.973   .     S
O363   Zn371   1.973   .     S
O364   Zn371   1.991   .     S
O365   Zn372   1.991   .     S
O366   Zn372   2.022   .     S
O367   Zn371   2.022   .     S
S369   O541    1.504   .     S
C373   O424    1.284   .     A
C373   C392    1.398   .     S
C373   O415    1.276   .     A
C374   C376    1.400   .     A
C374   C385    1.406   .     A
C374   O416    1.383   .     S
C375   C395    1.424   .     S
C375   C396    1.400   .     A
C375   C377    1.385   .     A
C376   C394    1.423   .     S
C376   C378    1.385   .     A
C377   H397    1.086   .     S
C377   C379    1.378   .     A
C378   H405    1.086   .     S
C378   C380    1.378   .     A
C379   C381    1.409   .     A
C379   C386    1.394   .     A
C380   C382    1.409   .     A
C380   C387    1.394   .     A
C381   C383    1.425   .     A
C381   C940    1.394   1_554 S
C382   C385    1.425   .     A
C382   C939    1.394   .     S
C383   C396    1.406   .     A
C383   C391    1.423   .     A
C384   O425    1.284   .     A
C384   O423    1.276   .     A
C384   C393    1.398   .     S
C385   C390    1.422   .     A
C386   H406    1.084   .     S
C386   C948    1.391   1_554 S
C387   H407    1.084   .     S
C387   C949    1.390   .     S
C388   H399    1.113   .     S
C388   O430    1.414   .     S
C388   H412    1.112   .     S
C388   H398    1.109   .     S
C389   O416    1.414   .     S
C389   H402    1.113   .     S
C389   H401    1.112   .     S
C389   H400    1.109   .     S
C390   S431    1.780   .     S
C390   C944    1.391   .     S
C391   S432    1.779   .     S
C391   C945    1.390   1_554 S
C392   C21     1.334   1_565 S
C392   H36     1.088   1_565 S
C394   O426    1.287   .     A
C394   O428    1.285   .     A
C395   O427    1.287   .     A
C395   O429    1.285   .     A
C396   O430    1.383   .     S
H404   O422    0.991   .     S
H409   C21     1.088   1_565 S
H410   N537    1.029   1_455 S
H411   N476    1.029   .     S
N413   Zn434   2.015   .     S
N413   H472    1.029   .     S
N413   N476    1.270   .     S
N414   Zn433   2.015   .     S
N414   H535    1.029   1_455 S
N414   N537    1.270   1_455 S
O415   Zn433   1.953   .     S
O418   S431    1.503   .     D
O419   S431    1.683   .     S
O419   H31     0.991   1_565 S
O420   S432    1.504   .     D
O421   S432    1.502   .     D
O422   S60     1.683   1_565 S
O423   Zn434   1.953   .     S
O424   Zn434   1.973   .     S
O425   Zn433   1.973   .     S
O426   Zn433   1.991   .     S
O427   Zn434   1.991   .     S
O428   Zn434   2.022   .     S
O429   Zn433   2.022   .     S
S431   O45     1.504   1_565 S
C435   O486    1.284   .     A
C435   C454    1.398   .     S
C435   O477    1.276   .     A
C436   C438    1.400   .     A
C436   C447    1.406   .     A
C436   O478    1.383   .     S
C437   C457    1.424   .     S
C437   C458    1.400   .     A
C437   C439    1.385   .     A
C438   C456    1.423   .     S
C438   C440    1.385   .     A
C439   H459    1.086   .     S
C439   C441    1.378   .     A
C440   H467    1.086   .     S
C440   C442    1.378   .     A
C441   C443    1.409   .     A
C441   C448    1.394   .     A
C442   C444    1.409   .     A
C442   C449    1.394   .     A
C443   C445    1.425   .     A
C443   C1002   1.394   1_554 S
C444   C447    1.425   .     A
C444   C1001   1.394   .     S
C445   C458    1.406   .     A
C445   C453    1.423   .     A
C446   O487    1.284   .     A
C446   O485    1.276   .     A
C446   C455    1.398   .     S
C447   C452    1.422   .     A
C448   H468    1.084   .     S
C448   C1010   1.391   1_554 S
C449   H469    1.084   .     S
C449   C1011   1.390   .     S
C450   H461    1.113   .     S
C450   O492    1.414   .     S
C450   H474    1.112   .     S
C450   H460    1.109   .     S
C451   O478    1.414   .     S
C451   H464    1.113   .     S
C451   H463    1.112   .     S
C451   H462    1.109   .     S
C452   S493    1.780   .     S
C452   C1006   1.391   .     S
C453   S494    1.779   .     S
C453   C1007   1.390   1_554 S
C454   C83     1.334   1_565 S
C454   H98     1.088   1_565 S
C456   O488    1.287   .     A
C456   O490    1.285   .     A
C457   O489    1.287   .     A
C457   O491    1.285   .     A
C458   O492    1.383   .     S
H466   O484    0.991   .     S
H471   C83     1.088   1_565 S
H473   N538    1.029   .     S
N475   Zn496   2.015   .     S
N475   H534    1.029   .     S
N475   N538    1.270   .     S
N476   Zn495   2.015   .     S
O477   Zn495   1.953   .     S
O480   S493    1.503   .     D
O481   S493    1.683   .     S
O481   H93     0.991   1_565 S
O482   S494    1.504   .     D
O483   S494    1.502   .     D
O484   S122    1.683   1_565 S
O485   Zn496   1.953   .     S
O486   Zn496   1.973   .     S
O487   Zn495   1.973   .     S
O488   Zn495   1.991   .     S
O489   Zn496   1.991   .     S
O490   Zn496   2.022   .     S
O491   Zn495   2.022   .     S
S493   O107    1.504   1_565 S
C497   O548    1.284   .     A
C497   C516    1.398   .     S
C497   O539    1.276   .     A
C498   C500    1.400   .     A
C498   C509    1.406   .     A
C498   O540    1.383   .     S
C499   C519    1.424   .     S
C499   C520    1.400   .     A
C499   C501    1.385   .     A
C500   C518    1.423   .     S
C500   C502    1.385   .     A
C501   H521    1.086   .     S
C501   C503    1.378   .     A
C502   H529    1.086   .     S
C502   C504    1.378   .     A
C503   C505    1.409   .     A
C503   C510    1.394   .     A
C504   C506    1.409   .     A
C504   C511    1.394   .     A
C505   C507    1.425   .     A
C505   C1064   1.394   1_554 S
C506   C509    1.425   .     A
C506   C1063   1.394   .     S
C507   C520    1.406   .     A
C507   C515    1.423   .     A
C508   O549    1.284   .     A
C508   O547    1.276   .     A
C508   C517    1.398   .     S
C509   C514    1.422   .     A
C510   H530    1.084   .     S
C510   C1072   1.391   1_554 S
C511   H531    1.084   .     S
C511   C1073   1.390   .     S
C512   H523    1.113   .     S
C512   O554    1.414   .     S
C512   H536    1.112   .     S
C512   H522    1.109   .     S
C513   O540    1.414   .     S
C513   H526    1.113   .     S
C513   H525    1.112   .     S
C513   H524    1.109   .     S
C514   S555    1.780   .     S
C514   C1068   1.391   .     S
C515   S556    1.779   .     S
C515   C1069   1.390   1_554 S
C516   C145    1.334   1_565 S
C516   H160    1.088   1_565 S
C518   O550    1.287   .     A
C518   O552    1.285   .     A
C519   O551    1.287   .     A
C519   O553    1.285   .     A
C520   O554    1.383   .     S
H528   O546    0.991   .     S
H533   C145    1.088   1_565 S
H535   N414    1.029   1_655 S
N537   Zn558   2.015   .     S
N537   H410    1.029   1_655 S
N537   N414    1.270   1_655 S
N538   Zn557   2.015   .     S
O539   Zn557   1.953   .     S
O542   S555    1.503   .     D
O543   S555    1.683   .     S
O543   H155    0.991   1_565 S
O544   S556    1.504   .     D
O545   S556    1.502   .     D
O546   S184    1.683   1_565 S
O547   Zn558   1.953   .     S
O548   Zn558   1.973   .     S
O549   Zn557   1.973   .     S
O550   Zn557   1.991   .     S
O551   Zn558   1.991   .     S
O552   Zn558   2.022   .     S
O553   Zn557   2.022   .     S
S555   O169    1.504   1_565 S
C559   O610    1.284   .     A
C559   C578    1.398   .     S
C559   O601    1.276   .     A
C560   C562    1.400   .     A
C560   C571    1.406   .     A
C560   O602    1.383   .     S
C561   C581    1.424   .     S
C561   C582    1.400   .     A
C561   C563    1.385   .     A
C562   C580    1.423   .     S
C562   C564    1.385   .     A
C563   H583    1.086   .     S
C563   C565    1.378   .     A
C564   H591    1.086   .     S
C564   C566    1.378   .     A
C565   C567    1.409   .     A
C565   C572    1.394   .     A
C566   C568    1.409   .     A
C566   C573    1.394   .     A
C567   C569    1.425   .     A
C568   C571    1.425   .     A
C568   C9      1.394   1_556 S
C569   C582    1.406   .     A
C569   C577    1.423   .     A
C570   O611    1.284   .     A
C570   O609    1.276   .     A
C570   C579    1.398   .     S
C571   C576    1.422   .     A
C572   H592    1.084   .     S
C573   H593    1.084   .     S
C573   C19     1.390   1_556 S
C574   H585    1.113   .     S
C574   O616    1.414   .     S
C574   H598    1.112   .     S
C574   H584    1.109   .     S
C575   O602    1.414   .     S
C575   H588    1.113   .     S
C575   H587    1.112   .     S
C575   H586    1.109   .     S
C576   S617    1.780   .     S
C576   C14     1.391   1_556 S
C577   S618    1.779   .     S
C578   C765    1.334   .     S
C578   H780    1.088   .     S
C579   C950    1.334   1_545 S
C579   H967    1.088   1_545 S
C580   O612    1.287   .     A
C580   O614    1.285   .     A
C581   O613    1.287   .     A
C581   O615    1.285   .     A
C582   O616    1.383   .     S
H589   O977    0.991   1_545 S
H590   O608    0.991   .     S
H594   C950    1.088   1_545 S
H595   C765    1.088   .     S
H596   N723    1.029   1_455 S
H597   N662    1.029   .     S
N599   Zn620   2.015   .     S
N599   H658    1.029   .     S
N599   N662    1.270   .     S
N600   Zn619   2.015   .     S
N600   H721    1.029   1_455 S
N600   N723    1.270   1_455 S
O601   Zn619   1.953   .     S
O603   S989    1.504   1_545 S
O604   S617    1.503   .     D
O605   S617    1.683   .     S
O605   H775    0.991   .     S
O606   S618    1.504   .     D
O607   S618    1.502   .     D
O608   S804    1.683   .     S
O609   Zn620   1.953   .     S
O610   Zn620   1.973   .     S
O611   Zn619   1.973   .     S
O612   Zn619   1.991   .     S
O613   Zn620   1.991   .     S
O614   Zn620   2.022   .     S
O615   Zn619   2.022   .     S
S617   O789    1.504   .     S
S618   O980    1.683   1_545 S
C621   O672    1.284   .     A
C621   C640    1.398   .     S
C621   O663    1.276   .     A
C622   C624    1.400   .     A
C622   C633    1.406   .     A
C622   O664    1.383   .     S
C623   C643    1.424   .     S
C623   C644    1.400   .     A
C623   C625    1.385   .     A
C624   C642    1.423   .     S
C624   C626    1.385   .     A
C625   H645    1.086   .     S
C625   C627    1.378   .     A
C626   H653    1.086   .     S
C626   C628    1.378   .     A
C627   C629    1.409   .     A
C627   C634    1.394   .     A
C628   C630    1.409   .     A
C628   C635    1.394   .     A
C629   C631    1.425   .     A
C630   C633    1.425   .     A
C630   C71     1.394   1_556 S
C631   C644    1.406   .     A
C631   C639    1.423   .     A
C632   O673    1.284   .     A
C632   O671    1.276   .     A
C632   C641    1.398   .     S
C633   C638    1.422   .     A
C634   H654    1.084   .     S
C635   H655    1.084   .     S
C635   C81     1.390   1_556 S
C636   H647    1.113   .     S
C636   O678    1.414   .     S
C636   H660    1.112   .     S
C636   H646    1.109   .     S
C637   O664    1.414   .     S
C637   H650    1.113   .     S
C637   H649    1.112   .     S
C637   H648    1.109   .     S
C638   S679    1.780   .     S
C638   C76     1.391   1_556 S
C639   S680    1.779   .     S
C640   C827    1.334   .     S
C640   H842    1.088   .     S
C641   C1012   1.334   1_545 S
C641   H1029   1.088   1_545 S
C642   O674    1.287   .     A
C642   O676    1.285   .     A
C643   O675    1.287   .     A
C643   O677    1.285   .     A
C644   O678    1.383   .     S
H651   O1039   0.991   1_545 S
H652   O670    0.991   .     S
H656   C1012   1.088   1_545 S
H657   C827    1.088   .     S
H659   N724    1.029   .     S
N661   Zn682   2.015   .     S
N661   H720    1.029   .     S
N661   N724    1.270   .     S
N662   Zn681   2.015   .     S
O663   Zn681   1.953   .     S
O665   S1051   1.504   1_545 S
O666   S679    1.503   .     D
O667   S679    1.683   .     S
O667   H837    0.991   .     S
O668   S680    1.504   .     D
O669   S680    1.502   .     D
O670   S866    1.683   .     S
O671   Zn682   1.953   .     S
O672   Zn682   1.973   .     S
O673   Zn681   1.973   .     S
O674   Zn681   1.991   .     S
O675   Zn682   1.991   .     S
O676   Zn682   2.022   .     S
O677   Zn681   2.022   .     S
S679   O851    1.504   .     S
S680   O1042   1.683   1_545 S
C683   O734    1.284   .     A
C683   C702    1.398   .     S
C683   O725    1.276   .     A
C684   C686    1.400   .     A
C684   C695    1.406   .     A
C684   O726    1.383   .     S
C685   C705    1.424   .     S
C685   C706    1.400   .     A
C685   C687    1.385   .     A
C686   C704    1.423   .     S
C686   C688    1.385   .     A
C687   H707    1.086   .     S
C687   C689    1.378   .     A
C688   H715    1.086   .     S
C688   C690    1.378   .     A
C689   C691    1.409   .     A
C689   C696    1.394   .     A
C690   C692    1.409   .     A
C690   C697    1.394   .     A
C691   C693    1.425   .     A
C692   C695    1.425   .     A
C692   C133    1.394   1_556 S
C693   C706    1.406   .     A
C693   C701    1.423   .     A
C694   O735    1.284   .     A
C694   O733    1.276   .     A
C694   C703    1.398   .     S
C695   C700    1.422   .     A
C696   H716    1.084   .     S
C697   H717    1.084   .     S
C697   C143    1.390   1_556 S
C698   H709    1.113   .     S
C698   O740    1.414   .     S
C698   H722    1.112   .     S
C698   H708    1.109   .     S
C699   O726    1.414   .     S
C699   H712    1.113   .     S
C699   H711    1.112   .     S
C699   H710    1.109   .     S
C700   S741    1.780   .     S
C700   C138    1.391   1_556 S
C701   S742    1.779   .     S
C702   C889    1.334   .     S
C702   H904    1.088   .     S
C703   C1074   1.334   1_545 S
C703   H1091   1.088   1_545 S
C704   O736    1.287   .     A
C704   O738    1.285   .     A
C705   O737    1.287   .     A
C705   O739    1.285   .     A
C706   O740    1.383   .     S
H713   O1101   0.991   1_545 S
H714   O732    0.991   .     S
H718   C1074   1.088   1_545 S
H719   C889    1.088   .     S
H721   N600    1.029   1_655 S
N723   Zn744   2.015   .     S
N723   H596    1.029   1_655 S
N723   N600    1.270   1_655 S
N724   Zn743   2.015   .     S
O725   Zn743   1.953   .     S
O727   S1113   1.504   1_545 S
O728   S741    1.503   .     D
O729   S741    1.683   .     S
O729   H899    0.991   .     S
O730   S742    1.504   .     D
O731   S742    1.502   .     D
O732   S928    1.683   .     S
O733   Zn744   1.953   .     S
O734   Zn744   1.973   .     S
O735   Zn743   1.973   .     S
O736   Zn743   1.991   .     S
O737   Zn744   1.991   .     S
O738   Zn744   2.022   .     S
O739   Zn743   2.022   .     S
S741   O913    1.504   .     S
S742   O1104   1.683   1_545 S
C745   O796    1.284   .     A
C745   C764    1.398   .     S
C745   O787    1.276   .     A
C746   C748    1.400   .     A
C746   C757    1.406   .     A
C746   O788    1.383   .     S
C747   C767    1.424   .     S
C747   C768    1.400   .     A
C747   C749    1.385   .     A
C748   C766    1.423   .     S
C748   C750    1.385   .     A
C749   H769    1.086   .     S
C749   C751    1.378   .     A
C750   H777    1.086   .     S
C750   C752    1.378   .     A
C751   C753    1.409   .     A
C751   C758    1.394   .     A
C752   C754    1.409   .     A
C752   C759    1.394   .     A
C753   C755    1.425   .     A
C754   C757    1.425   .     A
C754   C195    1.394   1_556 S
C755   C768    1.406   .     A
C755   C763    1.423   .     A
C756   O797    1.284   .     A
C756   O795    1.276   .     A
C756   C765    1.398   .     S
C757   C762    1.422   .     A
C758   H778    1.084   .     S
C759   H779    1.084   .     S
C759   C205    1.390   1_556 S
C760   H771    1.113   .     S
C760   O802    1.414   .     S
C760   H784    1.112   .     S
C760   H770    1.109   .     S
C761   O788    1.414   .     S
C761   H774    1.113   .     S
C761   H773    1.112   .     S
C761   H772    1.109   .     S
C762   S803    1.780   .     S
C762   C200    1.391   1_556 S
C763   S804    1.779   .     S
C764   C951    1.334   .     S
C764   H966    1.088   .     S
C766   O798    1.287   .     A
C766   O800    1.285   .     A
C767   O799    1.287   .     A
C767   O801    1.285   .     A
C768   O802    1.383   .     S
H776   O794    0.991   .     S
H781   C951    1.088   .     S
H782   N909    1.029   1_455 S
H783   N848    1.029   .     S
N785   Zn806   2.015   .     S
N785   H844    1.029   .     S
N785   N848    1.270   .     S
N786   Zn805   2.015   .     S
N786   H907    1.029   1_455 S
N786   N909    1.270   1_455 S
O787   Zn805   1.953   .     S
O790   S803    1.503   .     D
O791   S803    1.683   .     S
O791   H961    0.991   .     S
O792   S804    1.504   .     D
O793   S804    1.502   .     D
O794   S990    1.683   .     S
O795   Zn806   1.953   .     S
O796   Zn806   1.973   .     S
O797   Zn805   1.973   .     S
O798   Zn805   1.991   .     S
O799   Zn806   1.991   .     S
O800   Zn806   2.022   .     S
O801   Zn805   2.022   .     S
S803   O975    1.504   .     S
C807   O858    1.284   .     A
C807   C826    1.398   .     S
C807   O849    1.276   .     A
C808   C810    1.400   .     A
C808   C819    1.406   .     A
C808   O850    1.383   .     S
C809   C829    1.424   .     S
C809   C830    1.400   .     A
C809   C811    1.385   .     A
C810   C828    1.423   .     S
C810   C812    1.385   .     A
C811   H831    1.086   .     S
C811   C813    1.378   .     A
C812   H839    1.086   .     S
C812   C814    1.378   .     A
C813   C815    1.409   .     A
C813   C820    1.394   .     A
C814   C816    1.409   .     A
C814   C821    1.394   .     A
C815   C817    1.425   .     A
C816   C819    1.425   .     A
C816   C257    1.394   1_556 S
C817   C830    1.406   .     A
C817   C825    1.423   .     A
C818   O859    1.284   .     A
C818   O857    1.276   .     A
C818   C827    1.398   .     S
C819   C824    1.422   .     A
C820   H840    1.084   .     S
C821   H841    1.084   .     S
C821   C267    1.390   1_556 S
C822   H833    1.113   .     S
C822   O864    1.414   .     S
C822   H846    1.112   .     S
C822   H832    1.109   .     S
C823   O850    1.414   .     S
C823   H836    1.113   .     S
C823   H835    1.112   .     S
C823   H834    1.109   .     S
C824   S865    1.780   .     S
C824   C262    1.391   1_556 S
C825   S866    1.779   .     S
C826   C1013   1.334   .     S
C826   H1028   1.088   .     S
C828   O860    1.287   .     A
C828   O862    1.285   .     A
C829   O861    1.287   .     A
C829   O863    1.285   .     A
C830   O864    1.383   .     S
H838   O856    0.991   .     S
H843   C1013   1.088   .     S
H845   N910    1.029   .     S
N847   Zn868   2.015   .     S
N847   H906    1.029   .     S
N847   N910    1.270   .     S
N848   Zn867   2.015   .     S
O849   Zn867   1.953   .     S
O852   S865    1.503   .     D
O853   S865    1.683   .     S
O853   H1023   0.991   .     S
O854   S866    1.504   .     D
O855   S866    1.502   .     D
O856   S1052   1.683   .     S
O857   Zn868   1.953   .     S
O858   Zn868   1.973   .     S
O859   Zn867   1.973   .     S
O860   Zn867   1.991   .     S
O861   Zn868   1.991   .     S
O862   Zn868   2.022   .     S
O863   Zn867   2.022   .     S
S865   O1037   1.504   .     S
C869   O920    1.284   .     A
C869   C888    1.398   .     S
C869   O911    1.276   .     A
C870   C872    1.400   .     A
C870   C881    1.406   .     A
C870   O912    1.383   .     S
C871   C891    1.424   .     S
C871   C892    1.400   .     A
C871   C873    1.385   .     A
C872   C890    1.423   .     S
C872   C874    1.385   .     A
C873   H893    1.086   .     S
C873   C875    1.378   .     A
C874   H901    1.086   .     S
C874   C876    1.378   .     A
C875   C877    1.409   .     A
C875   C882    1.394   .     A
C876   C878    1.409   .     A
C876   C883    1.394   .     A
C877   C879    1.425   .     A
C878   C881    1.425   .     A
C878   C319    1.394   1_556 S
C879   C892    1.406   .     A
C879   C887    1.423   .     A
C880   O921    1.284   .     A
C880   O919    1.276   .     A
C880   C889    1.398   .     S
C881   C886    1.422   .     A
C882   H902    1.084   .     S
C883   H903    1.084   .     S
C883   C329    1.390   1_556 S
C884   H895    1.113   .     S
C884   O926    1.414   .     S
C884   H908    1.112   .     S
C884   H894    1.109   .     S
C885   O912    1.414   .     S
C885   H898    1.113   .     S
C885   H897    1.112   .     S
C885   H896    1.109   .     S
C886   S927    1.780   .     S
C886   C324    1.391   1_556 S
C887   S928    1.779   .     S
C888   C1075   1.334   .     S
C888   H1090   1.088   .     S
C890   O922    1.287   .     A
C890   O924    1.285   .     A
C891   O923    1.287   .     A
C891   O925    1.285   .     A
C892   O926    1.383   .     S
H900   O918    0.991   .     S
H905   C1075   1.088   .     S
H907   N786    1.029   1_655 S
N909   Zn930   2.015   .     S
N909   H782    1.029   1_655 S
N909   N786    1.270   1_655 S
N910   Zn929   2.015   .     S
O911   Zn929   1.953   .     S
O914   S927    1.503   .     D
O915   S927    1.683   .     S
O915   H1085   0.991   .     S
O916   S928    1.504   .     D
O917   S928    1.502   .     D
O918   S1114   1.683   .     S
O919   Zn930   1.953   .     S
O920   Zn930   1.973   .     S
O921   Zn929   1.973   .     S
O922   Zn929   1.991   .     S
O923   Zn930   1.991   .     S
O924   Zn930   2.022   .     S
O925   Zn929   2.022   .     S
S927   O1099   1.504   .     S
C931   O982    1.284   .     A
C931   C950    1.398   .     S
C931   O973    1.276   .     A
C932   C934    1.400   .     A
C932   C943    1.406   .     A
C932   O974    1.383   .     S
C933   C953    1.424   .     S
C933   C954    1.400   .     A
C933   C935    1.385   .     A
C934   C952    1.423   .     S
C934   C936    1.385   .     A
C935   H955    1.086   .     S
C935   C937    1.378   .     A
C936   H963    1.086   .     S
C936   C938    1.378   .     A
C937   C939    1.409   .     A
C937   C944    1.394   .     A
C938   C940    1.409   .     A
C938   C945    1.394   .     A
C939   C941    1.425   .     A
C940   C943    1.425   .     A
C940   C381    1.394   1_556 S
C941   C954    1.406   .     A
C941   C949    1.423   .     A
C942   O983    1.284   .     A
C942   O981    1.276   .     A
C942   C951    1.398   .     S
C943   C948    1.422   .     A
C944   H964    1.084   .     S
C945   H965    1.084   .     S
C945   C391    1.390   1_556 S
C946   H957    1.113   .     S
C946   O988    1.414   .     S
C946   H970    1.112   .     S
C946   H956    1.109   .     S
C947   O974    1.414   .     S
C947   H960    1.113   .     S
C947   H959    1.112   .     S
C947   H958    1.109   .     S
C948   S989    1.780   .     S
C948   C386    1.391   1_556 S
C949   S990    1.779   .     S
C950   C579    1.334   1_565 S
C950   H594    1.088   1_565 S
C952   O984    1.287   .     A
C952   O986    1.285   .     A
C953   O985    1.287   .     A
C953   O987    1.285   .     A
C954   O988    1.383   .     S
H962   O980    0.991   .     S
H967   C579    1.088   1_565 S
H968   N1095   1.029   1_455 S
H969   N1034   1.029   .     S
N971   Zn992   2.015   .     S
N971   H1030   1.029   .     S
N971   N1034   1.270   .     S
N972   Zn991   2.015   .     S
N972   H1093   1.029   1_455 S
N972   N1095   1.270   1_455 S
O973   Zn991   1.953   .     S
O976   S989    1.503   .     D
O977   S989    1.683   .     S
O977   H589    0.991   1_565 S
O978   S990    1.504   .     D
O979   S990    1.502   .     D
O980   S618    1.683   1_565 S
O981   Zn992   1.953   .     S
O982   Zn992   1.973   .     S
O983   Zn991   1.973   .     S
O984   Zn991   1.991   .     S
O985   Zn992   1.991   .     S
O986   Zn992   2.022   .     S
O987   Zn991   2.022   .     S
S989   O603    1.504   1_565 S
C993   O1044   1.284   .     A
C993   C1012   1.398   .     S
C993   O1035   1.276   .     A
C994   C996    1.400   .     A
C994   C1005   1.406   .     A
C994   O1036   1.383   .     S
C995   C1015   1.424   .     S
C995   C1016   1.400   .     A
C995   C997    1.385   .     A
C996   C1014   1.423   .     S
C996   C998    1.385   .     A
C997   H1017   1.086   .     S
C997   C999    1.378   .     A
C998   H1025   1.086   .     S
C998   C1000   1.378   .     A
C999   C1001   1.409   .     A
C999   C1006   1.394   .     A
C1000  C1002   1.409   .     A
C1000  C1007   1.394   .     A
C1001  C1003   1.425   .     A
C1002  C1005   1.425   .     A
C1002  C443    1.394   1_556 S
C1003  C1016   1.406   .     A
C1003  C1011   1.423   .     A
C1004  O1045   1.284   .     A
C1004  O1043   1.276   .     A
C1004  C1013   1.398   .     S
C1005  C1010   1.422   .     A
C1006  H1026   1.084   .     S
C1007  H1027   1.084   .     S
C1007  C453    1.390   1_556 S
C1008  H1019   1.113   .     S
C1008  O1050   1.414   .     S
C1008  H1032   1.112   .     S
C1008  H1018   1.109   .     S
C1009  O1036   1.414   .     S
C1009  H1022   1.113   .     S
C1009  H1021   1.112   .     S
C1009  H1020   1.109   .     S
C1010  S1051   1.780   .     S
C1010  C448    1.391   1_556 S
C1011  S1052   1.779   .     S
C1012  C641    1.334   1_565 S
C1012  H656    1.088   1_565 S
C1014  O1046   1.287   .     A
C1014  O1048   1.285   .     A
C1015  O1047   1.287   .     A
C1015  O1049   1.285   .     A
C1016  O1050   1.383   .     S
H1024  O1042   0.991   .     S
H1029  C641    1.088   1_565 S
H1031  N1096   1.029   .     S
N1033  Zn1054  2.015   .     S
N1033  H1092   1.029   .     S
N1033  N1096   1.270   .     S
N1034  Zn1053  2.015   .     S
O1035  Zn1053  1.953   .     S
O1038  S1051   1.503   .     D
O1039  S1051   1.683   .     S
O1039  H651    0.991   1_565 S
O1040  S1052   1.504   .     D
O1041  S1052   1.502   .     D
O1042  S680    1.683   1_565 S
O1043  Zn1054  1.953   .     S
O1044  Zn1054  1.973   .     S
O1045  Zn1053  1.973   .     S
O1046  Zn1053  1.991   .     S
O1047  Zn1054  1.991   .     S
O1048  Zn1054  2.022   .     S
O1049  Zn1053  2.022   .     S
S1051  O665    1.504   1_565 S
C1055  O1106   1.284   .     A
C1055  C1074   1.398   .     S
C1055  O1097   1.276   .     A
C1056  C1058   1.400   .     A
C1056  C1067   1.406   .     A
C1056  O1098   1.383   .     S
C1057  C1077   1.424   .     S
C1057  C1078   1.400   .     A
C1057  C1059   1.385   .     A
C1058  C1076   1.423   .     S
C1058  C1060   1.385   .     A
C1059  H1079   1.086   .     S
C1059  C1061   1.378   .     A
C1060  H1087   1.086   .     S
C1060  C1062   1.378   .     A
C1061  C1063   1.409   .     A
C1061  C1068   1.394   .     A
C1062  C1064   1.409   .     A
C1062  C1069   1.394   .     A
C1063  C1065   1.425   .     A
C1064  C1067   1.425   .     A
C1064  C505    1.394   1_556 S
C1065  C1078   1.406   .     A
C1065  C1073   1.423   .     A
C1066  O1107   1.284   .     A
C1066  O1105   1.276   .     A
C1066  C1075   1.398   .     S
C1067  C1072   1.422   .     A
C1068  H1088   1.084   .     S
C1069  H1089   1.084   .     S
C1069  C515    1.390   1_556 S
C1070  H1081   1.113   .     S
C1070  O1112   1.414   .     S
C1070  H1094   1.112   .     S
C1070  H1080   1.109   .     S
C1071  O1098   1.414   .     S
C1071  H1084   1.113   .     S
C1071  H1083   1.112   .     S
C1071  H1082   1.109   .     S
C1072  S1113   1.780   .     S
C1072  C510    1.391   1_556 S
C1073  S1114   1.779   .     S
C1074  C703    1.334   1_565 S
C1074  H718    1.088   1_565 S
C1076  O1108   1.287   .     A
C1076  O1110   1.285   .     A
C1077  O1109   1.287   .     A
C1077  O1111   1.285   .     A
C1078  O1112   1.383   .     S
H1086  O1104   0.991   .     S
H1091  C703    1.088   1_565 S
H1093  N972    1.029   1_655 S
N1095  Zn1116  2.015   .     S
N1095  H968    1.029   1_655 S
N1095  N972    1.270   1_655 S
N1096  Zn1115  2.015   .     S
O1097  Zn1115  1.953   .     S
O1100  S1113   1.503   .     D
O1101  S1113   1.683   .     S
O1101  H713    0.991   1_565 S
O1102  S1114   1.504   .     D
O1103  S1114   1.502   .     D
O1104  S742    1.683   1_565 S
O1105  Zn1116  1.953   .     S
O1106  Zn1116  1.973   .     S
O1107  Zn1115  1.973   .     S
O1108  Zn1115  1.991   .     S
O1109  Zn1116  1.991   .     S
O1110  Zn1116  2.022   .     S
O1111  Zn1115  2.022   .     S
S1113  O727    1.504   1_565 S
