data_str_m3_o2_o10_pcu_sym.105
_audit_creation_date              2020-01-03
_audit_creation_method            'Materials Studio'
_symmetry_space_group_name_H-M    'P1'
_symmetry_Int_Tables_number       1
_symmetry_cell_setting            triclinic
loop_
_symmetry_equiv_pos_as_xyz
  x,y,z
_cell_length_a                    25.6325
_cell_length_b                    29.8647
_cell_length_c                    28.5514
_cell_angle_alpha                 88.8257
_cell_angle_beta                  97.5717
_cell_angle_gamma                 91.6635
loop_
_atom_site_label
_atom_site_type_symbol
_atom_site_fract_x
_atom_site_fract_y
_atom_site_fract_z
_atom_site_U_iso_or_equiv
_atom_site_adp_type
_atom_site_occupancy
C1     C     0.16706   0.16386   0.25037   0.00000  Uiso   1.00
C2     C     0.12966   0.22543   0.44423   0.00000  Uiso   1.00
C3     C     0.16749   0.24914   0.02673   0.00000  Uiso   1.00
C4     C     0.16795   0.24965   0.47357   0.00000  Uiso   1.00
C5     C     0.06720   0.24930   0.23789   0.00000  Uiso   1.00
C6     C     0.26612   0.25166   0.26201   0.00000  Uiso   1.00
C7     C     0.01234   0.24575   0.23186   0.00000  Uiso   1.00
C8     C     0.32092   0.25688   0.26751   0.00000  Uiso   1.00
C9     C     0.18908   0.04632   0.29172   0.00000  Uiso   1.00
C10    C     0.12288   0.45200   0.24949   0.00000  Uiso   1.00
C11    C     0.18875   0.09250   0.29164   0.00000  Uiso   1.00
C12    C     0.16664   0.33578   0.24968   0.00000  Uiso   1.00
C13    C     0.12122   0.40587   0.24788   0.00000  Uiso   1.00
C14    C     0.16826   0.11569   0.25068   0.00000  Uiso   1.00
C15    C     0.16814   0.38328   0.24961   0.00000  Uiso   1.00
C16    C     0.15012   0.09281   0.20912   0.00000  Uiso   1.00
C17    C     0.21685   0.40582   0.25413   0.00000  Uiso   1.00
C18    C     0.15163   0.04644   0.20836   0.00000  Uiso   1.00
C19    C     0.21907   0.45235   0.25451   0.00000  Uiso   1.00
C20    C     0.17082   0.02341   0.25035   0.00000  Uiso   1.00
C21    C     0.17136   0.47518   0.25186   0.00000  Uiso   1.00
C22    C     0.13377   0.02237   0.16286   0.00000  Uiso   1.00
C23    C     0.14439   0.21359   0.05110   0.00000  Uiso   1.00
C24    C     0.27157   0.47684   0.25633   0.00000  Uiso   1.00
C25    C     0.22022   0.32129   0.12892   0.00000  Uiso   1.00
C26    C     0.19941   0.36437   0.12733   0.00000  Uiso   1.00
C27    C     0.23125   0.40097   0.14405   0.00000  Uiso   1.00
C28    C     0.28398   0.39485   0.16224   0.00000  Uiso   1.00
C29    C     0.30500   0.35215   0.16354   0.00000  Uiso   1.00
C30    C     0.27346   0.31567   0.14610   0.00000  Uiso   1.00
C31    C     0.09178   0.19375   0.36869   0.00000  Uiso   1.00
C32    C     0.10732   0.15070   0.35884   0.00000  Uiso   1.00
C33    C     0.07036   0.11893   0.33864   0.00000  Uiso   1.00
C34    C     0.20591   0.27430   0.45108   0.00000  Uiso   1.00
C35    C     0.01708   0.12919   0.33052   0.00000  Uiso   1.00
C36    C     0.00074   0.17086   0.34347   0.00000  Uiso   1.00
C37    C     0.03788   0.20289   0.36296   0.00000  Uiso   1.00
C38    C     0.14380   0.21498   0.10044   0.00000  Uiso   1.00
C39    C     0.20414   0.27444   0.40141   0.00000  Uiso   1.00
C40    C     0.19030   0.28455   0.10340   0.00000  Uiso   1.00
C41    C     0.13004   0.22485   0.39503   0.00000  Uiso   1.00
C42    C     0.18988   0.28485   0.05406   0.00000  Uiso   1.00
H43    H     0.32588   0.23218   0.19897   0.00000  Uiso   1.00
H44    H     0.23748   0.29303   0.47143   0.00000  Uiso   1.00
H45    H     0.12557   0.18752   0.11815   0.00000  Uiso   1.00
H46    H     0.23345   0.29371   0.38504   0.00000  Uiso   1.00
H47    H     0.20760   0.31331   0.03745   0.00000  Uiso   1.00
H48    H     0.09918   0.20633   0.45922   0.00000  Uiso   1.00
H49    H     0.16598   0.00153   0.15372   0.00000  Uiso   1.00
H50    H     0.09866   0.00067   0.16663   0.00000  Uiso   1.00
H51    H     0.12303   0.04619   0.13298   0.00000  Uiso   1.00
H52    H     0.27154   0.49939   0.22491   0.00000  Uiso   1.00
H53    H     0.27938   0.49690   0.28889   0.00000  Uiso   1.00
H54    H     0.00748   0.27066   0.30022   0.00000  Uiso   1.00
H55    H     0.30438   0.45331   0.25657   0.00000  Uiso   1.00
H56    H     0.15899   0.36966   0.11226   0.00000  Uiso   1.00
H57    H     0.21517   0.43412   0.14267   0.00000  Uiso   1.00
H58    H     0.30865   0.42324   0.17492   0.00000  Uiso   1.00
H59    H     0.01272   0.34751   0.17685   0.00000  Uiso   1.00
H60    H     0.29094   0.28341   0.14406   0.00000  Uiso   1.00
H61    H     0.14797   0.14162   0.36776   0.00000  Uiso   1.00
H62    H     0.08286   0.08607   0.33026   0.00000  Uiso   1.00
H63    H     0.32166   0.10447   0.31539   0.00000  Uiso   1.00
H64    H     0.29258   0.17807   0.33896   0.00000  Uiso   1.00
H65    H     0.20392   0.02833   0.32385   0.00000  Uiso   1.00
H66    H     0.02463   0.23448   0.37442   0.00000  Uiso   1.00
H67    H     0.08644   0.46981   0.24811   0.00000  Uiso   1.00
H68    H     0.20499   0.11000   0.32328   0.00000  Uiso   1.00
H69    H     0.08369   0.38780   0.24547   0.00000  Uiso   1.00
H70    H     0.13472   0.11110   0.17734   0.00000  Uiso   1.00
H71    H     0.25272   0.38702   0.25658   0.00000  Uiso   1.00
H72    H     0.12733   0.18433   0.03266   0.00000  Uiso   1.00
N73    N     0.16667   0.24999   0.12624   0.00000  Uiso   1.00
N74    N     0.16667   0.25001   0.37377   0.00000  Uiso   1.00
O75    O     0.16667   0.18454   0.28974   0.00000  Uiso   1.00
O76    O     0.16666   0.31547   0.21026   0.00000  Uiso   1.00
O77    O     0.16667   0.18453   0.21026   0.00000  Uiso   1.00
O78    O     0.16666   0.31547   0.28974   0.00000  Uiso   1.00
O79    O     0.09058   0.25000   0.28045   0.00000  Uiso   1.00
O80    O     0.24275   0.25000   0.21956   0.00000  Uiso   1.00
O81    O     0.09058   0.24999   0.20097   0.00000  Uiso   1.00
O82    O     0.24275   0.25001   0.29904   0.00000  Uiso   1.00
Zn83   Zn    0.16667   0.25001   0.30307   0.00000  Uiso   1.00
Zn84   Zn    0.16667   0.25000   0.19693   0.00000  Uiso   1.00
C85    C     0.50040   0.16386   0.25037   0.00000  Uiso   1.00
C86    C     0.46300   0.22543   0.44423   0.00000  Uiso   1.00
C87    C     0.50082   0.24914   0.02673   0.00000  Uiso   1.00
C88    C     0.50129   0.24965   0.47357   0.00000  Uiso   1.00
C89    C     0.40053   0.24930   0.23789   0.00000  Uiso   1.00
C90    C     0.59946   0.25166   0.26201   0.00000  Uiso   1.00
C91    C     0.34567   0.24575   0.23186   0.00000  Uiso   1.00
C92    C     0.65426   0.25688   0.26751   0.00000  Uiso   1.00
C93    C     0.52242   0.04632   0.29172   0.00000  Uiso   1.00
C94    C     0.45622   0.45200   0.24949   0.00000  Uiso   1.00
C95    C     0.52208   0.09250   0.29164   0.00000  Uiso   1.00
C96    C     0.49998   0.33578   0.24968   0.00000  Uiso   1.00
C97    C     0.45456   0.40587   0.24788   0.00000  Uiso   1.00
C98    C     0.50159   0.11569   0.25068   0.00000  Uiso   1.00
C99    C     0.50147   0.38328   0.24961   0.00000  Uiso   1.00
C100   C     0.48345   0.09281   0.20912   0.00000  Uiso   1.00
C101   C     0.55019   0.40582   0.25413   0.00000  Uiso   1.00
C102   C     0.48496   0.04644   0.20836   0.00000  Uiso   1.00
C103   C     0.55240   0.45235   0.25451   0.00000  Uiso   1.00
C104   C     0.50415   0.02341   0.25035   0.00000  Uiso   1.00
C105   C     0.50469   0.47518   0.25186   0.00000  Uiso   1.00
C106   C     0.46710   0.02237   0.16286   0.00000  Uiso   1.00
C107   C     0.47772   0.21359   0.05110   0.00000  Uiso   1.00
C108   C     0.60490   0.47684   0.25633   0.00000  Uiso   1.00
C109   C     0.55355   0.32129   0.12892   0.00000  Uiso   1.00
C110   C     0.53274   0.36437   0.12733   0.00000  Uiso   1.00
C111   C     0.56458   0.40097   0.14405   0.00000  Uiso   1.00
C112   C     0.61731   0.39485   0.16224   0.00000  Uiso   1.00
C113   C     0.63833   0.35215   0.16354   0.00000  Uiso   1.00
C114   C     0.60680   0.31567   0.14610   0.00000  Uiso   1.00
C115   C     0.42511   0.19375   0.36869   0.00000  Uiso   1.00
C116   C     0.44065   0.15070   0.35884   0.00000  Uiso   1.00
C117   C     0.40369   0.11893   0.33864   0.00000  Uiso   1.00
C118   C     0.53925   0.27430   0.45108   0.00000  Uiso   1.00
C119   C     0.35041   0.12919   0.33052   0.00000  Uiso   1.00
C120   C     0.33407   0.17086   0.34347   0.00000  Uiso   1.00
C121   C     0.37121   0.20289   0.36296   0.00000  Uiso   1.00
C122   C     0.47713   0.21498   0.10044   0.00000  Uiso   1.00
C123   C     0.53747   0.27444   0.40141   0.00000  Uiso   1.00
C124   C     0.52363   0.28455   0.10340   0.00000  Uiso   1.00
C125   C     0.46337   0.22485   0.39503   0.00000  Uiso   1.00
C126   C     0.52321   0.28485   0.05406   0.00000  Uiso   1.00
H127   H     0.65922   0.23218   0.19897   0.00000  Uiso   1.00
H128   H     0.57081   0.29303   0.47143   0.00000  Uiso   1.00
H129   H     0.45890   0.18752   0.11815   0.00000  Uiso   1.00
H130   H     0.56679   0.29371   0.38504   0.00000  Uiso   1.00
H131   H     0.54093   0.31331   0.03745   0.00000  Uiso   1.00
H132   H     0.43252   0.20633   0.45922   0.00000  Uiso   1.00
H133   H     0.49932   0.00153   0.15372   0.00000  Uiso   1.00
H134   H     0.43199   0.00067   0.16663   0.00000  Uiso   1.00
H135   H     0.45637   0.04619   0.13298   0.00000  Uiso   1.00
H136   H     0.60488   0.49939   0.22491   0.00000  Uiso   1.00
H137   H     0.61271   0.49690   0.28889   0.00000  Uiso   1.00
H138   H     0.34081   0.27066   0.30022   0.00000  Uiso   1.00
H139   H     0.63771   0.45331   0.25657   0.00000  Uiso   1.00
H140   H     0.49232   0.36966   0.11226   0.00000  Uiso   1.00
H141   H     0.54850   0.43412   0.14267   0.00000  Uiso   1.00
H142   H     0.64198   0.42324   0.17492   0.00000  Uiso   1.00
H143   H     0.34606   0.34751   0.17685   0.00000  Uiso   1.00
H144   H     0.62427   0.28341   0.14406   0.00000  Uiso   1.00
H145   H     0.48130   0.14162   0.36776   0.00000  Uiso   1.00
H146   H     0.41620   0.08607   0.33026   0.00000  Uiso   1.00
H147   H     0.65500   0.10447   0.31539   0.00000  Uiso   1.00
H148   H     0.62592   0.17807   0.33896   0.00000  Uiso   1.00
H149   H     0.53725   0.02833   0.32385   0.00000  Uiso   1.00
H150   H     0.35797   0.23448   0.37442   0.00000  Uiso   1.00
H151   H     0.41977   0.46981   0.24811   0.00000  Uiso   1.00
H152   H     0.53832   0.11000   0.32328   0.00000  Uiso   1.00
H153   H     0.41702   0.38780   0.24547   0.00000  Uiso   1.00
H154   H     0.46806   0.11110   0.17734   0.00000  Uiso   1.00
H155   H     0.58605   0.38702   0.25658   0.00000  Uiso   1.00
H156   H     0.46067   0.18433   0.03266   0.00000  Uiso   1.00
N157   N     0.50000   0.24999   0.12624   0.00000  Uiso   1.00
N158   N     0.50000   0.25001   0.37377   0.00000  Uiso   1.00
O159   O     0.50000   0.18454   0.28974   0.00000  Uiso   1.00
O160   O     0.50000   0.31547   0.21026   0.00000  Uiso   1.00
O161   O     0.50000   0.18453   0.21026   0.00000  Uiso   1.00
O162   O     0.50000   0.31547   0.28974   0.00000  Uiso   1.00
O163   O     0.42392   0.25000   0.28045   0.00000  Uiso   1.00
O164   O     0.57608   0.25000   0.21956   0.00000  Uiso   1.00
O165   O     0.42392   0.24999   0.20097   0.00000  Uiso   1.00
O166   O     0.57608   0.25001   0.29904   0.00000  Uiso   1.00
Zn167  Zn    0.50000   0.25001   0.30307   0.00000  Uiso   1.00
Zn168  Zn    0.50000   0.25000   0.19693   0.00000  Uiso   1.00
C169   C     0.83373   0.16386   0.25037   0.00000  Uiso   1.00
C170   C     0.79633   0.22543   0.44423   0.00000  Uiso   1.00
C171   C     0.83415   0.24914   0.02673   0.00000  Uiso   1.00
C172   C     0.83462   0.24965   0.47357   0.00000  Uiso   1.00
C173   C     0.73386   0.24930   0.23789   0.00000  Uiso   1.00
C174   C     0.93279   0.25166   0.26201   0.00000  Uiso   1.00
C175   C     0.67900   0.24575   0.23186   0.00000  Uiso   1.00
C176   C     0.98759   0.25688   0.26751   0.00000  Uiso   1.00
C177   C     0.85575   0.04632   0.29172   0.00000  Uiso   1.00
C178   C     0.78955   0.45200   0.24949   0.00000  Uiso   1.00
C179   C     0.85541   0.09250   0.29164   0.00000  Uiso   1.00
C180   C     0.83331   0.33578   0.24968   0.00000  Uiso   1.00
C181   C     0.78789   0.40587   0.24788   0.00000  Uiso   1.00
C182   C     0.83493   0.11569   0.25068   0.00000  Uiso   1.00
C183   C     0.83481   0.38328   0.24961   0.00000  Uiso   1.00
C184   C     0.81678   0.09281   0.20912   0.00000  Uiso   1.00
C185   C     0.88352   0.40582   0.25413   0.00000  Uiso   1.00
C186   C     0.81829   0.04644   0.20836   0.00000  Uiso   1.00
C187   C     0.88574   0.45235   0.25451   0.00000  Uiso   1.00
C188   C     0.83748   0.02341   0.25035   0.00000  Uiso   1.00
C189   C     0.83803   0.47518   0.25186   0.00000  Uiso   1.00
C190   C     0.80044   0.02237   0.16286   0.00000  Uiso   1.00
C191   C     0.81105   0.21359   0.05110   0.00000  Uiso   1.00
C192   C     0.93824   0.47684   0.25633   0.00000  Uiso   1.00
C193   C     0.88688   0.32129   0.12892   0.00000  Uiso   1.00
C194   C     0.86608   0.36437   0.12733   0.00000  Uiso   1.00
C195   C     0.89792   0.40097   0.14405   0.00000  Uiso   1.00
C196   C     0.95064   0.39485   0.16224   0.00000  Uiso   1.00
C197   C     0.97167   0.35215   0.16354   0.00000  Uiso   1.00
C198   C     0.94013   0.31567   0.14610   0.00000  Uiso   1.00
C199   C     0.75845   0.19375   0.36869   0.00000  Uiso   1.00
C200   C     0.77398   0.15070   0.35884   0.00000  Uiso   1.00
C201   C     0.73702   0.11893   0.33864   0.00000  Uiso   1.00
C202   C     0.87258   0.27430   0.45108   0.00000  Uiso   1.00
C203   C     0.68374   0.12919   0.33052   0.00000  Uiso   1.00
C204   C     0.66741   0.17086   0.34347   0.00000  Uiso   1.00
C205   C     0.70454   0.20289   0.36296   0.00000  Uiso   1.00
C206   C     0.81047   0.21498   0.10044   0.00000  Uiso   1.00
C207   C     0.87080   0.27444   0.40141   0.00000  Uiso   1.00
C208   C     0.85696   0.28455   0.10340   0.00000  Uiso   1.00
C209   C     0.79671   0.22485   0.39503   0.00000  Uiso   1.00
C210   C     0.85655   0.28485   0.05406   0.00000  Uiso   1.00
H211   H     0.99255   0.23218   0.19897   0.00000  Uiso   1.00
H212   H     0.90414   0.29303   0.47143   0.00000  Uiso   1.00
H213   H     0.79223   0.18752   0.11815   0.00000  Uiso   1.00
H214   H     0.90012   0.29371   0.38504   0.00000  Uiso   1.00
H215   H     0.87427   0.31331   0.03745   0.00000  Uiso   1.00
H216   H     0.76585   0.20633   0.45922   0.00000  Uiso   1.00
H217   H     0.83265   0.00153   0.15372   0.00000  Uiso   1.00
H218   H     0.76532   0.00067   0.16663   0.00000  Uiso   1.00
H219   H     0.78970   0.04619   0.13298   0.00000  Uiso   1.00
H220   H     0.93821   0.49939   0.22491   0.00000  Uiso   1.00
H221   H     0.94605   0.49690   0.28889   0.00000  Uiso   1.00
H222   H     0.67414   0.27066   0.30022   0.00000  Uiso   1.00
H223   H     0.97105   0.45331   0.25657   0.00000  Uiso   1.00
H224   H     0.82565   0.36966   0.11226   0.00000  Uiso   1.00
H225   H     0.88184   0.43412   0.14267   0.00000  Uiso   1.00
H226   H     0.97531   0.42324   0.17492   0.00000  Uiso   1.00
H227   H     0.67939   0.34751   0.17685   0.00000  Uiso   1.00
H228   H     0.95760   0.28341   0.14406   0.00000  Uiso   1.00
H229   H     0.81464   0.14162   0.36776   0.00000  Uiso   1.00
H230   H     0.74953   0.08607   0.33026   0.00000  Uiso   1.00
H231   H     0.98833   0.10447   0.31539   0.00000  Uiso   1.00
H232   H     0.95925   0.17807   0.33896   0.00000  Uiso   1.00
H233   H     0.87059   0.02833   0.32385   0.00000  Uiso   1.00
H234   H     0.69130   0.23448   0.37442   0.00000  Uiso   1.00
H235   H     0.75310   0.46981   0.24811   0.00000  Uiso   1.00
H236   H     0.87165   0.11000   0.32328   0.00000  Uiso   1.00
H237   H     0.75036   0.38780   0.24547   0.00000  Uiso   1.00
H238   H     0.80139   0.11110   0.17734   0.00000  Uiso   1.00
H239   H     0.91939   0.38702   0.25658   0.00000  Uiso   1.00
H240   H     0.79400   0.18433   0.03266   0.00000  Uiso   1.00
N241   N     0.83333   0.24999   0.12624   0.00000  Uiso   1.00
N242   N     0.83333   0.25001   0.37377   0.00000  Uiso   1.00
O243   O     0.83334   0.18454   0.28974   0.00000  Uiso   1.00
O244   O     0.83333   0.31547   0.21026   0.00000  Uiso   1.00
O245   O     0.83334   0.18453   0.21026   0.00000  Uiso   1.00
O246   O     0.83333   0.31547   0.28974   0.00000  Uiso   1.00
O247   O     0.75725   0.25000   0.28045   0.00000  Uiso   1.00
O248   O     0.90942   0.25000   0.21956   0.00000  Uiso   1.00
O249   O     0.75725   0.24999   0.20097   0.00000  Uiso   1.00
O250   O     0.90942   0.25001   0.29904   0.00000  Uiso   1.00
Zn251  Zn    0.83333   0.25001   0.30307   0.00000  Uiso   1.00
Zn252  Zn    0.83333   0.25000   0.19693   0.00000  Uiso   1.00
C253   C     0.16706   0.66386   0.25037   0.00000  Uiso   1.00
C254   C     0.12966   0.72543   0.44423   0.00000  Uiso   1.00
C255   C     0.16749   0.74914   0.02673   0.00000  Uiso   1.00
C256   C     0.16795   0.74965   0.47357   0.00000  Uiso   1.00
C257   C     0.06720   0.74930   0.23789   0.00000  Uiso   1.00
C258   C     0.26612   0.75166   0.26201   0.00000  Uiso   1.00
C259   C     0.01234   0.74575   0.23186   0.00000  Uiso   1.00
C260   C     0.32092   0.75688   0.26751   0.00000  Uiso   1.00
C261   C     0.18908   0.54632   0.29172   0.00000  Uiso   1.00
C262   C     0.12288   0.95200   0.24949   0.00000  Uiso   1.00
C263   C     0.18875   0.59250   0.29164   0.00000  Uiso   1.00
C264   C     0.16664   0.83578   0.24968   0.00000  Uiso   1.00
C265   C     0.12122   0.90587   0.24788   0.00000  Uiso   1.00
C266   C     0.16826   0.61569   0.25068   0.00000  Uiso   1.00
C267   C     0.16814   0.88328   0.24961   0.00000  Uiso   1.00
C268   C     0.15012   0.59281   0.20912   0.00000  Uiso   1.00
C269   C     0.21685   0.90582   0.25413   0.00000  Uiso   1.00
C270   C     0.15163   0.54644   0.20836   0.00000  Uiso   1.00
C271   C     0.21907   0.95235   0.25451   0.00000  Uiso   1.00
C272   C     0.17082   0.52341   0.25035   0.00000  Uiso   1.00
C273   C     0.17136   0.97518   0.25186   0.00000  Uiso   1.00
C274   C     0.13377   0.52237   0.16286   0.00000  Uiso   1.00
C275   C     0.14439   0.71359   0.05110   0.00000  Uiso   1.00
C276   C     0.27157   0.97684   0.25633   0.00000  Uiso   1.00
C277   C     0.22022   0.82129   0.12892   0.00000  Uiso   1.00
C278   C     0.19941   0.86437   0.12733   0.00000  Uiso   1.00
C279   C     0.23125   0.90097   0.14405   0.00000  Uiso   1.00
C280   C     0.28398   0.89485   0.16224   0.00000  Uiso   1.00
C281   C     0.30500   0.85215   0.16354   0.00000  Uiso   1.00
C282   C     0.27346   0.81567   0.14610   0.00000  Uiso   1.00
C283   C     0.09178   0.69375   0.36869   0.00000  Uiso   1.00
C284   C     0.10732   0.65070   0.35884   0.00000  Uiso   1.00
C285   C     0.07036   0.61893   0.33864   0.00000  Uiso   1.00
C286   C     0.20591   0.77430   0.45108   0.00000  Uiso   1.00
C287   C     0.01708   0.62919   0.33052   0.00000  Uiso   1.00
C288   C     0.00074   0.67086   0.34347   0.00000  Uiso   1.00
C289   C     0.03788   0.70289   0.36296   0.00000  Uiso   1.00
C290   C     0.14380   0.71498   0.10044   0.00000  Uiso   1.00
C291   C     0.20414   0.77444   0.40141   0.00000  Uiso   1.00
C292   C     0.19030   0.78455   0.10340   0.00000  Uiso   1.00
C293   C     0.13004   0.72485   0.39503   0.00000  Uiso   1.00
C294   C     0.18988   0.78485   0.05406   0.00000  Uiso   1.00
H295   H     0.32588   0.73218   0.19897   0.00000  Uiso   1.00
H296   H     0.23748   0.79303   0.47143   0.00000  Uiso   1.00
H297   H     0.12557   0.68752   0.11815   0.00000  Uiso   1.00
H298   H     0.23345   0.79371   0.38504   0.00000  Uiso   1.00
H299   H     0.20760   0.81331   0.03745   0.00000  Uiso   1.00
H300   H     0.09918   0.70633   0.45922   0.00000  Uiso   1.00
H301   H     0.16598   0.50153   0.15372   0.00000  Uiso   1.00
H302   H     0.09866   0.50067   0.16663   0.00000  Uiso   1.00
H303   H     0.12303   0.54619   0.13298   0.00000  Uiso   1.00
H304   H     0.27154   0.99939   0.22491   0.00000  Uiso   1.00
H305   H     0.27938   0.99690   0.28889   0.00000  Uiso   1.00
H306   H     0.00748   0.77066   0.30022   0.00000  Uiso   1.00
H307   H     0.30438   0.95331   0.25657   0.00000  Uiso   1.00
H308   H     0.15899   0.86966   0.11226   0.00000  Uiso   1.00
H309   H     0.21517   0.93412   0.14267   0.00000  Uiso   1.00
H310   H     0.30865   0.92324   0.17492   0.00000  Uiso   1.00
H311   H     0.01272   0.84751   0.17685   0.00000  Uiso   1.00
H312   H     0.29094   0.78341   0.14406   0.00000  Uiso   1.00
H313   H     0.14797   0.64162   0.36776   0.00000  Uiso   1.00
H314   H     0.08286   0.58607   0.33026   0.00000  Uiso   1.00
H315   H     0.32166   0.60447   0.31539   0.00000  Uiso   1.00
H316   H     0.29258   0.67807   0.33896   0.00000  Uiso   1.00
H317   H     0.20392   0.52833   0.32385   0.00000  Uiso   1.00
H318   H     0.02463   0.73448   0.37442   0.00000  Uiso   1.00
H319   H     0.08644   0.96981   0.24811   0.00000  Uiso   1.00
H320   H     0.20499   0.61000   0.32328   0.00000  Uiso   1.00
H321   H     0.08369   0.88780   0.24547   0.00000  Uiso   1.00
H322   H     0.13472   0.61110   0.17734   0.00000  Uiso   1.00
H323   H     0.25272   0.88702   0.25658   0.00000  Uiso   1.00
H324   H     0.12733   0.68433   0.03266   0.00000  Uiso   1.00
N325   N     0.16667   0.74999   0.12624   0.00000  Uiso   1.00
N326   N     0.16667   0.75001   0.37377   0.00000  Uiso   1.00
O327   O     0.16667   0.68454   0.28974   0.00000  Uiso   1.00
O328   O     0.16666   0.81547   0.21026   0.00000  Uiso   1.00
O329   O     0.16667   0.68453   0.21026   0.00000  Uiso   1.00
O330   O     0.16666   0.81547   0.28974   0.00000  Uiso   1.00
O331   O     0.09058   0.75000   0.28045   0.00000  Uiso   1.00
O332   O     0.24275   0.75000   0.21956   0.00000  Uiso   1.00
O333   O     0.09058   0.74999   0.20097   0.00000  Uiso   1.00
O334   O     0.24275   0.75001   0.29904   0.00000  Uiso   1.00
Zn335  Zn    0.16667   0.75001   0.30307   0.00000  Uiso   1.00
Zn336  Zn    0.16667   0.75000   0.19693   0.00000  Uiso   1.00
C337   C     0.50040   0.66386   0.25037   0.00000  Uiso   1.00
C338   C     0.46300   0.72543   0.44423   0.00000  Uiso   1.00
C339   C     0.50082   0.74914   0.02673   0.00000  Uiso   1.00
C340   C     0.50129   0.74965   0.47357   0.00000  Uiso   1.00
C341   C     0.40053   0.74930   0.23789   0.00000  Uiso   1.00
C342   C     0.59946   0.75166   0.26201   0.00000  Uiso   1.00
C343   C     0.34567   0.74575   0.23186   0.00000  Uiso   1.00
C344   C     0.65426   0.75688   0.26751   0.00000  Uiso   1.00
C345   C     0.52242   0.54632   0.29172   0.00000  Uiso   1.00
C346   C     0.45622   0.95200   0.24949   0.00000  Uiso   1.00
C347   C     0.52208   0.59250   0.29164   0.00000  Uiso   1.00
C348   C     0.49998   0.83578   0.24968   0.00000  Uiso   1.00
C349   C     0.45456   0.90587   0.24788   0.00000  Uiso   1.00
C350   C     0.50159   0.61569   0.25068   0.00000  Uiso   1.00
C351   C     0.50147   0.88328   0.24961   0.00000  Uiso   1.00
C352   C     0.48345   0.59281   0.20912   0.00000  Uiso   1.00
C353   C     0.55019   0.90582   0.25413   0.00000  Uiso   1.00
C354   C     0.48496   0.54644   0.20836   0.00000  Uiso   1.00
C355   C     0.55240   0.95235   0.25451   0.00000  Uiso   1.00
C356   C     0.50415   0.52341   0.25035   0.00000  Uiso   1.00
C357   C     0.50469   0.97518   0.25186   0.00000  Uiso   1.00
C358   C     0.46710   0.52237   0.16286   0.00000  Uiso   1.00
C359   C     0.47772   0.71359   0.05110   0.00000  Uiso   1.00
C360   C     0.60490   0.97684   0.25633   0.00000  Uiso   1.00
C361   C     0.55355   0.82129   0.12892   0.00000  Uiso   1.00
C362   C     0.53274   0.86437   0.12733   0.00000  Uiso   1.00
C363   C     0.56458   0.90097   0.14405   0.00000  Uiso   1.00
C364   C     0.61731   0.89485   0.16224   0.00000  Uiso   1.00
C365   C     0.63833   0.85215   0.16354   0.00000  Uiso   1.00
C366   C     0.60680   0.81567   0.14610   0.00000  Uiso   1.00
C367   C     0.42511   0.69375   0.36869   0.00000  Uiso   1.00
C368   C     0.44065   0.65070   0.35884   0.00000  Uiso   1.00
C369   C     0.40369   0.61893   0.33864   0.00000  Uiso   1.00
C370   C     0.53925   0.77430   0.45108   0.00000  Uiso   1.00
C371   C     0.35041   0.62919   0.33052   0.00000  Uiso   1.00
C372   C     0.33407   0.67086   0.34347   0.00000  Uiso   1.00
C373   C     0.37121   0.70289   0.36296   0.00000  Uiso   1.00
C374   C     0.47713   0.71498   0.10044   0.00000  Uiso   1.00
C375   C     0.53747   0.77444   0.40141   0.00000  Uiso   1.00
C376   C     0.52363   0.78455   0.10340   0.00000  Uiso   1.00
C377   C     0.46337   0.72485   0.39503   0.00000  Uiso   1.00
C378   C     0.52321   0.78485   0.05406   0.00000  Uiso   1.00
H379   H     0.65922   0.73218   0.19897   0.00000  Uiso   1.00
H380   H     0.57081   0.79303   0.47143   0.00000  Uiso   1.00
H381   H     0.45890   0.68752   0.11815   0.00000  Uiso   1.00
H382   H     0.56679   0.79371   0.38504   0.00000  Uiso   1.00
H383   H     0.54093   0.81331   0.03745   0.00000  Uiso   1.00
H384   H     0.43252   0.70633   0.45922   0.00000  Uiso   1.00
H385   H     0.49932   0.50153   0.15372   0.00000  Uiso   1.00
H386   H     0.43199   0.50067   0.16663   0.00000  Uiso   1.00
H387   H     0.45637   0.54619   0.13298   0.00000  Uiso   1.00
H388   H     0.60488   0.99939   0.22491   0.00000  Uiso   1.00
H389   H     0.61271   0.99690   0.28889   0.00000  Uiso   1.00
H390   H     0.34081   0.77066   0.30022   0.00000  Uiso   1.00
H391   H     0.63771   0.95331   0.25657   0.00000  Uiso   1.00
H392   H     0.49232   0.86966   0.11226   0.00000  Uiso   1.00
H393   H     0.54850   0.93412   0.14267   0.00000  Uiso   1.00
H394   H     0.64198   0.92324   0.17492   0.00000  Uiso   1.00
H395   H     0.34606   0.84751   0.17685   0.00000  Uiso   1.00
H396   H     0.62427   0.78341   0.14406   0.00000  Uiso   1.00
H397   H     0.48130   0.64162   0.36776   0.00000  Uiso   1.00
H398   H     0.41620   0.58607   0.33026   0.00000  Uiso   1.00
H399   H     0.65500   0.60447   0.31539   0.00000  Uiso   1.00
H400   H     0.62592   0.67807   0.33896   0.00000  Uiso   1.00
H401   H     0.53725   0.52833   0.32385   0.00000  Uiso   1.00
H402   H     0.35797   0.73448   0.37442   0.00000  Uiso   1.00
H403   H     0.41977   0.96981   0.24811   0.00000  Uiso   1.00
H404   H     0.53832   0.61000   0.32328   0.00000  Uiso   1.00
H405   H     0.41702   0.88780   0.24547   0.00000  Uiso   1.00
H406   H     0.46806   0.61110   0.17734   0.00000  Uiso   1.00
H407   H     0.58605   0.88702   0.25658   0.00000  Uiso   1.00
H408   H     0.46067   0.68433   0.03266   0.00000  Uiso   1.00
N409   N     0.50000   0.74999   0.12624   0.00000  Uiso   1.00
N410   N     0.50000   0.75001   0.37377   0.00000  Uiso   1.00
O411   O     0.50000   0.68454   0.28974   0.00000  Uiso   1.00
O412   O     0.50000   0.81547   0.21026   0.00000  Uiso   1.00
O413   O     0.50000   0.68453   0.21026   0.00000  Uiso   1.00
O414   O     0.50000   0.81547   0.28974   0.00000  Uiso   1.00
O415   O     0.42392   0.75000   0.28045   0.00000  Uiso   1.00
O416   O     0.57608   0.75000   0.21956   0.00000  Uiso   1.00
O417   O     0.42392   0.74999   0.20097   0.00000  Uiso   1.00
O418   O     0.57608   0.75001   0.29904   0.00000  Uiso   1.00
Zn419  Zn    0.50000   0.75001   0.30307   0.00000  Uiso   1.00
Zn420  Zn    0.50000   0.75000   0.19693   0.00000  Uiso   1.00
C421   C     0.83373   0.66386   0.25037   0.00000  Uiso   1.00
C422   C     0.79633   0.72543   0.44423   0.00000  Uiso   1.00
C423   C     0.83415   0.74914   0.02673   0.00000  Uiso   1.00
C424   C     0.83462   0.74965   0.47357   0.00000  Uiso   1.00
C425   C     0.73386   0.74930   0.23789   0.00000  Uiso   1.00
C426   C     0.93279   0.75166   0.26201   0.00000  Uiso   1.00
C427   C     0.67900   0.74575   0.23186   0.00000  Uiso   1.00
C428   C     0.98759   0.75688   0.26751   0.00000  Uiso   1.00
C429   C     0.85575   0.54632   0.29172   0.00000  Uiso   1.00
C430   C     0.78955   0.95200   0.24949   0.00000  Uiso   1.00
C431   C     0.85541   0.59250   0.29164   0.00000  Uiso   1.00
C432   C     0.83331   0.83578   0.24968   0.00000  Uiso   1.00
C433   C     0.78789   0.90587   0.24788   0.00000  Uiso   1.00
C434   C     0.83493   0.61569   0.25068   0.00000  Uiso   1.00
C435   C     0.83481   0.88328   0.24961   0.00000  Uiso   1.00
C436   C     0.81678   0.59281   0.20912   0.00000  Uiso   1.00
C437   C     0.88352   0.90582   0.25413   0.00000  Uiso   1.00
C438   C     0.81829   0.54644   0.20836   0.00000  Uiso   1.00
C439   C     0.88574   0.95235   0.25451   0.00000  Uiso   1.00
C440   C     0.83748   0.52341   0.25035   0.00000  Uiso   1.00
C441   C     0.83803   0.97518   0.25186   0.00000  Uiso   1.00
C442   C     0.80044   0.52237   0.16286   0.00000  Uiso   1.00
C443   C     0.81105   0.71359   0.05110   0.00000  Uiso   1.00
C444   C     0.93824   0.97684   0.25633   0.00000  Uiso   1.00
C445   C     0.88688   0.82129   0.12892   0.00000  Uiso   1.00
C446   C     0.86608   0.86437   0.12733   0.00000  Uiso   1.00
C447   C     0.89792   0.90097   0.14405   0.00000  Uiso   1.00
C448   C     0.95064   0.89485   0.16224   0.00000  Uiso   1.00
C449   C     0.97167   0.85215   0.16354   0.00000  Uiso   1.00
C450   C     0.94013   0.81567   0.14610   0.00000  Uiso   1.00
C451   C     0.75845   0.69375   0.36869   0.00000  Uiso   1.00
C452   C     0.77398   0.65070   0.35884   0.00000  Uiso   1.00
C453   C     0.73702   0.61893   0.33864   0.00000  Uiso   1.00
C454   C     0.87258   0.77430   0.45108   0.00000  Uiso   1.00
C455   C     0.68374   0.62919   0.33052   0.00000  Uiso   1.00
C456   C     0.66741   0.67086   0.34347   0.00000  Uiso   1.00
C457   C     0.70454   0.70289   0.36296   0.00000  Uiso   1.00
C458   C     0.81047   0.71498   0.10044   0.00000  Uiso   1.00
C459   C     0.87080   0.77444   0.40141   0.00000  Uiso   1.00
C460   C     0.85696   0.78455   0.10340   0.00000  Uiso   1.00
C461   C     0.79671   0.72485   0.39503   0.00000  Uiso   1.00
C462   C     0.85655   0.78485   0.05406   0.00000  Uiso   1.00
H463   H     0.99255   0.73218   0.19897   0.00000  Uiso   1.00
H464   H     0.90414   0.79303   0.47143   0.00000  Uiso   1.00
H465   H     0.79223   0.68752   0.11815   0.00000  Uiso   1.00
H466   H     0.90012   0.79371   0.38504   0.00000  Uiso   1.00
H467   H     0.87427   0.81331   0.03745   0.00000  Uiso   1.00
H468   H     0.76585   0.70633   0.45922   0.00000  Uiso   1.00
H469   H     0.83265   0.50153   0.15372   0.00000  Uiso   1.00
H470   H     0.76532   0.50067   0.16663   0.00000  Uiso   1.00
H471   H     0.78970   0.54619   0.13298   0.00000  Uiso   1.00
H472   H     0.93821   0.99939   0.22491   0.00000  Uiso   1.00
H473   H     0.94605   0.99690   0.28889   0.00000  Uiso   1.00
H474   H     0.67414   0.77066   0.30022   0.00000  Uiso   1.00
H475   H     0.97105   0.95331   0.25657   0.00000  Uiso   1.00
H476   H     0.82565   0.86966   0.11226   0.00000  Uiso   1.00
H477   H     0.88184   0.93412   0.14267   0.00000  Uiso   1.00
H478   H     0.97531   0.92324   0.17492   0.00000  Uiso   1.00
H479   H     0.67939   0.84751   0.17685   0.00000  Uiso   1.00
H480   H     0.95760   0.78341   0.14406   0.00000  Uiso   1.00
H481   H     0.81464   0.64162   0.36776   0.00000  Uiso   1.00
H482   H     0.74953   0.58607   0.33026   0.00000  Uiso   1.00
H483   H     0.98833   0.60447   0.31539   0.00000  Uiso   1.00
H484   H     0.95925   0.67807   0.33896   0.00000  Uiso   1.00
H485   H     0.87059   0.52833   0.32385   0.00000  Uiso   1.00
H486   H     0.69130   0.73448   0.37442   0.00000  Uiso   1.00
H487   H     0.75310   0.96981   0.24811   0.00000  Uiso   1.00
H488   H     0.87165   0.61000   0.32328   0.00000  Uiso   1.00
H489   H     0.75036   0.88780   0.24547   0.00000  Uiso   1.00
H490   H     0.80139   0.61110   0.17734   0.00000  Uiso   1.00
H491   H     0.91939   0.88702   0.25658   0.00000  Uiso   1.00
H492   H     0.79400   0.68433   0.03266   0.00000  Uiso   1.00
N493   N     0.83333   0.74999   0.12624   0.00000  Uiso   1.00
N494   N     0.83333   0.75001   0.37377   0.00000  Uiso   1.00
O495   O     0.83334   0.68454   0.28974   0.00000  Uiso   1.00
O496   O     0.83333   0.81547   0.21026   0.00000  Uiso   1.00
O497   O     0.83334   0.68453   0.21026   0.00000  Uiso   1.00
O498   O     0.83333   0.81547   0.28974   0.00000  Uiso   1.00
O499   O     0.75725   0.75000   0.28045   0.00000  Uiso   1.00
O500   O     0.90942   0.75000   0.21956   0.00000  Uiso   1.00
O501   O     0.75725   0.74999   0.20097   0.00000  Uiso   1.00
O502   O     0.90942   0.75001   0.29904   0.00000  Uiso   1.00
Zn503  Zn    0.83333   0.75001   0.30307   0.00000  Uiso   1.00
Zn504  Zn    0.83333   0.75000   0.19693   0.00000  Uiso   1.00
C505   C     0.16706   0.16386   0.75037   0.00000  Uiso   1.00
C506   C     0.12966   0.22543   0.94423   0.00000  Uiso   1.00
C507   C     0.16749   0.24914   0.52673   0.00000  Uiso   1.00
C508   C     0.16795   0.24965   0.97357   0.00000  Uiso   1.00
C509   C     0.06720   0.24930   0.73789   0.00000  Uiso   1.00
C510   C     0.26612   0.25166   0.76201   0.00000  Uiso   1.00
C511   C     0.01234   0.24575   0.73186   0.00000  Uiso   1.00
C512   C     0.32092   0.25688   0.76751   0.00000  Uiso   1.00
C513   C     0.18908   0.04632   0.79172   0.00000  Uiso   1.00
C514   C     0.12288   0.45200   0.74949   0.00000  Uiso   1.00
C515   C     0.18875   0.09250   0.79164   0.00000  Uiso   1.00
C516   C     0.16664   0.33578   0.74968   0.00000  Uiso   1.00
C517   C     0.12122   0.40587   0.74788   0.00000  Uiso   1.00
C518   C     0.16826   0.11569   0.75068   0.00000  Uiso   1.00
C519   C     0.16814   0.38328   0.74961   0.00000  Uiso   1.00
C520   C     0.15012   0.09281   0.70912   0.00000  Uiso   1.00
C521   C     0.21685   0.40582   0.75413   0.00000  Uiso   1.00
C522   C     0.15163   0.04644   0.70836   0.00000  Uiso   1.00
C523   C     0.21907   0.45235   0.75451   0.00000  Uiso   1.00
C524   C     0.17082   0.02341   0.75035   0.00000  Uiso   1.00
C525   C     0.17136   0.47518   0.75186   0.00000  Uiso   1.00
C526   C     0.13377   0.02237   0.66286   0.00000  Uiso   1.00
C527   C     0.14439   0.21359   0.55110   0.00000  Uiso   1.00
C528   C     0.27157   0.47684   0.75633   0.00000  Uiso   1.00
C529   C     0.22022   0.32129   0.62892   0.00000  Uiso   1.00
C530   C     0.19941   0.36437   0.62733   0.00000  Uiso   1.00
C531   C     0.23125   0.40097   0.64405   0.00000  Uiso   1.00
C532   C     0.28398   0.39485   0.66224   0.00000  Uiso   1.00
C533   C     0.30500   0.35215   0.66354   0.00000  Uiso   1.00
C534   C     0.27346   0.31567   0.64610   0.00000  Uiso   1.00
C535   C     0.09178   0.19375   0.86869   0.00000  Uiso   1.00
C536   C     0.10732   0.15070   0.85884   0.00000  Uiso   1.00
C537   C     0.07036   0.11893   0.83864   0.00000  Uiso   1.00
C538   C     0.20591   0.27430   0.95108   0.00000  Uiso   1.00
C539   C     0.01708   0.12919   0.83052   0.00000  Uiso   1.00
C540   C     0.00074   0.17086   0.84347   0.00000  Uiso   1.00
C541   C     0.03788   0.20289   0.86296   0.00000  Uiso   1.00
C542   C     0.14380   0.21498   0.60044   0.00000  Uiso   1.00
C543   C     0.20414   0.27444   0.90141   0.00000  Uiso   1.00
C544   C     0.19030   0.28455   0.60340   0.00000  Uiso   1.00
C545   C     0.13004   0.22485   0.89503   0.00000  Uiso   1.00
C546   C     0.18988   0.28485   0.55406   0.00000  Uiso   1.00
H547   H     0.32588   0.23218   0.69897   0.00000  Uiso   1.00
H548   H     0.23748   0.29303   0.97143   0.00000  Uiso   1.00
H549   H     0.12557   0.18752   0.61815   0.00000  Uiso   1.00
H550   H     0.23345   0.29371   0.88504   0.00000  Uiso   1.00
H551   H     0.20760   0.31331   0.53745   0.00000  Uiso   1.00
H552   H     0.09918   0.20633   0.95922   0.00000  Uiso   1.00
H553   H     0.16598   0.00153   0.65372   0.00000  Uiso   1.00
H554   H     0.09866   0.00067   0.66663   0.00000  Uiso   1.00
H555   H     0.12303   0.04619   0.63298   0.00000  Uiso   1.00
H556   H     0.27154   0.49939   0.72491   0.00000  Uiso   1.00
H557   H     0.27938   0.49690   0.78889   0.00000  Uiso   1.00
H558   H     0.00748   0.27066   0.80022   0.00000  Uiso   1.00
H559   H     0.30438   0.45331   0.75657   0.00000  Uiso   1.00
H560   H     0.15899   0.36966   0.61226   0.00000  Uiso   1.00
H561   H     0.21517   0.43412   0.64267   0.00000  Uiso   1.00
H562   H     0.30865   0.42324   0.67492   0.00000  Uiso   1.00
H563   H     0.01272   0.34751   0.67685   0.00000  Uiso   1.00
H564   H     0.29094   0.28341   0.64406   0.00000  Uiso   1.00
H565   H     0.14797   0.14162   0.86776   0.00000  Uiso   1.00
H566   H     0.08286   0.08607   0.83026   0.00000  Uiso   1.00
H567   H     0.32166   0.10447   0.81539   0.00000  Uiso   1.00
H568   H     0.29258   0.17807   0.83896   0.00000  Uiso   1.00
H569   H     0.20392   0.02833   0.82385   0.00000  Uiso   1.00
H570   H     0.02463   0.23448   0.87442   0.00000  Uiso   1.00
H571   H     0.08644   0.46981   0.74811   0.00000  Uiso   1.00
H572   H     0.20499   0.11000   0.82328   0.00000  Uiso   1.00
H573   H     0.08369   0.38780   0.74547   0.00000  Uiso   1.00
H574   H     0.13472   0.11110   0.67734   0.00000  Uiso   1.00
H575   H     0.25272   0.38702   0.75658   0.00000  Uiso   1.00
H576   H     0.12733   0.18433   0.53266   0.00000  Uiso   1.00
N577   N     0.16667   0.24999   0.62624   0.00000  Uiso   1.00
N578   N     0.16667   0.25001   0.87377   0.00000  Uiso   1.00
O579   O     0.16667   0.18454   0.78974   0.00000  Uiso   1.00
O580   O     0.16666   0.31547   0.71026   0.00000  Uiso   1.00
O581   O     0.16667   0.18453   0.71026   0.00000  Uiso   1.00
O582   O     0.16666   0.31547   0.78974   0.00000  Uiso   1.00
O583   O     0.09058   0.25000   0.78045   0.00000  Uiso   1.00
O584   O     0.24275   0.25000   0.71956   0.00000  Uiso   1.00
O585   O     0.09058   0.24999   0.70097   0.00000  Uiso   1.00
O586   O     0.24275   0.25001   0.79904   0.00000  Uiso   1.00
Zn587  Zn    0.16667   0.25001   0.80307   0.00000  Uiso   1.00
Zn588  Zn    0.16667   0.25000   0.69693   0.00000  Uiso   1.00
C589   C     0.50040   0.16386   0.75037   0.00000  Uiso   1.00
C590   C     0.46300   0.22543   0.94423   0.00000  Uiso   1.00
C591   C     0.50082   0.24914   0.52673   0.00000  Uiso   1.00
C592   C     0.50129   0.24965   0.97357   0.00000  Uiso   1.00
C593   C     0.40053   0.24930   0.73789   0.00000  Uiso   1.00
C594   C     0.59946   0.25166   0.76201   0.00000  Uiso   1.00
C595   C     0.34567   0.24575   0.73186   0.00000  Uiso   1.00
C596   C     0.65426   0.25688   0.76751   0.00000  Uiso   1.00
C597   C     0.52242   0.04632   0.79172   0.00000  Uiso   1.00
C598   C     0.45622   0.45200   0.74949   0.00000  Uiso   1.00
C599   C     0.52208   0.09250   0.79164   0.00000  Uiso   1.00
C600   C     0.49998   0.33578   0.74968   0.00000  Uiso   1.00
C601   C     0.45456   0.40587   0.74788   0.00000  Uiso   1.00
C602   C     0.50159   0.11569   0.75068   0.00000  Uiso   1.00
C603   C     0.50147   0.38328   0.74961   0.00000  Uiso   1.00
C604   C     0.48345   0.09281   0.70912   0.00000  Uiso   1.00
C605   C     0.55019   0.40582   0.75413   0.00000  Uiso   1.00
C606   C     0.48496   0.04644   0.70836   0.00000  Uiso   1.00
C607   C     0.55240   0.45235   0.75451   0.00000  Uiso   1.00
C608   C     0.50415   0.02341   0.75035   0.00000  Uiso   1.00
C609   C     0.50469   0.47518   0.75186   0.00000  Uiso   1.00
C610   C     0.46710   0.02237   0.66286   0.00000  Uiso   1.00
C611   C     0.47772   0.21359   0.55110   0.00000  Uiso   1.00
C612   C     0.60490   0.47684   0.75633   0.00000  Uiso   1.00
C613   C     0.55355   0.32129   0.62892   0.00000  Uiso   1.00
C614   C     0.53274   0.36437   0.62733   0.00000  Uiso   1.00
C615   C     0.56458   0.40097   0.64405   0.00000  Uiso   1.00
C616   C     0.61731   0.39485   0.66224   0.00000  Uiso   1.00
C617   C     0.63833   0.35215   0.66354   0.00000  Uiso   1.00
C618   C     0.60680   0.31567   0.64610   0.00000  Uiso   1.00
C619   C     0.42511   0.19375   0.86869   0.00000  Uiso   1.00
C620   C     0.44065   0.15070   0.85884   0.00000  Uiso   1.00
C621   C     0.40369   0.11893   0.83864   0.00000  Uiso   1.00
C622   C     0.53925   0.27430   0.95108   0.00000  Uiso   1.00
C623   C     0.35041   0.12919   0.83052   0.00000  Uiso   1.00
C624   C     0.33407   0.17086   0.84347   0.00000  Uiso   1.00
C625   C     0.37121   0.20289   0.86296   0.00000  Uiso   1.00
C626   C     0.47713   0.21498   0.60044   0.00000  Uiso   1.00
C627   C     0.53747   0.27444   0.90141   0.00000  Uiso   1.00
C628   C     0.52363   0.28455   0.60340   0.00000  Uiso   1.00
C629   C     0.46337   0.22485   0.89503   0.00000  Uiso   1.00
C630   C     0.52321   0.28485   0.55406   0.00000  Uiso   1.00
H631   H     0.65922   0.23218   0.69897   0.00000  Uiso   1.00
H632   H     0.57081   0.29303   0.97143   0.00000  Uiso   1.00
H633   H     0.45890   0.18752   0.61815   0.00000  Uiso   1.00
H634   H     0.56679   0.29371   0.88504   0.00000  Uiso   1.00
H635   H     0.54093   0.31331   0.53745   0.00000  Uiso   1.00
H636   H     0.43252   0.20633   0.95922   0.00000  Uiso   1.00
H637   H     0.49932   0.00153   0.65372   0.00000  Uiso   1.00
H638   H     0.43199   0.00067   0.66663   0.00000  Uiso   1.00
H639   H     0.45637   0.04619   0.63298   0.00000  Uiso   1.00
H640   H     0.60488   0.49939   0.72491   0.00000  Uiso   1.00
H641   H     0.61271   0.49690   0.78889   0.00000  Uiso   1.00
H642   H     0.34081   0.27066   0.80022   0.00000  Uiso   1.00
H643   H     0.63771   0.45331   0.75657   0.00000  Uiso   1.00
H644   H     0.49232   0.36966   0.61226   0.00000  Uiso   1.00
H645   H     0.54850   0.43412   0.64267   0.00000  Uiso   1.00
H646   H     0.64198   0.42324   0.67492   0.00000  Uiso   1.00
H647   H     0.34606   0.34751   0.67685   0.00000  Uiso   1.00
H648   H     0.62427   0.28341   0.64406   0.00000  Uiso   1.00
H649   H     0.48130   0.14162   0.86776   0.00000  Uiso   1.00
H650   H     0.41620   0.08607   0.83026   0.00000  Uiso   1.00
H651   H     0.65500   0.10447   0.81539   0.00000  Uiso   1.00
H652   H     0.62592   0.17807   0.83896   0.00000  Uiso   1.00
H653   H     0.53725   0.02833   0.82385   0.00000  Uiso   1.00
H654   H     0.35797   0.23448   0.87442   0.00000  Uiso   1.00
H655   H     0.41977   0.46981   0.74811   0.00000  Uiso   1.00
H656   H     0.53832   0.11000   0.82328   0.00000  Uiso   1.00
H657   H     0.41702   0.38780   0.74547   0.00000  Uiso   1.00
H658   H     0.46806   0.11110   0.67734   0.00000  Uiso   1.00
H659   H     0.58605   0.38702   0.75658   0.00000  Uiso   1.00
H660   H     0.46067   0.18433   0.53266   0.00000  Uiso   1.00
N661   N     0.50000   0.24999   0.62624   0.00000  Uiso   1.00
N662   N     0.50000   0.25001   0.87377   0.00000  Uiso   1.00
O663   O     0.50000   0.18454   0.78974   0.00000  Uiso   1.00
O664   O     0.50000   0.31547   0.71026   0.00000  Uiso   1.00
O665   O     0.50000   0.18453   0.71026   0.00000  Uiso   1.00
O666   O     0.50000   0.31547   0.78974   0.00000  Uiso   1.00
O667   O     0.42392   0.25000   0.78045   0.00000  Uiso   1.00
O668   O     0.57608   0.25000   0.71956   0.00000  Uiso   1.00
O669   O     0.42392   0.24999   0.70097   0.00000  Uiso   1.00
O670   O     0.57608   0.25001   0.79904   0.00000  Uiso   1.00
Zn671  Zn    0.50000   0.25001   0.80307   0.00000  Uiso   1.00
Zn672  Zn    0.50000   0.25000   0.69693   0.00000  Uiso   1.00
C673   C     0.83373   0.16386   0.75037   0.00000  Uiso   1.00
C674   C     0.79633   0.22543   0.94423   0.00000  Uiso   1.00
C675   C     0.83415   0.24914   0.52673   0.00000  Uiso   1.00
C676   C     0.83462   0.24965   0.97357   0.00000  Uiso   1.00
C677   C     0.73386   0.24930   0.73789   0.00000  Uiso   1.00
C678   C     0.93279   0.25166   0.76201   0.00000  Uiso   1.00
C679   C     0.67900   0.24575   0.73186   0.00000  Uiso   1.00
C680   C     0.98759   0.25688   0.76751   0.00000  Uiso   1.00
C681   C     0.85575   0.04632   0.79172   0.00000  Uiso   1.00
C682   C     0.78955   0.45200   0.74949   0.00000  Uiso   1.00
C683   C     0.85541   0.09250   0.79164   0.00000  Uiso   1.00
C684   C     0.83331   0.33578   0.74968   0.00000  Uiso   1.00
C685   C     0.78789   0.40587   0.74788   0.00000  Uiso   1.00
C686   C     0.83493   0.11569   0.75068   0.00000  Uiso   1.00
C687   C     0.83481   0.38328   0.74961   0.00000  Uiso   1.00
C688   C     0.81678   0.09281   0.70912   0.00000  Uiso   1.00
C689   C     0.88352   0.40582   0.75413   0.00000  Uiso   1.00
C690   C     0.81829   0.04644   0.70836   0.00000  Uiso   1.00
C691   C     0.88574   0.45235   0.75451   0.00000  Uiso   1.00
C692   C     0.83748   0.02341   0.75035   0.00000  Uiso   1.00
C693   C     0.83803   0.47518   0.75186   0.00000  Uiso   1.00
C694   C     0.80044   0.02237   0.66286   0.00000  Uiso   1.00
C695   C     0.81105   0.21359   0.55110   0.00000  Uiso   1.00
C696   C     0.93824   0.47684   0.75633   0.00000  Uiso   1.00
C697   C     0.88688   0.32129   0.62892   0.00000  Uiso   1.00
C698   C     0.86608   0.36437   0.62733   0.00000  Uiso   1.00
C699   C     0.89792   0.40097   0.64405   0.00000  Uiso   1.00
C700   C     0.95064   0.39485   0.66224   0.00000  Uiso   1.00
C701   C     0.97167   0.35215   0.66354   0.00000  Uiso   1.00
C702   C     0.94013   0.31567   0.64610   0.00000  Uiso   1.00
C703   C     0.75845   0.19375   0.86869   0.00000  Uiso   1.00
C704   C     0.77398   0.15070   0.85884   0.00000  Uiso   1.00
C705   C     0.73702   0.11893   0.83864   0.00000  Uiso   1.00
C706   C     0.87258   0.27430   0.95108   0.00000  Uiso   1.00
C707   C     0.68374   0.12919   0.83052   0.00000  Uiso   1.00
C708   C     0.66741   0.17086   0.84347   0.00000  Uiso   1.00
C709   C     0.70454   0.20289   0.86296   0.00000  Uiso   1.00
C710   C     0.81047   0.21498   0.60044   0.00000  Uiso   1.00
C711   C     0.87080   0.27444   0.90141   0.00000  Uiso   1.00
C712   C     0.85696   0.28455   0.60340   0.00000  Uiso   1.00
C713   C     0.79671   0.22485   0.89503   0.00000  Uiso   1.00
C714   C     0.85655   0.28485   0.55406   0.00000  Uiso   1.00
H715   H     0.99255   0.23218   0.69897   0.00000  Uiso   1.00
H716   H     0.90414   0.29303   0.97143   0.00000  Uiso   1.00
H717   H     0.79223   0.18752   0.61815   0.00000  Uiso   1.00
H718   H     0.90012   0.29371   0.88504   0.00000  Uiso   1.00
H719   H     0.87427   0.31331   0.53745   0.00000  Uiso   1.00
H720   H     0.76585   0.20633   0.95922   0.00000  Uiso   1.00
H721   H     0.83265   0.00153   0.65372   0.00000  Uiso   1.00
H722   H     0.76532   0.00067   0.66663   0.00000  Uiso   1.00
H723   H     0.78970   0.04619   0.63298   0.00000  Uiso   1.00
H724   H     0.93821   0.49939   0.72491   0.00000  Uiso   1.00
H725   H     0.94605   0.49690   0.78889   0.00000  Uiso   1.00
H726   H     0.67414   0.27066   0.80022   0.00000  Uiso   1.00
H727   H     0.97105   0.45331   0.75657   0.00000  Uiso   1.00
H728   H     0.82565   0.36966   0.61226   0.00000  Uiso   1.00
H729   H     0.88184   0.43412   0.64267   0.00000  Uiso   1.00
H730   H     0.97531   0.42324   0.67492   0.00000  Uiso   1.00
H731   H     0.67939   0.34751   0.67685   0.00000  Uiso   1.00
H732   H     0.95760   0.28341   0.64406   0.00000  Uiso   1.00
H733   H     0.81464   0.14162   0.86776   0.00000  Uiso   1.00
H734   H     0.74953   0.08607   0.83026   0.00000  Uiso   1.00
H735   H     0.98833   0.10447   0.81539   0.00000  Uiso   1.00
H736   H     0.95925   0.17807   0.83896   0.00000  Uiso   1.00
H737   H     0.87059   0.02833   0.82385   0.00000  Uiso   1.00
H738   H     0.69130   0.23448   0.87442   0.00000  Uiso   1.00
H739   H     0.75310   0.46981   0.74811   0.00000  Uiso   1.00
H740   H     0.87165   0.11000   0.82328   0.00000  Uiso   1.00
H741   H     0.75036   0.38780   0.74547   0.00000  Uiso   1.00
H742   H     0.80139   0.11110   0.67734   0.00000  Uiso   1.00
H743   H     0.91939   0.38702   0.75658   0.00000  Uiso   1.00
H744   H     0.79400   0.18433   0.53266   0.00000  Uiso   1.00
N745   N     0.83333   0.24999   0.62624   0.00000  Uiso   1.00
N746   N     0.83333   0.25001   0.87377   0.00000  Uiso   1.00
O747   O     0.83334   0.18454   0.78974   0.00000  Uiso   1.00
O748   O     0.83333   0.31547   0.71026   0.00000  Uiso   1.00
O749   O     0.83334   0.18453   0.71026   0.00000  Uiso   1.00
O750   O     0.83333   0.31547   0.78974   0.00000  Uiso   1.00
O751   O     0.75725   0.25000   0.78045   0.00000  Uiso   1.00
O752   O     0.90942   0.25000   0.71956   0.00000  Uiso   1.00
O753   O     0.75725   0.24999   0.70097   0.00000  Uiso   1.00
O754   O     0.90942   0.25001   0.79904   0.00000  Uiso   1.00
Zn755  Zn    0.83333   0.25001   0.80307   0.00000  Uiso   1.00
Zn756  Zn    0.83333   0.25000   0.69693   0.00000  Uiso   1.00
C757   C     0.16706   0.66386   0.75037   0.00000  Uiso   1.00
C758   C     0.12966   0.72543   0.94423   0.00000  Uiso   1.00
C759   C     0.16749   0.74914   0.52673   0.00000  Uiso   1.00
C760   C     0.16795   0.74965   0.97357   0.00000  Uiso   1.00
C761   C     0.06720   0.74930   0.73789   0.00000  Uiso   1.00
C762   C     0.26612   0.75166   0.76201   0.00000  Uiso   1.00
C763   C     0.01234   0.74575   0.73186   0.00000  Uiso   1.00
C764   C     0.32092   0.75688   0.76751   0.00000  Uiso   1.00
C765   C     0.18908   0.54632   0.79172   0.00000  Uiso   1.00
C766   C     0.12288   0.95200   0.74949   0.00000  Uiso   1.00
C767   C     0.18875   0.59250   0.79164   0.00000  Uiso   1.00
C768   C     0.16664   0.83578   0.74968   0.00000  Uiso   1.00
C769   C     0.12122   0.90587   0.74788   0.00000  Uiso   1.00
C770   C     0.16826   0.61569   0.75068   0.00000  Uiso   1.00
C771   C     0.16814   0.88328   0.74961   0.00000  Uiso   1.00
C772   C     0.15012   0.59281   0.70912   0.00000  Uiso   1.00
C773   C     0.21685   0.90582   0.75413   0.00000  Uiso   1.00
C774   C     0.15163   0.54644   0.70836   0.00000  Uiso   1.00
C775   C     0.21907   0.95235   0.75451   0.00000  Uiso   1.00
C776   C     0.17082   0.52341   0.75035   0.00000  Uiso   1.00
C777   C     0.17136   0.97518   0.75186   0.00000  Uiso   1.00
C778   C     0.13377   0.52237   0.66286   0.00000  Uiso   1.00
C779   C     0.14439   0.71359   0.55110   0.00000  Uiso   1.00
C780   C     0.27157   0.97684   0.75633   0.00000  Uiso   1.00
C781   C     0.22022   0.82129   0.62892   0.00000  Uiso   1.00
C782   C     0.19941   0.86437   0.62733   0.00000  Uiso   1.00
C783   C     0.23125   0.90097   0.64405   0.00000  Uiso   1.00
C784   C     0.28398   0.89485   0.66224   0.00000  Uiso   1.00
C785   C     0.30500   0.85215   0.66354   0.00000  Uiso   1.00
C786   C     0.27346   0.81567   0.64610   0.00000  Uiso   1.00
C787   C     0.09178   0.69375   0.86869   0.00000  Uiso   1.00
C788   C     0.10732   0.65070   0.85884   0.00000  Uiso   1.00
C789   C     0.07036   0.61893   0.83864   0.00000  Uiso   1.00
C790   C     0.20591   0.77430   0.95108   0.00000  Uiso   1.00
C791   C     0.01708   0.62919   0.83052   0.00000  Uiso   1.00
C792   C     0.00074   0.67086   0.84347   0.00000  Uiso   1.00
C793   C     0.03788   0.70289   0.86296   0.00000  Uiso   1.00
C794   C     0.14380   0.71498   0.60044   0.00000  Uiso   1.00
C795   C     0.20414   0.77444   0.90141   0.00000  Uiso   1.00
C796   C     0.19030   0.78455   0.60340   0.00000  Uiso   1.00
C797   C     0.13004   0.72485   0.89503   0.00000  Uiso   1.00
C798   C     0.18988   0.78485   0.55406   0.00000  Uiso   1.00
H799   H     0.32588   0.73218   0.69897   0.00000  Uiso   1.00
H800   H     0.23748   0.79303   0.97143   0.00000  Uiso   1.00
H801   H     0.12557   0.68752   0.61815   0.00000  Uiso   1.00
H802   H     0.23345   0.79371   0.88504   0.00000  Uiso   1.00
H803   H     0.20760   0.81331   0.53745   0.00000  Uiso   1.00
H804   H     0.09918   0.70633   0.95922   0.00000  Uiso   1.00
H805   H     0.16598   0.50153   0.65372   0.00000  Uiso   1.00
H806   H     0.09866   0.50067   0.66663   0.00000  Uiso   1.00
H807   H     0.12303   0.54619   0.63298   0.00000  Uiso   1.00
H808   H     0.27154   0.99939   0.72491   0.00000  Uiso   1.00
H809   H     0.27938   0.99690   0.78889   0.00000  Uiso   1.00
H810   H     0.00748   0.77066   0.80022   0.00000  Uiso   1.00
H811   H     0.30438   0.95331   0.75657   0.00000  Uiso   1.00
H812   H     0.15899   0.86966   0.61226   0.00000  Uiso   1.00
H813   H     0.21517   0.93412   0.64267   0.00000  Uiso   1.00
H814   H     0.30865   0.92324   0.67492   0.00000  Uiso   1.00
H815   H     0.01272   0.84751   0.67685   0.00000  Uiso   1.00
H816   H     0.29094   0.78341   0.64406   0.00000  Uiso   1.00
H817   H     0.14797   0.64162   0.86776   0.00000  Uiso   1.00
H818   H     0.08286   0.58607   0.83026   0.00000  Uiso   1.00
H819   H     0.32166   0.60447   0.81539   0.00000  Uiso   1.00
H820   H     0.29258   0.67807   0.83896   0.00000  Uiso   1.00
H821   H     0.20392   0.52833   0.82385   0.00000  Uiso   1.00
H822   H     0.02463   0.73448   0.87442   0.00000  Uiso   1.00
H823   H     0.08644   0.96981   0.74811   0.00000  Uiso   1.00
H824   H     0.20499   0.61000   0.82328   0.00000  Uiso   1.00
H825   H     0.08369   0.88780   0.74547   0.00000  Uiso   1.00
H826   H     0.13472   0.61110   0.67734   0.00000  Uiso   1.00
H827   H     0.25272   0.88702   0.75658   0.00000  Uiso   1.00
H828   H     0.12733   0.68433   0.53266   0.00000  Uiso   1.00
N829   N     0.16667   0.74999   0.62624   0.00000  Uiso   1.00
N830   N     0.16667   0.75001   0.87377   0.00000  Uiso   1.00
O831   O     0.16667   0.68454   0.78974   0.00000  Uiso   1.00
O832   O     0.16666   0.81547   0.71026   0.00000  Uiso   1.00
O833   O     0.16667   0.68453   0.71026   0.00000  Uiso   1.00
O834   O     0.16666   0.81547   0.78974   0.00000  Uiso   1.00
O835   O     0.09058   0.75000   0.78045   0.00000  Uiso   1.00
O836   O     0.24275   0.75000   0.71956   0.00000  Uiso   1.00
O837   O     0.09058   0.74999   0.70097   0.00000  Uiso   1.00
O838   O     0.24275   0.75001   0.79904   0.00000  Uiso   1.00
Zn839  Zn    0.16667   0.75001   0.80307   0.00000  Uiso   1.00
Zn840  Zn    0.16667   0.75000   0.69693   0.00000  Uiso   1.00
C841   C     0.50040   0.66386   0.75037   0.00000  Uiso   1.00
C842   C     0.46300   0.72543   0.94423   0.00000  Uiso   1.00
C843   C     0.50082   0.74914   0.52673   0.00000  Uiso   1.00
C844   C     0.50129   0.74965   0.97357   0.00000  Uiso   1.00
C845   C     0.40053   0.74930   0.73789   0.00000  Uiso   1.00
C846   C     0.59946   0.75166   0.76201   0.00000  Uiso   1.00
C847   C     0.34567   0.74575   0.73186   0.00000  Uiso   1.00
C848   C     0.65426   0.75688   0.76751   0.00000  Uiso   1.00
C849   C     0.52242   0.54632   0.79172   0.00000  Uiso   1.00
C850   C     0.45622   0.95200   0.74949   0.00000  Uiso   1.00
C851   C     0.52208   0.59250   0.79164   0.00000  Uiso   1.00
C852   C     0.49998   0.83578   0.74968   0.00000  Uiso   1.00
C853   C     0.45456   0.90587   0.74788   0.00000  Uiso   1.00
C854   C     0.50159   0.61569   0.75068   0.00000  Uiso   1.00
C855   C     0.50147   0.88328   0.74961   0.00000  Uiso   1.00
C856   C     0.48345   0.59281   0.70912   0.00000  Uiso   1.00
C857   C     0.55019   0.90582   0.75413   0.00000  Uiso   1.00
C858   C     0.48496   0.54644   0.70836   0.00000  Uiso   1.00
C859   C     0.55240   0.95235   0.75451   0.00000  Uiso   1.00
C860   C     0.50415   0.52341   0.75035   0.00000  Uiso   1.00
C861   C     0.50469   0.97518   0.75186   0.00000  Uiso   1.00
C862   C     0.46710   0.52237   0.66286   0.00000  Uiso   1.00
C863   C     0.47772   0.71359   0.55110   0.00000  Uiso   1.00
C864   C     0.60490   0.97684   0.75633   0.00000  Uiso   1.00
C865   C     0.55355   0.82129   0.62892   0.00000  Uiso   1.00
C866   C     0.53274   0.86437   0.62733   0.00000  Uiso   1.00
C867   C     0.56458   0.90097   0.64405   0.00000  Uiso   1.00
C868   C     0.61731   0.89485   0.66224   0.00000  Uiso   1.00
C869   C     0.63833   0.85215   0.66354   0.00000  Uiso   1.00
C870   C     0.60680   0.81567   0.64610   0.00000  Uiso   1.00
C871   C     0.42511   0.69375   0.86869   0.00000  Uiso   1.00
C872   C     0.44065   0.65070   0.85884   0.00000  Uiso   1.00
C873   C     0.40369   0.61893   0.83864   0.00000  Uiso   1.00
C874   C     0.53925   0.77430   0.95108   0.00000  Uiso   1.00
C875   C     0.35041   0.62919   0.83052   0.00000  Uiso   1.00
C876   C     0.33407   0.67086   0.84347   0.00000  Uiso   1.00
C877   C     0.37121   0.70289   0.86296   0.00000  Uiso   1.00
C878   C     0.47713   0.71498   0.60044   0.00000  Uiso   1.00
C879   C     0.53747   0.77444   0.90141   0.00000  Uiso   1.00
C880   C     0.52363   0.78455   0.60340   0.00000  Uiso   1.00
C881   C     0.46337   0.72485   0.89503   0.00000  Uiso   1.00
C882   C     0.52321   0.78485   0.55406   0.00000  Uiso   1.00
H883   H     0.65922   0.73218   0.69897   0.00000  Uiso   1.00
H884   H     0.57081   0.79303   0.97143   0.00000  Uiso   1.00
H885   H     0.45890   0.68752   0.61815   0.00000  Uiso   1.00
H886   H     0.56679   0.79371   0.88504   0.00000  Uiso   1.00
H887   H     0.54093   0.81331   0.53745   0.00000  Uiso   1.00
H888   H     0.43252   0.70633   0.95922   0.00000  Uiso   1.00
H889   H     0.49932   0.50153   0.65372   0.00000  Uiso   1.00
H890   H     0.43199   0.50067   0.66663   0.00000  Uiso   1.00
H891   H     0.45637   0.54619   0.63298   0.00000  Uiso   1.00
H892   H     0.60488   0.99939   0.72491   0.00000  Uiso   1.00
H893   H     0.61271   0.99690   0.78889   0.00000  Uiso   1.00
H894   H     0.34081   0.77066   0.80022   0.00000  Uiso   1.00
H895   H     0.63771   0.95331   0.75657   0.00000  Uiso   1.00
H896   H     0.49232   0.86966   0.61226   0.00000  Uiso   1.00
H897   H     0.54850   0.93412   0.64267   0.00000  Uiso   1.00
H898   H     0.64198   0.92324   0.67492   0.00000  Uiso   1.00
H899   H     0.34606   0.84751   0.67685   0.00000  Uiso   1.00
H900   H     0.62427   0.78341   0.64406   0.00000  Uiso   1.00
H901   H     0.48130   0.64162   0.86776   0.00000  Uiso   1.00
H902   H     0.41620   0.58607   0.83026   0.00000  Uiso   1.00
H903   H     0.65500   0.60447   0.81539   0.00000  Uiso   1.00
H904   H     0.62592   0.67807   0.83896   0.00000  Uiso   1.00
H905   H     0.53725   0.52833   0.82385   0.00000  Uiso   1.00
H906   H     0.35797   0.73448   0.87442   0.00000  Uiso   1.00
H907   H     0.41977   0.96981   0.74811   0.00000  Uiso   1.00
H908   H     0.53832   0.61000   0.82328   0.00000  Uiso   1.00
H909   H     0.41702   0.88780   0.74547   0.00000  Uiso   1.00
H910   H     0.46806   0.61110   0.67734   0.00000  Uiso   1.00
H911   H     0.58605   0.88702   0.75658   0.00000  Uiso   1.00
H912   H     0.46067   0.68433   0.53266   0.00000  Uiso   1.00
N913   N     0.50000   0.74999   0.62624   0.00000  Uiso   1.00
N914   N     0.50000   0.75001   0.87377   0.00000  Uiso   1.00
O915   O     0.50000   0.68454   0.78974   0.00000  Uiso   1.00
O916   O     0.50000   0.81547   0.71026   0.00000  Uiso   1.00
O917   O     0.50000   0.68453   0.71026   0.00000  Uiso   1.00
O918   O     0.50000   0.81547   0.78974   0.00000  Uiso   1.00
O919   O     0.42392   0.75000   0.78045   0.00000  Uiso   1.00
O920   O     0.57608   0.75000   0.71956   0.00000  Uiso   1.00
O921   O     0.42392   0.74999   0.70097   0.00000  Uiso   1.00
O922   O     0.57608   0.75001   0.79904   0.00000  Uiso   1.00
Zn923  Zn    0.50000   0.75001   0.80307   0.00000  Uiso   1.00
Zn924  Zn    0.50000   0.75000   0.69693   0.00000  Uiso   1.00
C925   C     0.83373   0.66386   0.75037   0.00000  Uiso   1.00
C926   C     0.79633   0.72543   0.94423   0.00000  Uiso   1.00
C927   C     0.83415   0.74914   0.52673   0.00000  Uiso   1.00
C928   C     0.83462   0.74965   0.97357   0.00000  Uiso   1.00
C929   C     0.73386   0.74930   0.73789   0.00000  Uiso   1.00
C930   C     0.93279   0.75166   0.76201   0.00000  Uiso   1.00
C931   C     0.67900   0.74575   0.73186   0.00000  Uiso   1.00
C932   C     0.98759   0.75688   0.76751   0.00000  Uiso   1.00
C933   C     0.85575   0.54632   0.79172   0.00000  Uiso   1.00
C934   C     0.78955   0.95200   0.74949   0.00000  Uiso   1.00
C935   C     0.85541   0.59250   0.79164   0.00000  Uiso   1.00
C936   C     0.83331   0.83578   0.74968   0.00000  Uiso   1.00
C937   C     0.78789   0.90587   0.74788   0.00000  Uiso   1.00
C938   C     0.83493   0.61569   0.75068   0.00000  Uiso   1.00
C939   C     0.83481   0.88328   0.74961   0.00000  Uiso   1.00
C940   C     0.81678   0.59281   0.70912   0.00000  Uiso   1.00
C941   C     0.88352   0.90582   0.75413   0.00000  Uiso   1.00
C942   C     0.81829   0.54644   0.70836   0.00000  Uiso   1.00
C943   C     0.88574   0.95235   0.75451   0.00000  Uiso   1.00
C944   C     0.83748   0.52341   0.75035   0.00000  Uiso   1.00
C945   C     0.83803   0.97518   0.75186   0.00000  Uiso   1.00
C946   C     0.80044   0.52237   0.66286   0.00000  Uiso   1.00
C947   C     0.81105   0.71359   0.55110   0.00000  Uiso   1.00
C948   C     0.93824   0.97684   0.75633   0.00000  Uiso   1.00
C949   C     0.88688   0.82129   0.62892   0.00000  Uiso   1.00
C950   C     0.86608   0.86437   0.62733   0.00000  Uiso   1.00
C951   C     0.89792   0.90097   0.64405   0.00000  Uiso   1.00
C952   C     0.95064   0.89485   0.66224   0.00000  Uiso   1.00
C953   C     0.97167   0.85215   0.66354   0.00000  Uiso   1.00
C954   C     0.94013   0.81567   0.64610   0.00000  Uiso   1.00
C955   C     0.75845   0.69375   0.86869   0.00000  Uiso   1.00
C956   C     0.77398   0.65070   0.85884   0.00000  Uiso   1.00
C957   C     0.73702   0.61893   0.83864   0.00000  Uiso   1.00
C958   C     0.87258   0.77430   0.95108   0.00000  Uiso   1.00
C959   C     0.68374   0.62919   0.83052   0.00000  Uiso   1.00
C960   C     0.66741   0.67086   0.84347   0.00000  Uiso   1.00
C961   C     0.70454   0.70289   0.86296   0.00000  Uiso   1.00
C962   C     0.81047   0.71498   0.60044   0.00000  Uiso   1.00
C963   C     0.87080   0.77444   0.90141   0.00000  Uiso   1.00
C964   C     0.85696   0.78455   0.60340   0.00000  Uiso   1.00
C965   C     0.79671   0.72485   0.89503   0.00000  Uiso   1.00
C966   C     0.85655   0.78485   0.55406   0.00000  Uiso   1.00
H967   H     0.99255   0.73218   0.69897   0.00000  Uiso   1.00
H968   H     0.90414   0.79303   0.97143   0.00000  Uiso   1.00
H969   H     0.79223   0.68752   0.61815   0.00000  Uiso   1.00
H970   H     0.90012   0.79371   0.88504   0.00000  Uiso   1.00
H971   H     0.87427   0.81331   0.53745   0.00000  Uiso   1.00
H972   H     0.76585   0.70633   0.95922   0.00000  Uiso   1.00
H973   H     0.83265   0.50153   0.65372   0.00000  Uiso   1.00
H974   H     0.76532   0.50067   0.66663   0.00000  Uiso   1.00
H975   H     0.78970   0.54619   0.63298   0.00000  Uiso   1.00
H976   H     0.93821   0.99939   0.72491   0.00000  Uiso   1.00
H977   H     0.94605   0.99690   0.78889   0.00000  Uiso   1.00
H978   H     0.67414   0.77066   0.80022   0.00000  Uiso   1.00
H979   H     0.97105   0.95331   0.75657   0.00000  Uiso   1.00
H980   H     0.82565   0.86966   0.61226   0.00000  Uiso   1.00
H981   H     0.88184   0.93412   0.64267   0.00000  Uiso   1.00
H982   H     0.97531   0.92324   0.67492   0.00000  Uiso   1.00
H983   H     0.67939   0.84751   0.67685   0.00000  Uiso   1.00
H984   H     0.95760   0.78341   0.64406   0.00000  Uiso   1.00
H985   H     0.81464   0.64162   0.86776   0.00000  Uiso   1.00
H986   H     0.74953   0.58607   0.83026   0.00000  Uiso   1.00
H987   H     0.98833   0.60447   0.81539   0.00000  Uiso   1.00
H988   H     0.95925   0.67807   0.83896   0.00000  Uiso   1.00
H989   H     0.87059   0.52833   0.82385   0.00000  Uiso   1.00
H990   H     0.69130   0.73448   0.87442   0.00000  Uiso   1.00
H991   H     0.75310   0.96981   0.74811   0.00000  Uiso   1.00
H992   H     0.87165   0.61000   0.82328   0.00000  Uiso   1.00
H993   H     0.75036   0.88780   0.74547   0.00000  Uiso   1.00
H994   H     0.80139   0.61110   0.67734   0.00000  Uiso   1.00
H995   H     0.91939   0.88702   0.75658   0.00000  Uiso   1.00
H996   H     0.79400   0.68433   0.53266   0.00000  Uiso   1.00
N997   N     0.83333   0.74999   0.62624   0.00000  Uiso   1.00
N998   N     0.83333   0.75001   0.87377   0.00000  Uiso   1.00
O999   O     0.83334   0.68454   0.78974   0.00000  Uiso   1.00
O1000  O     0.83333   0.81547   0.71026   0.00000  Uiso   1.00
O1001  O     0.83334   0.68453   0.71026   0.00000  Uiso   1.00
O1002  O     0.83333   0.81547   0.78974   0.00000  Uiso   1.00
O1003  O     0.75725   0.75000   0.78045   0.00000  Uiso   1.00
O1004  O     0.90942   0.75000   0.71956   0.00000  Uiso   1.00
O1005  O     0.75725   0.74999   0.70097   0.00000  Uiso   1.00
O1006  O     0.90942   0.75001   0.79904   0.00000  Uiso   1.00
Zn1007 Zn    0.83333   0.75001   0.80307   0.00000  Uiso   1.00
Zn1008 Zn    0.83333   0.75000   0.69693   0.00000  Uiso   1.00
loop_
_geom_bond_atom_site_label_1
_geom_bond_atom_site_label_2
_geom_bond_distance
_geom_bond_site_symmetry_2
_ccdc_geom_bond_type
C1     O77     1.289   .     A
C1     O75     1.295   .     A
C1     C14     1.440   .     S
C2     C41     1.406   .     A
C2     H48     1.082   .     S
C2     C4      1.398   .     A
C3     C42     1.399   .     A
C3     C23     1.416   .     A
C3     C508    1.519   1_554 S
C4     C34     1.416   .     A
C4     C507    1.519   .     S
C5     O79     1.282   .     A
C5     C7      1.395   .     S
C5     O81     1.279   .     A
C6     O82     1.281   .     A
C6     C8      1.397   .     S
C6     O80     1.281   .     A
C7     C176    1.321   1_455 S
C7     H211    1.087   1_455 S
C8     C91     1.321   .     S
C8     H138    1.086   .     S
C9     C20     1.397   .     A
C9     C11     1.380   .     A
C9     H65     1.084   .     S
C10    H67     1.084   .     S
C10    C21     1.399   .     A
C10    C13     1.379   .     A
C11    C14     1.396   .     A
C11    H68     1.082   .     S
C12    O78     1.284   .     A
C12    C15     1.418   .     S
C12    O76     1.289   .     A
C13    C15     1.391   .     A
C13    H69     1.084   .     S
C14    C16     1.400   .     A
C15    C17     1.393   .     A
C16    H70     1.084   .     S
C16    C18     1.387   .     A
C17    H71     1.085   .     S
C17    C19     1.389   .     A
C18    C22     1.509   .     S
C18    C20     1.408   .     A
C19    C21     1.410   .     A
C19    C24     1.508   .     S
C20    C273    1.441   1_545 S
C21    C272    1.441   .     S
C22    H50     1.109   .     S
C22    H49     1.109   .     S
C22    H51     1.111   .     S
C23    H72     1.081   .     S
C23    C38     1.412   .     A
C24    H52     1.110   .     S
C24    H55     1.111   .     S
C24    H53     1.109   .     S
C25    C40     1.470   .     S
C25    C30     1.402   .     A
C25    C26     1.404   .     A
C26    C27     1.399   .     A
C26    H56     1.083   .     S
C27    H57     1.081   .     S
C27    C28     1.398   .     A
C28    C29     1.397   .     A
C28    H58     1.082   .     S
C29    C30     1.398   .     A
C29    H143    1.083   .     S
C30    H60     1.080   .     S
C31    C37     1.404   .     A
C31    C32     1.402   .     A
C31    C41     1.474   .     S
C32    H61     1.081   .     S
C32    C33     1.399   .     A
C33    C35     1.397   .     A
C33    H62     1.082   .     S
C34    C39     1.413   .     A
C34    H44     1.081   .     S
C35    C36     1.397   .     A
C35    H231    1.083   1_455 S
C36    C37     1.400   .     A
C36    H232    1.082   1_455 S
C37    H66     1.083   .     S
C38    H45     1.082   .     S
C38    N73     1.364   .     A
C39    N74     1.364   .     A
C39    H46     1.082   .     S
C40    N73     1.377   .     A
C40    C42     1.407   .     A
C41    N74     1.380   .     A
C42    H47     1.082   .     S
H43    C91     1.087   .     S
H54    C176    1.086   1_455 S
H59    C197    1.083   1_455 S
H63    C119    1.083   .     S
H64    C120    1.082   .     S
N73    Zn84    2.018   .     S
N74    Zn83    2.018   .     S
O75    Zn83    2.000   .     S
O76    Zn84    2.000   .     S
O77    Zn84    1.984   .     S
O78    Zn83    1.984   .     S
O79    Zn83    1.972   .     S
O80    Zn84    1.972   .     S
O81    Zn84    1.969   .     S
O82    Zn83    1.969   .     S
C85    O161    1.289   .     A
C85    O159    1.295   .     A
C85    C98     1.440   .     S
C86    C125    1.406   .     A
C86    H132    1.082   .     S
C86    C88     1.398   .     A
C87    C126    1.399   .     A
C87    C107    1.416   .     A
C87    C592    1.519   1_554 S
C88    C118    1.416   .     A
C88    C591    1.519   .     S
C89    O163    1.282   .     A
C89    C91     1.395   .     S
C89    O165    1.279   .     A
C90    O166    1.281   .     A
C90    C92     1.397   .     S
C90    O164    1.281   .     A
C92    C175    1.321   .     S
C92    H222    1.086   .     S
C93    C104    1.397   .     A
C93    C95     1.380   .     A
C93    H149    1.084   .     S
C94    H151    1.084   .     S
C94    C105    1.399   .     A
C94    C97     1.379   .     A
C95    C98     1.396   .     A
C95    H152    1.082   .     S
C96    O162    1.284   .     A
C96    C99     1.418   .     S
C96    O160    1.289   .     A
C97    C99     1.391   .     A
C97    H153    1.084   .     S
C98    C100    1.400   .     A
C99    C101    1.393   .     A
C100   H154    1.084   .     S
C100   C102    1.387   .     A
C101   H155    1.085   .     S
C101   C103    1.389   .     A
C102   C106    1.509   .     S
C102   C104    1.408   .     A
C103   C105    1.410   .     A
C103   C108    1.508   .     S
C104   C357    1.441   1_545 S
C105   C356    1.441   .     S
C106   H134    1.109   .     S
C106   H133    1.109   .     S
C106   H135    1.111   .     S
C107   H156    1.081   .     S
C107   C122    1.412   .     A
C108   H136    1.110   .     S
C108   H139    1.111   .     S
C108   H137    1.109   .     S
C109   C124    1.470   .     S
C109   C114    1.402   .     A
C109   C110    1.404   .     A
C110   C111    1.399   .     A
C110   H140    1.083   .     S
C111   H141    1.081   .     S
C111   C112    1.398   .     A
C112   C113    1.397   .     A
C112   H142    1.082   .     S
C113   C114    1.398   .     A
C113   H227    1.083   .     S
C114   H144    1.080   .     S
C115   C121    1.404   .     A
C115   C116    1.402   .     A
C115   C125    1.474   .     S
C116   H145    1.081   .     S
C116   C117    1.399   .     A
C117   C119    1.397   .     A
C117   H146    1.082   .     S
C118   C123    1.413   .     A
C118   H128    1.081   .     S
C119   C120    1.397   .     A
C120   C121    1.400   .     A
C121   H150    1.083   .     S
C122   H129    1.082   .     S
C122   N157    1.364   .     A
C123   N158    1.364   .     A
C123   H130    1.082   .     S
C124   N157    1.377   .     A
C124   C126    1.407   .     A
C125   N158    1.380   .     A
C126   H131    1.082   .     S
H127   C175    1.087   .     S
H147   C203    1.083   .     S
H148   C204    1.082   .     S
N157   Zn168   2.018   .     S
N158   Zn167   2.018   .     S
O159   Zn167   2.000   .     S
O160   Zn168   2.000   .     S
O161   Zn168   1.984   .     S
O162   Zn167   1.984   .     S
O163   Zn167   1.972   .     S
O164   Zn168   1.972   .     S
O165   Zn168   1.969   .     S
O166   Zn167   1.969   .     S
C169   O245    1.289   .     A
C169   O243    1.295   .     A
C169   C182    1.440   .     S
C170   C209    1.406   .     A
C170   H216    1.082   .     S
C170   C172    1.398   .     A
C171   C210    1.399   .     A
C171   C191    1.416   .     A
C171   C676    1.519   1_554 S
C172   C202    1.416   .     A
C172   C675    1.519   .     S
C173   O247    1.282   .     A
C173   C175    1.395   .     S
C173   O249    1.279   .     A
C174   O250    1.281   .     A
C174   C176    1.397   .     S
C174   O248    1.281   .     A
C176   C7      1.321   1_655 S
C176   H54     1.086   1_655 S
C177   C188    1.397   .     A
C177   C179    1.380   .     A
C177   H233    1.084   .     S
C178   H235    1.084   .     S
C178   C189    1.399   .     A
C178   C181    1.379   .     A
C179   C182    1.396   .     A
C179   H236    1.082   .     S
C180   O246    1.284   .     A
C180   C183    1.418   .     S
C180   O244    1.289   .     A
C181   C183    1.391   .     A
C181   H237    1.084   .     S
C182   C184    1.400   .     A
C183   C185    1.393   .     A
C184   H238    1.084   .     S
C184   C186    1.387   .     A
C185   H239    1.085   .     S
C185   C187    1.389   .     A
C186   C190    1.509   .     S
C186   C188    1.408   .     A
C187   C189    1.410   .     A
C187   C192    1.508   .     S
C188   C441    1.441   1_545 S
C189   C440    1.441   .     S
C190   H218    1.109   .     S
C190   H217    1.109   .     S
C190   H219    1.111   .     S
C191   H240    1.081   .     S
C191   C206    1.412   .     A
C192   H220    1.110   .     S
C192   H223    1.111   .     S
C192   H221    1.109   .     S
C193   C208    1.470   .     S
C193   C198    1.402   .     A
C193   C194    1.404   .     A
C194   C195    1.399   .     A
C194   H224    1.083   .     S
C195   H225    1.081   .     S
C195   C196    1.398   .     A
C196   C197    1.397   .     A
C196   H226    1.082   .     S
C197   C198    1.398   .     A
C197   H59     1.083   1_655 S
C198   H228    1.080   .     S
C199   C205    1.404   .     A
C199   C200    1.402   .     A
C199   C209    1.474   .     S
C200   H229    1.081   .     S
C200   C201    1.399   .     A
C201   C203    1.397   .     A
C201   H230    1.082   .     S
C202   C207    1.413   .     A
C202   H212    1.081   .     S
C203   C204    1.397   .     A
C204   C205    1.400   .     A
C205   H234    1.083   .     S
C206   H213    1.082   .     S
C206   N241    1.364   .     A
C207   N242    1.364   .     A
C207   H214    1.082   .     S
C208   N241    1.377   .     A
C208   C210    1.407   .     A
C209   N242    1.380   .     A
C210   H215    1.082   .     S
H211   C7      1.087   1_655 S
H231   C35     1.083   1_655 S
H232   C36     1.082   1_655 S
N241   Zn252   2.018   .     S
N242   Zn251   2.018   .     S
O243   Zn251   2.000   .     S
O244   Zn252   2.000   .     S
O245   Zn252   1.984   .     S
O246   Zn251   1.984   .     S
O247   Zn251   1.972   .     S
O248   Zn252   1.972   .     S
O249   Zn252   1.969   .     S
O250   Zn251   1.969   .     S
C253   O329    1.289   .     A
C253   O327    1.295   .     A
C253   C266    1.440   .     S
C254   C293    1.406   .     A
C254   H300    1.082   .     S
C254   C256    1.398   .     A
C255   C294    1.399   .     A
C255   C275    1.416   .     A
C255   C760    1.519   1_554 S
C256   C286    1.416   .     A
C256   C759    1.519   .     S
C257   O331    1.282   .     A
C257   C259    1.395   .     S
C257   O333    1.279   .     A
C258   O334    1.281   .     A
C258   C260    1.397   .     S
C258   O332    1.281   .     A
C259   C428    1.321   1_455 S
C259   H463    1.087   1_455 S
C260   C343    1.321   .     S
C260   H390    1.086   .     S
C261   C272    1.397   .     A
C261   C263    1.380   .     A
C261   H317    1.084   .     S
C262   H319    1.084   .     S
C262   C273    1.399   .     A
C262   C265    1.379   .     A
C263   C266    1.396   .     A
C263   H320    1.082   .     S
C264   O330    1.284   .     A
C264   C267    1.418   .     S
C264   O328    1.289   .     A
C265   C267    1.391   .     A
C265   H321    1.084   .     S
C266   C268    1.400   .     A
C267   C269    1.393   .     A
C268   H322    1.084   .     S
C268   C270    1.387   .     A
C269   H323    1.085   .     S
C269   C271    1.389   .     A
C270   C274    1.509   .     S
C270   C272    1.408   .     A
C271   C273    1.410   .     A
C271   C276    1.508   .     S
C273   C20     1.441   1_565 S
C274   H302    1.109   .     S
C274   H301    1.109   .     S
C274   H303    1.111   .     S
C275   H324    1.081   .     S
C275   C290    1.412   .     A
C276   H304    1.110   .     S
C276   H307    1.111   .     S
C276   H305    1.109   .     S
C277   C292    1.470   .     S
C277   C282    1.402   .     A
C277   C278    1.404   .     A
C278   C279    1.399   .     A
C278   H308    1.083   .     S
C279   H309    1.081   .     S
C279   C280    1.398   .     A
C280   C281    1.397   .     A
C280   H310    1.082   .     S
C281   C282    1.398   .     A
C281   H395    1.083   .     S
C282   H312    1.080   .     S
C283   C289    1.404   .     A
C283   C284    1.402   .     A
C283   C293    1.474   .     S
C284   H313    1.081   .     S
C284   C285    1.399   .     A
C285   C287    1.397   .     A
C285   H314    1.082   .     S
C286   C291    1.413   .     A
C286   H296    1.081   .     S
C287   C288    1.397   .     A
C287   H483    1.083   1_455 S
C288   C289    1.400   .     A
C288   H484    1.082   1_455 S
C289   H318    1.083   .     S
C290   H297    1.082   .     S
C290   N325    1.364   .     A
C291   N326    1.364   .     A
C291   H298    1.082   .     S
C292   N325    1.377   .     A
C292   C294    1.407   .     A
C293   N326    1.380   .     A
C294   H299    1.082   .     S
H295   C343    1.087   .     S
H306   C428    1.086   1_455 S
H311   C449    1.083   1_455 S
H315   C371    1.083   .     S
H316   C372    1.082   .     S
N325   Zn336   2.018   .     S
N326   Zn335   2.018   .     S
O327   Zn335   2.000   .     S
O328   Zn336   2.000   .     S
O329   Zn336   1.984   .     S
O330   Zn335   1.984   .     S
O331   Zn335   1.972   .     S
O332   Zn336   1.972   .     S
O333   Zn336   1.969   .     S
O334   Zn335   1.969   .     S
C337   O413    1.289   .     A
C337   O411    1.295   .     A
C337   C350    1.440   .     S
C338   C377    1.406   .     A
C338   H384    1.082   .     S
C338   C340    1.398   .     A
C339   C378    1.399   .     A
C339   C359    1.416   .     A
C339   C844    1.519   1_554 S
C340   C370    1.416   .     A
C340   C843    1.519   .     S
C341   O415    1.282   .     A
C341   C343    1.395   .     S
C341   O417    1.279   .     A
C342   O418    1.281   .     A
C342   C344    1.397   .     S
C342   O416    1.281   .     A
C344   C427    1.321   .     S
C344   H474    1.086   .     S
C345   C356    1.397   .     A
C345   C347    1.380   .     A
C345   H401    1.084   .     S
C346   H403    1.084   .     S
C346   C357    1.399   .     A
C346   C349    1.379   .     A
C347   C350    1.396   .     A
C347   H404    1.082   .     S
C348   O414    1.284   .     A
C348   C351    1.418   .     S
C348   O412    1.289   .     A
C349   C351    1.391   .     A
C349   H405    1.084   .     S
C350   C352    1.400   .     A
C351   C353    1.393   .     A
C352   H406    1.084   .     S
C352   C354    1.387   .     A
C353   H407    1.085   .     S
C353   C355    1.389   .     A
C354   C358    1.509   .     S
C354   C356    1.408   .     A
C355   C357    1.410   .     A
C355   C360    1.508   .     S
C357   C104    1.441   1_565 S
C358   H386    1.109   .     S
C358   H385    1.109   .     S
C358   H387    1.111   .     S
C359   H408    1.081   .     S
C359   C374    1.412   .     A
C360   H388    1.110   .     S
C360   H391    1.111   .     S
C360   H389    1.109   .     S
C361   C376    1.470   .     S
C361   C366    1.402   .     A
C361   C362    1.404   .     A
C362   C363    1.399   .     A
C362   H392    1.083   .     S
C363   H393    1.081   .     S
C363   C364    1.398   .     A
C364   C365    1.397   .     A
C364   H394    1.082   .     S
C365   C366    1.398   .     A
C365   H479    1.083   .     S
C366   H396    1.080   .     S
C367   C373    1.404   .     A
C367   C368    1.402   .     A
C367   C377    1.474   .     S
C368   H397    1.081   .     S
C368   C369    1.399   .     A
C369   C371    1.397   .     A
C369   H398    1.082   .     S
C370   C375    1.413   .     A
C370   H380    1.081   .     S
C371   C372    1.397   .     A
C372   C373    1.400   .     A
C373   H402    1.083   .     S
C374   H381    1.082   .     S
C374   N409    1.364   .     A
C375   N410    1.364   .     A
C375   H382    1.082   .     S
C376   N409    1.377   .     A
C376   C378    1.407   .     A
C377   N410    1.380   .     A
C378   H383    1.082   .     S
H379   C427    1.087   .     S
H399   C455    1.083   .     S
H400   C456    1.082   .     S
N409   Zn420   2.018   .     S
N410   Zn419   2.018   .     S
O411   Zn419   2.000   .     S
O412   Zn420   2.000   .     S
O413   Zn420   1.984   .     S
O414   Zn419   1.984   .     S
O415   Zn419   1.972   .     S
O416   Zn420   1.972   .     S
O417   Zn420   1.969   .     S
O418   Zn419   1.969   .     S
C421   O497    1.289   .     A
C421   O495    1.295   .     A
C421   C434    1.440   .     S
C422   C461    1.406   .     A
C422   H468    1.082   .     S
C422   C424    1.398   .     A
C423   C462    1.399   .     A
C423   C443    1.416   .     A
C423   C928    1.519   1_554 S
C424   C454    1.416   .     A
C424   C927    1.519   .     S
C425   O499    1.282   .     A
C425   C427    1.395   .     S
C425   O501    1.279   .     A
C426   O502    1.281   .     A
C426   C428    1.397   .     S
C426   O500    1.281   .     A
C428   C259    1.321   1_655 S
C428   H306    1.086   1_655 S
C429   C440    1.397   .     A
C429   C431    1.380   .     A
C429   H485    1.084   .     S
C430   H487    1.084   .     S
C430   C441    1.399   .     A
C430   C433    1.379   .     A
C431   C434    1.396   .     A
C431   H488    1.082   .     S
C432   O498    1.284   .     A
C432   C435    1.418   .     S
C432   O496    1.289   .     A
C433   C435    1.391   .     A
C433   H489    1.084   .     S
C434   C436    1.400   .     A
C435   C437    1.393   .     A
C436   H490    1.084   .     S
C436   C438    1.387   .     A
C437   H491    1.085   .     S
C437   C439    1.389   .     A
C438   C442    1.509   .     S
C438   C440    1.408   .     A
C439   C441    1.410   .     A
C439   C444    1.508   .     S
C441   C188    1.441   1_565 S
C442   H470    1.109   .     S
C442   H469    1.109   .     S
C442   H471    1.111   .     S
C443   H492    1.081   .     S
C443   C458    1.412   .     A
C444   H472    1.110   .     S
C444   H475    1.111   .     S
C444   H473    1.109   .     S
C445   C460    1.470   .     S
C445   C450    1.402   .     A
C445   C446    1.404   .     A
C446   C447    1.399   .     A
C446   H476    1.083   .     S
C447   H477    1.081   .     S
C447   C448    1.398   .     A
C448   C449    1.397   .     A
C448   H478    1.082   .     S
C449   C450    1.398   .     A
C449   H311    1.083   1_655 S
C450   H480    1.080   .     S
C451   C457    1.404   .     A
C451   C452    1.402   .     A
C451   C461    1.474   .     S
C452   H481    1.081   .     S
C452   C453    1.399   .     A
C453   C455    1.397   .     A
C453   H482    1.082   .     S
C454   C459    1.413   .     A
C454   H464    1.081   .     S
C455   C456    1.397   .     A
C456   C457    1.400   .     A
C457   H486    1.083   .     S
C458   H465    1.082   .     S
C458   N493    1.364   .     A
C459   N494    1.364   .     A
C459   H466    1.082   .     S
C460   N493    1.377   .     A
C460   C462    1.407   .     A
C461   N494    1.380   .     A
C462   H467    1.082   .     S
H463   C259    1.087   1_655 S
H483   C287    1.083   1_655 S
H484   C288    1.082   1_655 S
N493   Zn504   2.018   .     S
N494   Zn503   2.018   .     S
O495   Zn503   2.000   .     S
O496   Zn504   2.000   .     S
O497   Zn504   1.984   .     S
O498   Zn503   1.984   .     S
O499   Zn503   1.972   .     S
O500   Zn504   1.972   .     S
O501   Zn504   1.969   .     S
O502   Zn503   1.969   .     S
C505   O581    1.289   .     A
C505   O579    1.295   .     A
C505   C518    1.440   .     S
C506   C545    1.406   .     A
C506   H552    1.082   .     S
C506   C508    1.398   .     A
C507   C546    1.399   .     A
C507   C527    1.416   .     A
C508   C538    1.416   .     A
C508   C3      1.519   1_556 S
C509   O583    1.282   .     A
C509   C511    1.395   .     S
C509   O585    1.279   .     A
C510   O586    1.281   .     A
C510   C512    1.397   .     S
C510   O584    1.281   .     A
C511   C680    1.321   1_455 S
C511   H715    1.087   1_455 S
C512   C595    1.321   .     S
C512   H642    1.086   .     S
C513   C524    1.397   .     A
C513   C515    1.380   .     A
C513   H569    1.084   .     S
C514   H571    1.084   .     S
C514   C525    1.399   .     A
C514   C517    1.379   .     A
C515   C518    1.396   .     A
C515   H572    1.082   .     S
C516   O582    1.284   .     A
C516   C519    1.418   .     S
C516   O580    1.289   .     A
C517   C519    1.391   .     A
C517   H573    1.084   .     S
C518   C520    1.400   .     A
C519   C521    1.393   .     A
C520   H574    1.084   .     S
C520   C522    1.387   .     A
C521   H575    1.085   .     S
C521   C523    1.389   .     A
C522   C526    1.509   .     S
C522   C524    1.408   .     A
C523   C525    1.410   .     A
C523   C528    1.508   .     S
C524   C777    1.441   1_545 S
C525   C776    1.441   .     S
C526   H554    1.109   .     S
C526   H553    1.109   .     S
C526   H555    1.111   .     S
C527   H576    1.081   .     S
C527   C542    1.412   .     A
C528   H556    1.110   .     S
C528   H559    1.111   .     S
C528   H557    1.109   .     S
C529   C544    1.470   .     S
C529   C534    1.402   .     A
C529   C530    1.404   .     A
C530   C531    1.399   .     A
C530   H560    1.083   .     S
C531   H561    1.081   .     S
C531   C532    1.398   .     A
C532   C533    1.397   .     A
C532   H562    1.082   .     S
C533   C534    1.398   .     A
C533   H647    1.083   .     S
C534   H564    1.080   .     S
C535   C541    1.404   .     A
C535   C536    1.402   .     A
C535   C545    1.474   .     S
C536   H565    1.081   .     S
C536   C537    1.399   .     A
C537   C539    1.397   .     A
C537   H566    1.082   .     S
C538   C543    1.413   .     A
C538   H548    1.081   .     S
C539   C540    1.397   .     A
C539   H735    1.083   1_455 S
C540   C541    1.400   .     A
C540   H736    1.082   1_455 S
C541   H570    1.083   .     S
C542   H549    1.082   .     S
C542   N577    1.364   .     A
C543   N578    1.364   .     A
C543   H550    1.082   .     S
C544   N577    1.377   .     A
C544   C546    1.407   .     A
C545   N578    1.380   .     A
C546   H551    1.082   .     S
H547   C595    1.087   .     S
H558   C680    1.086   1_455 S
H563   C701    1.083   1_455 S
H567   C623    1.083   .     S
H568   C624    1.082   .     S
N577   Zn588   2.018   .     S
N578   Zn587   2.018   .     S
O579   Zn587   2.000   .     S
O580   Zn588   2.000   .     S
O581   Zn588   1.984   .     S
O582   Zn587   1.984   .     S
O583   Zn587   1.972   .     S
O584   Zn588   1.972   .     S
O585   Zn588   1.969   .     S
O586   Zn587   1.969   .     S
C589   O665    1.289   .     A
C589   O663    1.295   .     A
C589   C602    1.440   .     S
C590   C629    1.406   .     A
C590   H636    1.082   .     S
C590   C592    1.398   .     A
C591   C630    1.399   .     A
C591   C611    1.416   .     A
C592   C622    1.416   .     A
C592   C87     1.519   1_556 S
C593   O667    1.282   .     A
C593   C595    1.395   .     S
C593   O669    1.279   .     A
C594   O670    1.281   .     A
C594   C596    1.397   .     S
C594   O668    1.281   .     A
C596   C679    1.321   .     S
C596   H726    1.086   .     S
C597   C608    1.397   .     A
C597   C599    1.380   .     A
C597   H653    1.084   .     S
C598   H655    1.084   .     S
C598   C609    1.399   .     A
C598   C601    1.379   .     A
C599   C602    1.396   .     A
C599   H656    1.082   .     S
C600   O666    1.284   .     A
C600   C603    1.418   .     S
C600   O664    1.289   .     A
C601   C603    1.391   .     A
C601   H657    1.084   .     S
C602   C604    1.400   .     A
C603   C605    1.393   .     A
C604   H658    1.084   .     S
C604   C606    1.387   .     A
C605   H659    1.085   .     S
C605   C607    1.389   .     A
C606   C610    1.509   .     S
C606   C608    1.408   .     A
C607   C609    1.410   .     A
C607   C612    1.508   .     S
C608   C861    1.441   1_545 S
C609   C860    1.441   .     S
C610   H638    1.109   .     S
C610   H637    1.109   .     S
C610   H639    1.111   .     S
C611   H660    1.081   .     S
C611   C626    1.412   .     A
C612   H640    1.110   .     S
C612   H643    1.111   .     S
C612   H641    1.109   .     S
C613   C628    1.470   .     S
C613   C618    1.402   .     A
C613   C614    1.404   .     A
C614   C615    1.399   .     A
C614   H644    1.083   .     S
C615   H645    1.081   .     S
C615   C616    1.398   .     A
C616   C617    1.397   .     A
C616   H646    1.082   .     S
C617   C618    1.398   .     A
C617   H731    1.083   .     S
C618   H648    1.080   .     S
C619   C625    1.404   .     A
C619   C620    1.402   .     A
C619   C629    1.474   .     S
C620   H649    1.081   .     S
C620   C621    1.399   .     A
C621   C623    1.397   .     A
C621   H650    1.082   .     S
C622   C627    1.413   .     A
C622   H632    1.081   .     S
C623   C624    1.397   .     A
C624   C625    1.400   .     A
C625   H654    1.083   .     S
C626   H633    1.082   .     S
C626   N661    1.364   .     A
C627   N662    1.364   .     A
C627   H634    1.082   .     S
C628   N661    1.377   .     A
C628   C630    1.407   .     A
C629   N662    1.380   .     A
C630   H635    1.082   .     S
H631   C679    1.087   .     S
H651   C707    1.083   .     S
H652   C708    1.082   .     S
N661   Zn672   2.018   .     S
N662   Zn671   2.018   .     S
O663   Zn671   2.000   .     S
O664   Zn672   2.000   .     S
O665   Zn672   1.984   .     S
O666   Zn671   1.984   .     S
O667   Zn671   1.972   .     S
O668   Zn672   1.972   .     S
O669   Zn672   1.969   .     S
O670   Zn671   1.969   .     S
C673   O749    1.289   .     A
C673   O747    1.295   .     A
C673   C686    1.440   .     S
C674   C713    1.406   .     A
C674   H720    1.082   .     S
C674   C676    1.398   .     A
C675   C714    1.399   .     A
C675   C695    1.416   .     A
C676   C706    1.416   .     A
C676   C171    1.519   1_556 S
C677   O751    1.282   .     A
C677   C679    1.395   .     S
C677   O753    1.279   .     A
C678   O754    1.281   .     A
C678   C680    1.397   .     S
C678   O752    1.281   .     A
C680   C511    1.321   1_655 S
C680   H558    1.086   1_655 S
C681   C692    1.397   .     A
C681   C683    1.380   .     A
C681   H737    1.084   .     S
C682   H739    1.084   .     S
C682   C693    1.399   .     A
C682   C685    1.379   .     A
C683   C686    1.396   .     A
C683   H740    1.082   .     S
C684   O750    1.284   .     A
C684   C687    1.418   .     S
C684   O748    1.289   .     A
C685   C687    1.391   .     A
C685   H741    1.084   .     S
C686   C688    1.400   .     A
C687   C689    1.393   .     A
C688   H742    1.084   .     S
C688   C690    1.387   .     A
C689   H743    1.085   .     S
C689   C691    1.389   .     A
C690   C694    1.509   .     S
C690   C692    1.408   .     A
C691   C693    1.410   .     A
C691   C696    1.508   .     S
C692   C945    1.441   1_545 S
C693   C944    1.441   .     S
C694   H722    1.109   .     S
C694   H721    1.109   .     S
C694   H723    1.111   .     S
C695   H744    1.081   .     S
C695   C710    1.412   .     A
C696   H724    1.110   .     S
C696   H727    1.111   .     S
C696   H725    1.109   .     S
C697   C712    1.470   .     S
C697   C702    1.402   .     A
C697   C698    1.404   .     A
C698   C699    1.399   .     A
C698   H728    1.083   .     S
C699   H729    1.081   .     S
C699   C700    1.398   .     A
C700   C701    1.397   .     A
C700   H730    1.082   .     S
C701   C702    1.398   .     A
C701   H563    1.083   1_655 S
C702   H732    1.080   .     S
C703   C709    1.404   .     A
C703   C704    1.402   .     A
C703   C713    1.474   .     S
C704   H733    1.081   .     S
C704   C705    1.399   .     A
C705   C707    1.397   .     A
C705   H734    1.082   .     S
C706   C711    1.413   .     A
C706   H716    1.081   .     S
C707   C708    1.397   .     A
C708   C709    1.400   .     A
C709   H738    1.083   .     S
C710   H717    1.082   .     S
C710   N745    1.364   .     A
C711   N746    1.364   .     A
C711   H718    1.082   .     S
C712   N745    1.377   .     A
C712   C714    1.407   .     A
C713   N746    1.380   .     A
C714   H719    1.082   .     S
H715   C511    1.087   1_655 S
H735   C539    1.083   1_655 S
H736   C540    1.082   1_655 S
N745   Zn756   2.018   .     S
N746   Zn755   2.018   .     S
O747   Zn755   2.000   .     S
O748   Zn756   2.000   .     S
O749   Zn756   1.984   .     S
O750   Zn755   1.984   .     S
O751   Zn755   1.972   .     S
O752   Zn756   1.972   .     S
O753   Zn756   1.969   .     S
O754   Zn755   1.969   .     S
C757   O833    1.289   .     A
C757   O831    1.295   .     A
C757   C770    1.440   .     S
C758   C797    1.406   .     A
C758   H804    1.082   .     S
C758   C760    1.398   .     A
C759   C798    1.399   .     A
C759   C779    1.416   .     A
C760   C790    1.416   .     A
C760   C255    1.519   1_556 S
C761   O835    1.282   .     A
C761   C763    1.395   .     S
C761   O837    1.279   .     A
C762   O838    1.281   .     A
C762   C764    1.397   .     S
C762   O836    1.281   .     A
C763   C932    1.321   1_455 S
C763   H967    1.087   1_455 S
C764   C847    1.321   .     S
C764   H894    1.086   .     S
C765   C776    1.397   .     A
C765   C767    1.380   .     A
C765   H821    1.084   .     S
C766   H823    1.084   .     S
C766   C777    1.399   .     A
C766   C769    1.379   .     A
C767   C770    1.396   .     A
C767   H824    1.082   .     S
C768   O834    1.284   .     A
C768   C771    1.418   .     S
C768   O832    1.289   .     A
C769   C771    1.391   .     A
C769   H825    1.084   .     S
C770   C772    1.400   .     A
C771   C773    1.393   .     A
C772   H826    1.084   .     S
C772   C774    1.387   .     A
C773   H827    1.085   .     S
C773   C775    1.389   .     A
C774   C778    1.509   .     S
C774   C776    1.408   .     A
C775   C777    1.410   .     A
C775   C780    1.508   .     S
C777   C524    1.441   1_565 S
C778   H806    1.109   .     S
C778   H805    1.109   .     S
C778   H807    1.111   .     S
C779   H828    1.081   .     S
C779   C794    1.412   .     A
C780   H808    1.110   .     S
C780   H811    1.111   .     S
C780   H809    1.109   .     S
C781   C796    1.470   .     S
C781   C786    1.402   .     A
C781   C782    1.404   .     A
C782   C783    1.399   .     A
C782   H812    1.083   .     S
C783   H813    1.081   .     S
C783   C784    1.398   .     A
C784   C785    1.397   .     A
C784   H814    1.082   .     S
C785   C786    1.398   .     A
C785   H899    1.083   .     S
C786   H816    1.080   .     S
C787   C793    1.404   .     A
C787   C788    1.402   .     A
C787   C797    1.474   .     S
C788   H817    1.081   .     S
C788   C789    1.399   .     A
C789   C791    1.397   .     A
C789   H818    1.082   .     S
C790   C795    1.413   .     A
C790   H800    1.081   .     S
C791   C792    1.397   .     A
C791   H987    1.083   1_455 S
C792   C793    1.400   .     A
C792   H988    1.082   1_455 S
C793   H822    1.083   .     S
C794   H801    1.082   .     S
C794   N829    1.364   .     A
C795   N830    1.364   .     A
C795   H802    1.082   .     S
C796   N829    1.377   .     A
C796   C798    1.407   .     A
C797   N830    1.380   .     A
C798   H803    1.082   .     S
H799   C847    1.087   .     S
H810   C932    1.086   1_455 S
H815   C953    1.083   1_455 S
H819   C875    1.083   .     S
H820   C876    1.082   .     S
N829   Zn840   2.018   .     S
N830   Zn839   2.018   .     S
O831   Zn839   2.000   .     S
O832   Zn840   2.000   .     S
O833   Zn840   1.984   .     S
O834   Zn839   1.984   .     S
O835   Zn839   1.972   .     S
O836   Zn840   1.972   .     S
O837   Zn840   1.969   .     S
O838   Zn839   1.969   .     S
C841   O917    1.289   .     A
C841   O915    1.295   .     A
C841   C854    1.440   .     S
C842   C881    1.406   .     A
C842   H888    1.082   .     S
C842   C844    1.398   .     A
C843   C882    1.399   .     A
C843   C863    1.416   .     A
C844   C874    1.416   .     A
C844   C339    1.519   1_556 S
C845   O919    1.282   .     A
C845   C847    1.395   .     S
C845   O921    1.279   .     A
C846   O922    1.281   .     A
C846   C848    1.397   .     S
C846   O920    1.281   .     A
C848   C931    1.321   .     S
C848   H978    1.086   .     S
C849   C860    1.397   .     A
C849   C851    1.380   .     A
C849   H905    1.084   .     S
C850   H907    1.084   .     S
C850   C861    1.399   .     A
C850   C853    1.379   .     A
C851   C854    1.396   .     A
C851   H908    1.082   .     S
C852   O918    1.284   .     A
C852   C855    1.418   .     S
C852   O916    1.289   .     A
C853   C855    1.391   .     A
C853   H909    1.084   .     S
C854   C856    1.400   .     A
C855   C857    1.393   .     A
C856   H910    1.084   .     S
C856   C858    1.387   .     A
C857   H911    1.085   .     S
C857   C859    1.389   .     A
C858   C862    1.509   .     S
C858   C860    1.408   .     A
C859   C861    1.410   .     A
C859   C864    1.508   .     S
C861   C608    1.441   1_565 S
C862   H890    1.109   .     S
C862   H889    1.109   .     S
C862   H891    1.111   .     S
C863   H912    1.081   .     S
C863   C878    1.412   .     A
C864   H892    1.110   .     S
C864   H895    1.111   .     S
C864   H893    1.109   .     S
C865   C880    1.470   .     S
C865   C870    1.402   .     A
C865   C866    1.404   .     A
C866   C867    1.399   .     A
C866   H896    1.083   .     S
C867   H897    1.081   .     S
C867   C868    1.398   .     A
C868   C869    1.397   .     A
C868   H898    1.082   .     S
C869   C870    1.398   .     A
C869   H983    1.083   .     S
C870   H900    1.080   .     S
C871   C877    1.404   .     A
C871   C872    1.402   .     A
C871   C881    1.474   .     S
C872   H901    1.081   .     S
C872   C873    1.399   .     A
C873   C875    1.397   .     A
C873   H902    1.082   .     S
C874   C879    1.413   .     A
C874   H884    1.081   .     S
C875   C876    1.397   .     A
C876   C877    1.400   .     A
C877   H906    1.083   .     S
C878   H885    1.082   .     S
C878   N913    1.364   .     A
C879   N914    1.364   .     A
C879   H886    1.082   .     S
C880   N913    1.377   .     A
C880   C882    1.407   .     A
C881   N914    1.380   .     A
C882   H887    1.082   .     S
H883   C931    1.087   .     S
H903   C959    1.083   .     S
H904   C960    1.082   .     S
N913   Zn924   2.018   .     S
N914   Zn923   2.018   .     S
O915   Zn923   2.000   .     S
O916   Zn924   2.000   .     S
O917   Zn924   1.984   .     S
O918   Zn923   1.984   .     S
O919   Zn923   1.972   .     S
O920   Zn924   1.972   .     S
O921   Zn924   1.969   .     S
O922   Zn923   1.969   .     S
C925   O1001   1.289   .     A
C925   O999    1.295   .     A
C925   C938    1.440   .     S
C926   C965    1.406   .     A
C926   H972    1.082   .     S
C926   C928    1.398   .     A
C927   C966    1.399   .     A
C927   C947    1.416   .     A
C928   C958    1.416   .     A
C928   C423    1.519   1_556 S
C929   O1003   1.282   .     A
C929   C931    1.395   .     S
C929   O1005   1.279   .     A
C930   O1006   1.281   .     A
C930   C932    1.397   .     S
C930   O1004   1.281   .     A
C932   C763    1.321   1_655 S
C932   H810    1.086   1_655 S
C933   C944    1.397   .     A
C933   C935    1.380   .     A
C933   H989    1.084   .     S
C934   H991    1.084   .     S
C934   C945    1.399   .     A
C934   C937    1.379   .     A
C935   C938    1.396   .     A
C935   H992    1.082   .     S
C936   O1002   1.284   .     A
C936   C939    1.418   .     S
C936   O1000   1.289   .     A
C937   C939    1.391   .     A
C937   H993    1.084   .     S
C938   C940    1.400   .     A
C939   C941    1.393   .     A
C940   H994    1.084   .     S
C940   C942    1.387   .     A
C941   H995    1.085   .     S
C941   C943    1.389   .     A
C942   C946    1.509   .     S
C942   C944    1.408   .     A
C943   C945    1.410   .     A
C943   C948    1.508   .     S
C945   C692    1.441   1_565 S
C946   H974    1.109   .     S
C946   H973    1.109   .     S
C946   H975    1.111   .     S
C947   H996    1.081   .     S
C947   C962    1.412   .     A
C948   H976    1.110   .     S
C948   H979    1.111   .     S
C948   H977    1.109   .     S
C949   C964    1.470   .     S
C949   C954    1.402   .     A
C949   C950    1.404   .     A
C950   C951    1.399   .     A
C950   H980    1.083   .     S
C951   H981    1.081   .     S
C951   C952    1.398   .     A
C952   C953    1.397   .     A
C952   H982    1.082   .     S
C953   C954    1.398   .     A
C953   H815    1.083   1_655 S
C954   H984    1.080   .     S
C955   C961    1.404   .     A
C955   C956    1.402   .     A
C955   C965    1.474   .     S
C956   H985    1.081   .     S
C956   C957    1.399   .     A
C957   C959    1.397   .     A
C957   H986    1.082   .     S
C958   C963    1.413   .     A
C958   H968    1.081   .     S
C959   C960    1.397   .     A
C960   C961    1.400   .     A
C961   H990    1.083   .     S
C962   H969    1.082   .     S
C962   N997    1.364   .     A
C963   N998    1.364   .     A
C963   H970    1.082   .     S
C964   N997    1.377   .     A
C964   C966    1.407   .     A
C965   N998    1.380   .     A
C966   H971    1.082   .     S
H967   C763    1.087   1_655 S
H987   C791    1.083   1_655 S
H988   C792    1.082   1_655 S
N997   Zn1008  2.018   .     S
N998   Zn1007  2.018   .     S
O999   Zn1007  2.000   .     S
O1000  Zn1008  2.000   .     S
O1001  Zn1008  1.984   .     S
O1002  Zn1007  1.984   .     S
O1003  Zn1007  1.972   .     S
O1004  Zn1008  1.972   .     S
O1005  Zn1008  1.969   .     S
O1006  Zn1007  1.969   .     S
