data_str_m3_o1_o16_pcu_sym.7
_audit_creation_date              2020-01-03
_audit_creation_method            'Materials Studio'
_symmetry_space_group_name_H-M    'P1'
_symmetry_Int_Tables_number       1
_symmetry_cell_setting            triclinic
loop_
_symmetry_equiv_pos_as_xyz
  x,y,z
_cell_length_a                    29.5787
_cell_length_b                    31.9812
_cell_length_c                    26.1390
_cell_angle_alpha                 90.0866
_cell_angle_beta                  69.9280
_cell_angle_gamma                 89.7623
loop_
_atom_site_label
_atom_site_type_symbol
_atom_site_fract_x
_atom_site_fract_y
_atom_site_fract_z
_atom_site_U_iso_or_equiv
_atom_site_adp_type
_atom_site_occupancy
C1     C     0.16640   0.24655   0.25063   0.00000  Uiso   1.00
C2     C     0.12181   0.17192   0.41158   0.00000  Uiso   1.00
C3     C     0.20478   0.31120   0.21509   0.00000  Uiso   1.00
C4     C     0.13985   0.16848   0.35227   0.00000  Uiso   1.00
C5     C     0.20558   0.02098   0.21466   0.00000  Uiso   1.00
C6     C     0.16644   0.04246   0.25137   0.00000  Uiso   1.00
C7     C     0.12665   0.02197   0.28829   0.00000  Uiso   1.00
C8     C     0.12721   0.31161   0.28975   0.00000  Uiso   1.00
C9     C     0.16583   0.29060   0.25176   0.00000  Uiso   1.00
C10    C     0.31922   0.13965   0.21709   0.00000  Uiso   1.00
C11    C     0.03407   0.13973   0.21740   0.00000  Uiso   1.00
C12    C     0.14073   0.17939   0.49428   0.00000  Uiso   1.00
C13    C     0.01401   0.19368   0.28245   0.00000  Uiso   1.00
C14    C     0.29952   0.19373   0.28233   0.00000  Uiso   1.00
C15    C     0.16663   0.08670   0.25029   0.00000  Uiso   1.00
C16    C     0.19351   0.16792   0.14761   0.00000  Uiso   1.00
C17    C     0.25431   0.21786   0.01044   0.00000  Uiso   1.00
C18    C     0.20975   0.17658   0.08920   0.00000  Uiso   1.00
C19    C     0.07756   0.15384   0.44123   0.00000  Uiso   1.00
C20    C     0.06292   0.15162   0.49760   0.00000  Uiso   1.00
C21    C     0.09408   0.16408   0.02500   0.00000  Uiso   1.00
C22    C     0.28636   0.21446   0.08752   0.00000  Uiso   1.00
C23    C     0.15075   0.18927   0.43902   0.00000  Uiso   1.00
C24    C     0.17798   0.18558   0.01602   0.00000  Uiso   1.00
C25    C     0.21851   0.21026   0.48774   0.00000  Uiso   1.00
C26    C     0.22276   0.22684   0.43706   0.00000  Uiso   1.00
C27    C     0.18959   0.21600   0.41256   0.00000  Uiso   1.00
C28    C     0.17745   0.16567   0.06343   0.00000  Uiso   1.00
C29    C     0.24966   0.20227   0.06210   0.00000  Uiso   1.00
H30    H     0.06063   0.11840   0.19144   0.00000  Uiso   1.00
H31    H     0.23410   0.29365   0.18651   0.00000  Uiso   1.00
H32    H     0.26884   0.23293   0.12515   0.00000  Uiso   1.00
H33    H     0.30314   0.18597   0.09747   0.00000  Uiso   1.00
H34    H     0.31556   0.23379   0.05961   0.00000  Uiso   1.00
H35    H     0.26718   0.02266   0.15498   0.00000  Uiso   1.00
H36    H     0.05868   0.02899   0.33030   0.00000  Uiso   1.00
H37    H     0.07826   0.30596   0.36156   0.00000  Uiso   1.00
H38    H     0.00003   0.09531   0.16307   0.00000  Uiso   1.00
H39    H     0.04516   0.15306   0.09563   0.00000  Uiso   1.00
H40    H     0.02414   0.21533   0.30844   0.00000  Uiso   1.00
H41    H     0.27366   0.21561   0.30796   0.00000  Uiso   1.00
H42    H     0.25269   0.24684   0.41542   0.00000  Uiso   1.00
H43    H     0.28498   0.23708   0.48864   0.00000  Uiso   1.00
H44    H     0.15103   0.14199   0.08213   0.00000  Uiso   1.00
H45    H     0.05435   0.14120   0.42078   0.00000  Uiso   1.00
H46    H     0.02758   0.13932   0.01986   0.00000  Uiso   1.00
H47    H     0.19418   0.22920   0.37303   0.00000  Uiso   1.00
N48    N     0.04760   0.16668   0.25002   0.00000  Uiso   1.00
N49    N     0.28573   0.16665   0.25001   0.00000  Uiso   1.00
O50    O     0.12846   0.22775   0.25001   0.00000  Uiso   1.00
O51    O     0.08868   0.04536   0.32213   0.00000  Uiso   1.00
O52    O     0.09228   0.28871   0.32833   0.00000  Uiso   1.00
O53    O     0.30541   0.11295   0.18381   0.00000  Uiso   1.00
O54    O     0.07796   0.16500   0.08125   0.00000  Uiso   1.00
O55    O     0.20490   0.22774   0.25001   0.00000  Uiso   1.00
O56    O     0.10947   0.16666   0.32681   0.00000  Uiso   1.00
O57    O     0.18591   0.16665   0.32681   0.00000  Uiso   1.00
O58    O     0.12843   0.10559   0.24999   0.00000  Uiso   1.00
O59    O     0.20488   0.10558   0.24999   0.00000  Uiso   1.00
O60    O     0.14742   0.16668   0.17319   0.00000  Uiso   1.00
O61    O     0.22387   0.16667   0.17319   0.00000  Uiso   1.00
O62    O     0.24288   0.04276   0.17768   0.00000  Uiso   1.00
Zn63   Zn    0.11562   0.16667   0.25000   0.00000  Uiso   1.00
Zn64   Zn    0.21771   0.16666   0.25000   0.00000  Uiso   1.00
C65    C     0.49973   0.24655   0.25063   0.00000  Uiso   1.00
C66    C     0.45514   0.17192   0.41158   0.00000  Uiso   1.00
C67    C     0.53812   0.31120   0.21509   0.00000  Uiso   1.00
C68    C     0.47318   0.16848   0.35227   0.00000  Uiso   1.00
C69    C     0.53891   0.02098   0.21466   0.00000  Uiso   1.00
C70    C     0.49978   0.04246   0.25137   0.00000  Uiso   1.00
C71    C     0.45999   0.02197   0.28829   0.00000  Uiso   1.00
C72    C     0.46054   0.31161   0.28975   0.00000  Uiso   1.00
C73    C     0.49916   0.29060   0.25176   0.00000  Uiso   1.00
C74    C     0.65256   0.13965   0.21709   0.00000  Uiso   1.00
C75    C     0.36740   0.13973   0.21740   0.00000  Uiso   1.00
C76    C     0.47406   0.17939   0.49428   0.00000  Uiso   1.00
C77    C     0.34734   0.19368   0.28245   0.00000  Uiso   1.00
C78    C     0.63285   0.19373   0.28233   0.00000  Uiso   1.00
C79    C     0.49996   0.08670   0.25029   0.00000  Uiso   1.00
C80    C     0.52684   0.16792   0.14761   0.00000  Uiso   1.00
C81    C     0.58764   0.21786   0.01044   0.00000  Uiso   1.00
C82    C     0.54308   0.17658   0.08920   0.00000  Uiso   1.00
C83    C     0.41089   0.15384   0.44123   0.00000  Uiso   1.00
C84    C     0.39625   0.15162   0.49760   0.00000  Uiso   1.00
C85    C     0.42742   0.16408   0.02500   0.00000  Uiso   1.00
C86    C     0.61969   0.21446   0.08752   0.00000  Uiso   1.00
C87    C     0.48408   0.18927   0.43902   0.00000  Uiso   1.00
C88    C     0.51131   0.18558   0.01602   0.00000  Uiso   1.00
C89    C     0.55184   0.21026   0.48774   0.00000  Uiso   1.00
C90    C     0.55609   0.22684   0.43706   0.00000  Uiso   1.00
C91    C     0.52293   0.21600   0.41256   0.00000  Uiso   1.00
C92    C     0.51078   0.16567   0.06343   0.00000  Uiso   1.00
C93    C     0.58300   0.20227   0.06210   0.00000  Uiso   1.00
H94    H     0.39396   0.11840   0.19144   0.00000  Uiso   1.00
H95    H     0.56744   0.29365   0.18651   0.00000  Uiso   1.00
H96    H     0.60217   0.23293   0.12515   0.00000  Uiso   1.00
H97    H     0.63647   0.18597   0.09747   0.00000  Uiso   1.00
H98    H     0.64889   0.23379   0.05961   0.00000  Uiso   1.00
H99    H     0.60051   0.02266   0.15498   0.00000  Uiso   1.00
H100   H     0.39202   0.02899   0.33030   0.00000  Uiso   1.00
H101   H     0.41159   0.30596   0.36156   0.00000  Uiso   1.00
H102   H     0.33336   0.09531   0.16307   0.00000  Uiso   1.00
H103   H     0.37849   0.15306   0.09563   0.00000  Uiso   1.00
H104   H     0.35747   0.21533   0.30844   0.00000  Uiso   1.00
H105   H     0.60699   0.21561   0.30796   0.00000  Uiso   1.00
H106   H     0.58602   0.24684   0.41542   0.00000  Uiso   1.00
H107   H     0.61831   0.23708   0.48864   0.00000  Uiso   1.00
H108   H     0.48436   0.14199   0.08213   0.00000  Uiso   1.00
H109   H     0.38768   0.14120   0.42078   0.00000  Uiso   1.00
H110   H     0.36091   0.13932   0.01986   0.00000  Uiso   1.00
H111   H     0.52752   0.22920   0.37303   0.00000  Uiso   1.00
N112   N     0.38093   0.16668   0.25002   0.00000  Uiso   1.00
N113   N     0.61906   0.16665   0.25001   0.00000  Uiso   1.00
O114   O     0.46179   0.22775   0.25001   0.00000  Uiso   1.00
O115   O     0.42201   0.04536   0.32213   0.00000  Uiso   1.00
O116   O     0.42561   0.28871   0.32833   0.00000  Uiso   1.00
O117   O     0.63874   0.11295   0.18381   0.00000  Uiso   1.00
O118   O     0.41130   0.16500   0.08125   0.00000  Uiso   1.00
O119   O     0.53823   0.22774   0.25001   0.00000  Uiso   1.00
O120   O     0.44280   0.16666   0.32681   0.00000  Uiso   1.00
O121   O     0.51924   0.16665   0.32681   0.00000  Uiso   1.00
O122   O     0.46177   0.10559   0.24999   0.00000  Uiso   1.00
O123   O     0.53821   0.10558   0.24999   0.00000  Uiso   1.00
O124   O     0.48076   0.16668   0.17319   0.00000  Uiso   1.00
O125   O     0.55720   0.16667   0.17319   0.00000  Uiso   1.00
O126   O     0.57621   0.04276   0.17768   0.00000  Uiso   1.00
Zn127  Zn    0.44896   0.16667   0.25000   0.00000  Uiso   1.00
Zn128  Zn    0.55104   0.16666   0.25000   0.00000  Uiso   1.00
C129   C     0.83307   0.24655   0.25063   0.00000  Uiso   1.00
C130   C     0.78847   0.17192   0.41158   0.00000  Uiso   1.00
C131   C     0.87145   0.31120   0.21509   0.00000  Uiso   1.00
C132   C     0.80652   0.16848   0.35227   0.00000  Uiso   1.00
C133   C     0.87225   0.02098   0.21466   0.00000  Uiso   1.00
C134   C     0.83311   0.04246   0.25137   0.00000  Uiso   1.00
C135   C     0.79332   0.02197   0.28829   0.00000  Uiso   1.00
C136   C     0.79388   0.31161   0.28975   0.00000  Uiso   1.00
C137   C     0.83249   0.29060   0.25176   0.00000  Uiso   1.00
C138   C     0.98589   0.13965   0.21709   0.00000  Uiso   1.00
C139   C     0.70074   0.13973   0.21740   0.00000  Uiso   1.00
C140   C     0.80739   0.17939   0.49428   0.00000  Uiso   1.00
C141   C     0.68068   0.19368   0.28245   0.00000  Uiso   1.00
C142   C     0.96618   0.19373   0.28233   0.00000  Uiso   1.00
C143   C     0.83330   0.08670   0.25029   0.00000  Uiso   1.00
C144   C     0.86017   0.16792   0.14761   0.00000  Uiso   1.00
C145   C     0.92097   0.21786   0.01044   0.00000  Uiso   1.00
C146   C     0.87642   0.17658   0.08920   0.00000  Uiso   1.00
C147   C     0.74422   0.15384   0.44123   0.00000  Uiso   1.00
C148   C     0.72959   0.15162   0.49760   0.00000  Uiso   1.00
C149   C     0.76075   0.16408   0.02500   0.00000  Uiso   1.00
C150   C     0.95302   0.21446   0.08752   0.00000  Uiso   1.00
C151   C     0.81741   0.18927   0.43902   0.00000  Uiso   1.00
C152   C     0.84465   0.18558   0.01602   0.00000  Uiso   1.00
C153   C     0.88517   0.21026   0.48774   0.00000  Uiso   1.00
C154   C     0.88942   0.22684   0.43706   0.00000  Uiso   1.00
C155   C     0.85626   0.21600   0.41256   0.00000  Uiso   1.00
C156   C     0.84411   0.16567   0.06343   0.00000  Uiso   1.00
C157   C     0.91633   0.20227   0.06210   0.00000  Uiso   1.00
H158   H     0.72729   0.11840   0.19144   0.00000  Uiso   1.00
H159   H     0.90077   0.29365   0.18651   0.00000  Uiso   1.00
H160   H     0.93550   0.23293   0.12515   0.00000  Uiso   1.00
H161   H     0.96981   0.18597   0.09747   0.00000  Uiso   1.00
H162   H     0.98223   0.23379   0.05961   0.00000  Uiso   1.00
H163   H     0.93385   0.02266   0.15498   0.00000  Uiso   1.00
H164   H     0.72535   0.02899   0.33030   0.00000  Uiso   1.00
H165   H     0.74493   0.30596   0.36156   0.00000  Uiso   1.00
H166   H     0.66669   0.09531   0.16307   0.00000  Uiso   1.00
H167   H     0.71183   0.15306   0.09563   0.00000  Uiso   1.00
H168   H     0.69080   0.21533   0.30844   0.00000  Uiso   1.00
H169   H     0.94033   0.21561   0.30796   0.00000  Uiso   1.00
H170   H     0.91936   0.24684   0.41542   0.00000  Uiso   1.00
H171   H     0.95164   0.23708   0.48864   0.00000  Uiso   1.00
H172   H     0.81769   0.14199   0.08213   0.00000  Uiso   1.00
H173   H     0.72101   0.14120   0.42078   0.00000  Uiso   1.00
H174   H     0.69424   0.13932   0.01986   0.00000  Uiso   1.00
H175   H     0.86085   0.22920   0.37303   0.00000  Uiso   1.00
N176   N     0.71426   0.16668   0.25002   0.00000  Uiso   1.00
N177   N     0.95239   0.16665   0.25001   0.00000  Uiso   1.00
O178   O     0.79512   0.22775   0.25001   0.00000  Uiso   1.00
O179   O     0.75534   0.04536   0.32213   0.00000  Uiso   1.00
O180   O     0.75895   0.28871   0.32833   0.00000  Uiso   1.00
O181   O     0.97208   0.11295   0.18381   0.00000  Uiso   1.00
O182   O     0.74463   0.16500   0.08125   0.00000  Uiso   1.00
O183   O     0.87157   0.22774   0.25001   0.00000  Uiso   1.00
O184   O     0.77613   0.16666   0.32681   0.00000  Uiso   1.00
O185   O     0.85258   0.16665   0.32681   0.00000  Uiso   1.00
O186   O     0.79510   0.10559   0.24999   0.00000  Uiso   1.00
O187   O     0.87154   0.10558   0.24999   0.00000  Uiso   1.00
O188   O     0.81409   0.16668   0.17319   0.00000  Uiso   1.00
O189   O     0.89053   0.16667   0.17319   0.00000  Uiso   1.00
O190   O     0.90955   0.04276   0.17768   0.00000  Uiso   1.00
Zn191  Zn    0.78229   0.16667   0.25000   0.00000  Uiso   1.00
Zn192  Zn    0.88438   0.16666   0.25000   0.00000  Uiso   1.00
C193   C     0.16640   0.57989   0.25063   0.00000  Uiso   1.00
C194   C     0.12181   0.50525   0.41158   0.00000  Uiso   1.00
C195   C     0.20478   0.64454   0.21509   0.00000  Uiso   1.00
C196   C     0.13985   0.50182   0.35227   0.00000  Uiso   1.00
C197   C     0.20558   0.35432   0.21466   0.00000  Uiso   1.00
C198   C     0.16644   0.37579   0.25137   0.00000  Uiso   1.00
C199   C     0.12665   0.35530   0.28829   0.00000  Uiso   1.00
C200   C     0.12721   0.64494   0.28975   0.00000  Uiso   1.00
C201   C     0.16583   0.62393   0.25176   0.00000  Uiso   1.00
C202   C     0.31922   0.47298   0.21709   0.00000  Uiso   1.00
C203   C     0.03407   0.47306   0.21740   0.00000  Uiso   1.00
C204   C     0.14073   0.51272   0.49428   0.00000  Uiso   1.00
C205   C     0.01401   0.52701   0.28245   0.00000  Uiso   1.00
C206   C     0.29952   0.52706   0.28233   0.00000  Uiso   1.00
C207   C     0.16663   0.42004   0.25029   0.00000  Uiso   1.00
C208   C     0.19351   0.50125   0.14761   0.00000  Uiso   1.00
C209   C     0.25431   0.55120   0.01044   0.00000  Uiso   1.00
C210   C     0.20975   0.50991   0.08920   0.00000  Uiso   1.00
C211   C     0.07756   0.48717   0.44123   0.00000  Uiso   1.00
C212   C     0.06292   0.48495   0.49760   0.00000  Uiso   1.00
C213   C     0.09408   0.49742   0.02500   0.00000  Uiso   1.00
C214   C     0.28636   0.54779   0.08752   0.00000  Uiso   1.00
C215   C     0.15075   0.52261   0.43902   0.00000  Uiso   1.00
C216   C     0.17798   0.51891   0.01602   0.00000  Uiso   1.00
C217   C     0.21851   0.54359   0.48774   0.00000  Uiso   1.00
C218   C     0.22276   0.56017   0.43706   0.00000  Uiso   1.00
C219   C     0.18959   0.54933   0.41256   0.00000  Uiso   1.00
C220   C     0.17745   0.49901   0.06343   0.00000  Uiso   1.00
C221   C     0.24966   0.53560   0.06210   0.00000  Uiso   1.00
H222   H     0.06063   0.45173   0.19144   0.00000  Uiso   1.00
H223   H     0.23410   0.62698   0.18651   0.00000  Uiso   1.00
H224   H     0.26884   0.56626   0.12515   0.00000  Uiso   1.00
H225   H     0.30314   0.51930   0.09747   0.00000  Uiso   1.00
H226   H     0.31556   0.56713   0.05961   0.00000  Uiso   1.00
H227   H     0.26718   0.35599   0.15498   0.00000  Uiso   1.00
H228   H     0.05868   0.36232   0.33030   0.00000  Uiso   1.00
H229   H     0.07826   0.63929   0.36156   0.00000  Uiso   1.00
H230   H     0.00003   0.42865   0.16307   0.00000  Uiso   1.00
H231   H     0.04516   0.48639   0.09563   0.00000  Uiso   1.00
H232   H     0.02414   0.54866   0.30844   0.00000  Uiso   1.00
H233   H     0.27366   0.54895   0.30796   0.00000  Uiso   1.00
H234   H     0.25269   0.58017   0.41542   0.00000  Uiso   1.00
H235   H     0.28498   0.57041   0.48864   0.00000  Uiso   1.00
H236   H     0.15103   0.47533   0.08213   0.00000  Uiso   1.00
H237   H     0.05435   0.47454   0.42078   0.00000  Uiso   1.00
H238   H     0.02758   0.47265   0.01986   0.00000  Uiso   1.00
H239   H     0.19418   0.56253   0.37303   0.00000  Uiso   1.00
N240   N     0.04760   0.50001   0.25002   0.00000  Uiso   1.00
N241   N     0.28573   0.49998   0.25001   0.00000  Uiso   1.00
O242   O     0.12846   0.56108   0.25001   0.00000  Uiso   1.00
O243   O     0.08868   0.37870   0.32213   0.00000  Uiso   1.00
O244   O     0.09228   0.62204   0.32833   0.00000  Uiso   1.00
O245   O     0.30541   0.44629   0.18381   0.00000  Uiso   1.00
O246   O     0.07796   0.49833   0.08125   0.00000  Uiso   1.00
O247   O     0.20490   0.56107   0.25001   0.00000  Uiso   1.00
O248   O     0.10947   0.50000   0.32681   0.00000  Uiso   1.00
O249   O     0.18591   0.49999   0.32681   0.00000  Uiso   1.00
O250   O     0.12843   0.43893   0.24999   0.00000  Uiso   1.00
O251   O     0.20488   0.43892   0.24999   0.00000  Uiso   1.00
O252   O     0.14742   0.50001   0.17319   0.00000  Uiso   1.00
O253   O     0.22387   0.50000   0.17319   0.00000  Uiso   1.00
O254   O     0.24288   0.37609   0.17768   0.00000  Uiso   1.00
Zn255  Zn    0.11562   0.50001   0.25000   0.00000  Uiso   1.00
Zn256  Zn    0.21771   0.49999   0.25000   0.00000  Uiso   1.00
C257   C     0.49973   0.57989   0.25063   0.00000  Uiso   1.00
C258   C     0.45514   0.50525   0.41158   0.00000  Uiso   1.00
C259   C     0.53812   0.64454   0.21509   0.00000  Uiso   1.00
C260   C     0.47318   0.50182   0.35227   0.00000  Uiso   1.00
C261   C     0.53891   0.35432   0.21466   0.00000  Uiso   1.00
C262   C     0.49978   0.37579   0.25137   0.00000  Uiso   1.00
C263   C     0.45999   0.35530   0.28829   0.00000  Uiso   1.00
C264   C     0.46054   0.64494   0.28975   0.00000  Uiso   1.00
C265   C     0.49916   0.62393   0.25176   0.00000  Uiso   1.00
C266   C     0.65256   0.47298   0.21709   0.00000  Uiso   1.00
C267   C     0.36740   0.47306   0.21740   0.00000  Uiso   1.00
C268   C     0.47406   0.51272   0.49428   0.00000  Uiso   1.00
C269   C     0.34734   0.52701   0.28245   0.00000  Uiso   1.00
C270   C     0.63285   0.52706   0.28233   0.00000  Uiso   1.00
C271   C     0.49996   0.42004   0.25029   0.00000  Uiso   1.00
C272   C     0.52684   0.50125   0.14761   0.00000  Uiso   1.00
C273   C     0.58764   0.55120   0.01044   0.00000  Uiso   1.00
C274   C     0.54308   0.50991   0.08920   0.00000  Uiso   1.00
C275   C     0.41089   0.48717   0.44123   0.00000  Uiso   1.00
C276   C     0.39625   0.48495   0.49760   0.00000  Uiso   1.00
C277   C     0.42742   0.49742   0.02500   0.00000  Uiso   1.00
C278   C     0.61969   0.54779   0.08752   0.00000  Uiso   1.00
C279   C     0.48408   0.52261   0.43902   0.00000  Uiso   1.00
C280   C     0.51131   0.51891   0.01602   0.00000  Uiso   1.00
C281   C     0.55184   0.54359   0.48774   0.00000  Uiso   1.00
C282   C     0.55609   0.56017   0.43706   0.00000  Uiso   1.00
C283   C     0.52293   0.54933   0.41256   0.00000  Uiso   1.00
C284   C     0.51078   0.49901   0.06343   0.00000  Uiso   1.00
C285   C     0.58300   0.53560   0.06210   0.00000  Uiso   1.00
H286   H     0.39396   0.45173   0.19144   0.00000  Uiso   1.00
H287   H     0.56744   0.62698   0.18651   0.00000  Uiso   1.00
H288   H     0.60217   0.56626   0.12515   0.00000  Uiso   1.00
H289   H     0.63647   0.51930   0.09747   0.00000  Uiso   1.00
H290   H     0.64889   0.56713   0.05961   0.00000  Uiso   1.00
H291   H     0.60051   0.35599   0.15498   0.00000  Uiso   1.00
H292   H     0.39202   0.36232   0.33030   0.00000  Uiso   1.00
H293   H     0.41159   0.63929   0.36156   0.00000  Uiso   1.00
H294   H     0.33336   0.42865   0.16307   0.00000  Uiso   1.00
H295   H     0.37849   0.48639   0.09563   0.00000  Uiso   1.00
H296   H     0.35747   0.54866   0.30844   0.00000  Uiso   1.00
H297   H     0.60699   0.54895   0.30796   0.00000  Uiso   1.00
H298   H     0.58602   0.58017   0.41542   0.00000  Uiso   1.00
H299   H     0.61831   0.57041   0.48864   0.00000  Uiso   1.00
H300   H     0.48436   0.47533   0.08213   0.00000  Uiso   1.00
H301   H     0.38768   0.47454   0.42078   0.00000  Uiso   1.00
H302   H     0.36091   0.47265   0.01986   0.00000  Uiso   1.00
H303   H     0.52752   0.56253   0.37303   0.00000  Uiso   1.00
N304   N     0.38093   0.50001   0.25002   0.00000  Uiso   1.00
N305   N     0.61906   0.49998   0.25001   0.00000  Uiso   1.00
O306   O     0.46179   0.56108   0.25001   0.00000  Uiso   1.00
O307   O     0.42201   0.37870   0.32213   0.00000  Uiso   1.00
O308   O     0.42561   0.62204   0.32833   0.00000  Uiso   1.00
O309   O     0.63874   0.44629   0.18381   0.00000  Uiso   1.00
O310   O     0.41130   0.49833   0.08125   0.00000  Uiso   1.00
O311   O     0.53823   0.56107   0.25001   0.00000  Uiso   1.00
O312   O     0.44280   0.50000   0.32681   0.00000  Uiso   1.00
O313   O     0.51924   0.49999   0.32681   0.00000  Uiso   1.00
O314   O     0.46177   0.43893   0.24999   0.00000  Uiso   1.00
O315   O     0.53821   0.43892   0.24999   0.00000  Uiso   1.00
O316   O     0.48076   0.50001   0.17319   0.00000  Uiso   1.00
O317   O     0.55720   0.50000   0.17319   0.00000  Uiso   1.00
O318   O     0.57621   0.37609   0.17768   0.00000  Uiso   1.00
Zn319  Zn    0.44896   0.50001   0.25000   0.00000  Uiso   1.00
Zn320  Zn    0.55104   0.49999   0.25000   0.00000  Uiso   1.00
C321   C     0.83307   0.57989   0.25063   0.00000  Uiso   1.00
C322   C     0.78847   0.50525   0.41158   0.00000  Uiso   1.00
C323   C     0.87145   0.64454   0.21509   0.00000  Uiso   1.00
C324   C     0.80652   0.50182   0.35227   0.00000  Uiso   1.00
C325   C     0.87225   0.35432   0.21466   0.00000  Uiso   1.00
C326   C     0.83311   0.37579   0.25137   0.00000  Uiso   1.00
C327   C     0.79332   0.35530   0.28829   0.00000  Uiso   1.00
C328   C     0.79388   0.64494   0.28975   0.00000  Uiso   1.00
C329   C     0.83249   0.62393   0.25176   0.00000  Uiso   1.00
C330   C     0.98589   0.47298   0.21709   0.00000  Uiso   1.00
C331   C     0.70074   0.47306   0.21740   0.00000  Uiso   1.00
C332   C     0.80739   0.51272   0.49428   0.00000  Uiso   1.00
C333   C     0.68068   0.52701   0.28245   0.00000  Uiso   1.00
C334   C     0.96618   0.52706   0.28233   0.00000  Uiso   1.00
C335   C     0.83330   0.42004   0.25029   0.00000  Uiso   1.00
C336   C     0.86017   0.50125   0.14761   0.00000  Uiso   1.00
C337   C     0.92097   0.55120   0.01044   0.00000  Uiso   1.00
C338   C     0.87642   0.50991   0.08920   0.00000  Uiso   1.00
C339   C     0.74422   0.48717   0.44123   0.00000  Uiso   1.00
C340   C     0.72959   0.48495   0.49760   0.00000  Uiso   1.00
C341   C     0.76075   0.49742   0.02500   0.00000  Uiso   1.00
C342   C     0.95302   0.54779   0.08752   0.00000  Uiso   1.00
C343   C     0.81741   0.52261   0.43902   0.00000  Uiso   1.00
C344   C     0.84465   0.51891   0.01602   0.00000  Uiso   1.00
C345   C     0.88517   0.54359   0.48774   0.00000  Uiso   1.00
C346   C     0.88942   0.56017   0.43706   0.00000  Uiso   1.00
C347   C     0.85626   0.54933   0.41256   0.00000  Uiso   1.00
C348   C     0.84411   0.49901   0.06343   0.00000  Uiso   1.00
C349   C     0.91633   0.53560   0.06210   0.00000  Uiso   1.00
H350   H     0.72729   0.45173   0.19144   0.00000  Uiso   1.00
H351   H     0.90077   0.62698   0.18651   0.00000  Uiso   1.00
H352   H     0.93550   0.56626   0.12515   0.00000  Uiso   1.00
H353   H     0.96981   0.51930   0.09747   0.00000  Uiso   1.00
H354   H     0.98223   0.56713   0.05961   0.00000  Uiso   1.00
H355   H     0.93385   0.35599   0.15498   0.00000  Uiso   1.00
H356   H     0.72535   0.36232   0.33030   0.00000  Uiso   1.00
H357   H     0.74493   0.63929   0.36156   0.00000  Uiso   1.00
H358   H     0.66669   0.42865   0.16307   0.00000  Uiso   1.00
H359   H     0.71183   0.48639   0.09563   0.00000  Uiso   1.00
H360   H     0.69080   0.54866   0.30844   0.00000  Uiso   1.00
H361   H     0.94033   0.54895   0.30796   0.00000  Uiso   1.00
H362   H     0.91936   0.58017   0.41542   0.00000  Uiso   1.00
H363   H     0.95164   0.57041   0.48864   0.00000  Uiso   1.00
H364   H     0.81769   0.47533   0.08213   0.00000  Uiso   1.00
H365   H     0.72101   0.47454   0.42078   0.00000  Uiso   1.00
H366   H     0.69424   0.47265   0.01986   0.00000  Uiso   1.00
H367   H     0.86085   0.56253   0.37303   0.00000  Uiso   1.00
N368   N     0.71426   0.50001   0.25002   0.00000  Uiso   1.00
N369   N     0.95239   0.49998   0.25001   0.00000  Uiso   1.00
O370   O     0.79512   0.56108   0.25001   0.00000  Uiso   1.00
O371   O     0.75534   0.37870   0.32213   0.00000  Uiso   1.00
O372   O     0.75895   0.62204   0.32833   0.00000  Uiso   1.00
O373   O     0.97208   0.44629   0.18381   0.00000  Uiso   1.00
O374   O     0.74463   0.49833   0.08125   0.00000  Uiso   1.00
O375   O     0.87157   0.56107   0.25001   0.00000  Uiso   1.00
O376   O     0.77613   0.50000   0.32681   0.00000  Uiso   1.00
O377   O     0.85258   0.49999   0.32681   0.00000  Uiso   1.00
O378   O     0.79510   0.43893   0.24999   0.00000  Uiso   1.00
O379   O     0.87154   0.43892   0.24999   0.00000  Uiso   1.00
O380   O     0.81409   0.50001   0.17319   0.00000  Uiso   1.00
O381   O     0.89053   0.50000   0.17319   0.00000  Uiso   1.00
O382   O     0.90955   0.37609   0.17768   0.00000  Uiso   1.00
Zn383  Zn    0.78229   0.50001   0.25000   0.00000  Uiso   1.00
Zn384  Zn    0.88438   0.49999   0.25000   0.00000  Uiso   1.00
C385   C     0.16640   0.91322   0.25063   0.00000  Uiso   1.00
C386   C     0.12181   0.83859   0.41158   0.00000  Uiso   1.00
C387   C     0.20478   0.97787   0.21509   0.00000  Uiso   1.00
C388   C     0.13985   0.83515   0.35227   0.00000  Uiso   1.00
C389   C     0.20558   0.68765   0.21466   0.00000  Uiso   1.00
C390   C     0.16644   0.70912   0.25137   0.00000  Uiso   1.00
C391   C     0.12665   0.68864   0.28829   0.00000  Uiso   1.00
C392   C     0.12721   0.97828   0.28975   0.00000  Uiso   1.00
C393   C     0.16583   0.95727   0.25176   0.00000  Uiso   1.00
C394   C     0.31922   0.80631   0.21709   0.00000  Uiso   1.00
C395   C     0.03407   0.80639   0.21740   0.00000  Uiso   1.00
C396   C     0.14073   0.84605   0.49428   0.00000  Uiso   1.00
C397   C     0.01401   0.86034   0.28245   0.00000  Uiso   1.00
C398   C     0.29952   0.86040   0.28233   0.00000  Uiso   1.00
C399   C     0.16663   0.75337   0.25029   0.00000  Uiso   1.00
C400   C     0.19351   0.83458   0.14761   0.00000  Uiso   1.00
C401   C     0.25431   0.88453   0.01044   0.00000  Uiso   1.00
C402   C     0.20975   0.84324   0.08920   0.00000  Uiso   1.00
C403   C     0.07756   0.82050   0.44123   0.00000  Uiso   1.00
C404   C     0.06292   0.81829   0.49760   0.00000  Uiso   1.00
C405   C     0.09408   0.83075   0.02500   0.00000  Uiso   1.00
C406   C     0.28636   0.88113   0.08752   0.00000  Uiso   1.00
C407   C     0.15075   0.85594   0.43902   0.00000  Uiso   1.00
C408   C     0.17798   0.85225   0.01602   0.00000  Uiso   1.00
C409   C     0.21851   0.87693   0.48774   0.00000  Uiso   1.00
C410   C     0.22276   0.89350   0.43706   0.00000  Uiso   1.00
C411   C     0.18959   0.88267   0.41256   0.00000  Uiso   1.00
C412   C     0.17745   0.83234   0.06343   0.00000  Uiso   1.00
C413   C     0.24966   0.86894   0.06210   0.00000  Uiso   1.00
H414   H     0.06063   0.78506   0.19144   0.00000  Uiso   1.00
H415   H     0.23410   0.96031   0.18651   0.00000  Uiso   1.00
H416   H     0.26884   0.89960   0.12515   0.00000  Uiso   1.00
H417   H     0.30314   0.85264   0.09747   0.00000  Uiso   1.00
H418   H     0.31556   0.90046   0.05961   0.00000  Uiso   1.00
H419   H     0.26718   0.68933   0.15498   0.00000  Uiso   1.00
H420   H     0.05868   0.69566   0.33030   0.00000  Uiso   1.00
H421   H     0.07826   0.97263   0.36156   0.00000  Uiso   1.00
H422   H     0.00003   0.76198   0.16307   0.00000  Uiso   1.00
H423   H     0.04516   0.81973   0.09563   0.00000  Uiso   1.00
H424   H     0.02414   0.88199   0.30844   0.00000  Uiso   1.00
H425   H     0.27366   0.88228   0.30796   0.00000  Uiso   1.00
H426   H     0.25269   0.91350   0.41542   0.00000  Uiso   1.00
H427   H     0.28498   0.90375   0.48864   0.00000  Uiso   1.00
H428   H     0.15103   0.80866   0.08213   0.00000  Uiso   1.00
H429   H     0.05435   0.80787   0.42078   0.00000  Uiso   1.00
H430   H     0.02758   0.80598   0.01986   0.00000  Uiso   1.00
H431   H     0.19418   0.89586   0.37303   0.00000  Uiso   1.00
N432   N     0.04760   0.83334   0.25002   0.00000  Uiso   1.00
N433   N     0.28573   0.83331   0.25001   0.00000  Uiso   1.00
O434   O     0.12846   0.89442   0.25001   0.00000  Uiso   1.00
O435   O     0.08868   0.71203   0.32213   0.00000  Uiso   1.00
O436   O     0.09228   0.95538   0.32833   0.00000  Uiso   1.00
O437   O     0.30541   0.77962   0.18381   0.00000  Uiso   1.00
O438   O     0.07796   0.83166   0.08125   0.00000  Uiso   1.00
O439   O     0.20490   0.89441   0.25001   0.00000  Uiso   1.00
O440   O     0.10947   0.83333   0.32681   0.00000  Uiso   1.00
O441   O     0.18591   0.83332   0.32681   0.00000  Uiso   1.00
O442   O     0.12843   0.77226   0.24999   0.00000  Uiso   1.00
O443   O     0.20488   0.77225   0.24999   0.00000  Uiso   1.00
O444   O     0.14742   0.83335   0.17319   0.00000  Uiso   1.00
O445   O     0.22387   0.83334   0.17319   0.00000  Uiso   1.00
O446   O     0.24288   0.70942   0.17768   0.00000  Uiso   1.00
Zn447  Zn    0.11562   0.83334   0.25000   0.00000  Uiso   1.00
Zn448  Zn    0.21771   0.83333   0.25000   0.00000  Uiso   1.00
C449   C     0.49973   0.91322   0.25063   0.00000  Uiso   1.00
C450   C     0.45514   0.83859   0.41158   0.00000  Uiso   1.00
C451   C     0.53812   0.97787   0.21509   0.00000  Uiso   1.00
C452   C     0.47318   0.83515   0.35227   0.00000  Uiso   1.00
C453   C     0.53891   0.68765   0.21466   0.00000  Uiso   1.00
C454   C     0.49978   0.70912   0.25137   0.00000  Uiso   1.00
C455   C     0.45999   0.68864   0.28829   0.00000  Uiso   1.00
C456   C     0.46054   0.97828   0.28975   0.00000  Uiso   1.00
C457   C     0.49916   0.95727   0.25176   0.00000  Uiso   1.00
C458   C     0.65256   0.80631   0.21709   0.00000  Uiso   1.00
C459   C     0.36740   0.80639   0.21740   0.00000  Uiso   1.00
C460   C     0.47406   0.84605   0.49428   0.00000  Uiso   1.00
C461   C     0.34734   0.86034   0.28245   0.00000  Uiso   1.00
C462   C     0.63285   0.86040   0.28233   0.00000  Uiso   1.00
C463   C     0.49996   0.75337   0.25029   0.00000  Uiso   1.00
C464   C     0.52684   0.83458   0.14761   0.00000  Uiso   1.00
C465   C     0.58764   0.88453   0.01044   0.00000  Uiso   1.00
C466   C     0.54308   0.84324   0.08920   0.00000  Uiso   1.00
C467   C     0.41089   0.82050   0.44123   0.00000  Uiso   1.00
C468   C     0.39625   0.81829   0.49760   0.00000  Uiso   1.00
C469   C     0.42742   0.83075   0.02500   0.00000  Uiso   1.00
C470   C     0.61969   0.88113   0.08752   0.00000  Uiso   1.00
C471   C     0.48408   0.85594   0.43902   0.00000  Uiso   1.00
C472   C     0.51131   0.85225   0.01602   0.00000  Uiso   1.00
C473   C     0.55184   0.87693   0.48774   0.00000  Uiso   1.00
C474   C     0.55609   0.89350   0.43706   0.00000  Uiso   1.00
C475   C     0.52293   0.88267   0.41256   0.00000  Uiso   1.00
C476   C     0.51078   0.83234   0.06343   0.00000  Uiso   1.00
C477   C     0.58300   0.86894   0.06210   0.00000  Uiso   1.00
H478   H     0.39396   0.78506   0.19144   0.00000  Uiso   1.00
H479   H     0.56744   0.96031   0.18651   0.00000  Uiso   1.00
H480   H     0.60217   0.89960   0.12515   0.00000  Uiso   1.00
H481   H     0.63647   0.85264   0.09747   0.00000  Uiso   1.00
H482   H     0.64889   0.90046   0.05961   0.00000  Uiso   1.00
H483   H     0.60051   0.68933   0.15498   0.00000  Uiso   1.00
H484   H     0.39202   0.69566   0.33030   0.00000  Uiso   1.00
H485   H     0.41159   0.97263   0.36156   0.00000  Uiso   1.00
H486   H     0.33336   0.76198   0.16307   0.00000  Uiso   1.00
H487   H     0.37849   0.81973   0.09563   0.00000  Uiso   1.00
H488   H     0.35747   0.88199   0.30844   0.00000  Uiso   1.00
H489   H     0.60699   0.88228   0.30796   0.00000  Uiso   1.00
H490   H     0.58602   0.91350   0.41542   0.00000  Uiso   1.00
H491   H     0.61831   0.90375   0.48864   0.00000  Uiso   1.00
H492   H     0.48436   0.80866   0.08213   0.00000  Uiso   1.00
H493   H     0.38768   0.80787   0.42078   0.00000  Uiso   1.00
H494   H     0.36091   0.80598   0.01986   0.00000  Uiso   1.00
H495   H     0.52752   0.89586   0.37303   0.00000  Uiso   1.00
N496   N     0.38093   0.83334   0.25002   0.00000  Uiso   1.00
N497   N     0.61906   0.83331   0.25001   0.00000  Uiso   1.00
O498   O     0.46179   0.89442   0.25001   0.00000  Uiso   1.00
O499   O     0.42201   0.71203   0.32213   0.00000  Uiso   1.00
O500   O     0.42561   0.95538   0.32833   0.00000  Uiso   1.00
O501   O     0.63874   0.77962   0.18381   0.00000  Uiso   1.00
O502   O     0.41130   0.83166   0.08125   0.00000  Uiso   1.00
O503   O     0.53823   0.89441   0.25001   0.00000  Uiso   1.00
O504   O     0.44280   0.83333   0.32681   0.00000  Uiso   1.00
O505   O     0.51924   0.83332   0.32681   0.00000  Uiso   1.00
O506   O     0.46177   0.77226   0.24999   0.00000  Uiso   1.00
O507   O     0.53821   0.77225   0.24999   0.00000  Uiso   1.00
O508   O     0.48076   0.83335   0.17319   0.00000  Uiso   1.00
O509   O     0.55720   0.83334   0.17319   0.00000  Uiso   1.00
O510   O     0.57621   0.70942   0.17768   0.00000  Uiso   1.00
Zn511  Zn    0.44896   0.83334   0.25000   0.00000  Uiso   1.00
Zn512  Zn    0.55104   0.83333   0.25000   0.00000  Uiso   1.00
C513   C     0.83307   0.91322   0.25063   0.00000  Uiso   1.00
C514   C     0.78847   0.83859   0.41158   0.00000  Uiso   1.00
C515   C     0.87145   0.97787   0.21509   0.00000  Uiso   1.00
C516   C     0.80652   0.83515   0.35227   0.00000  Uiso   1.00
C517   C     0.87225   0.68765   0.21466   0.00000  Uiso   1.00
C518   C     0.83311   0.70912   0.25137   0.00000  Uiso   1.00
C519   C     0.79332   0.68864   0.28829   0.00000  Uiso   1.00
C520   C     0.79388   0.97828   0.28975   0.00000  Uiso   1.00
C521   C     0.83249   0.95727   0.25176   0.00000  Uiso   1.00
C522   C     0.98589   0.80631   0.21709   0.00000  Uiso   1.00
C523   C     0.70074   0.80639   0.21740   0.00000  Uiso   1.00
C524   C     0.80739   0.84605   0.49428   0.00000  Uiso   1.00
C525   C     0.68068   0.86034   0.28245   0.00000  Uiso   1.00
C526   C     0.96618   0.86040   0.28233   0.00000  Uiso   1.00
C527   C     0.83330   0.75337   0.25029   0.00000  Uiso   1.00
C528   C     0.86017   0.83458   0.14761   0.00000  Uiso   1.00
C529   C     0.92097   0.88453   0.01044   0.00000  Uiso   1.00
C530   C     0.87642   0.84324   0.08920   0.00000  Uiso   1.00
C531   C     0.74422   0.82050   0.44123   0.00000  Uiso   1.00
C532   C     0.72959   0.81829   0.49760   0.00000  Uiso   1.00
C533   C     0.76075   0.83075   0.02500   0.00000  Uiso   1.00
C534   C     0.95302   0.88113   0.08752   0.00000  Uiso   1.00
C535   C     0.81741   0.85594   0.43902   0.00000  Uiso   1.00
C536   C     0.84465   0.85225   0.01602   0.00000  Uiso   1.00
C537   C     0.88517   0.87693   0.48774   0.00000  Uiso   1.00
C538   C     0.88942   0.89350   0.43706   0.00000  Uiso   1.00
C539   C     0.85626   0.88267   0.41256   0.00000  Uiso   1.00
C540   C     0.84411   0.83234   0.06343   0.00000  Uiso   1.00
C541   C     0.91633   0.86894   0.06210   0.00000  Uiso   1.00
H542   H     0.72729   0.78506   0.19144   0.00000  Uiso   1.00
H543   H     0.90077   0.96031   0.18651   0.00000  Uiso   1.00
H544   H     0.93550   0.89960   0.12515   0.00000  Uiso   1.00
H545   H     0.96981   0.85264   0.09747   0.00000  Uiso   1.00
H546   H     0.98223   0.90046   0.05961   0.00000  Uiso   1.00
H547   H     0.93385   0.68933   0.15498   0.00000  Uiso   1.00
H548   H     0.72535   0.69566   0.33030   0.00000  Uiso   1.00
H549   H     0.74493   0.97263   0.36156   0.00000  Uiso   1.00
H550   H     0.66669   0.76198   0.16307   0.00000  Uiso   1.00
H551   H     0.71183   0.81973   0.09563   0.00000  Uiso   1.00
H552   H     0.69080   0.88199   0.30844   0.00000  Uiso   1.00
H553   H     0.94033   0.88228   0.30796   0.00000  Uiso   1.00
H554   H     0.91936   0.91350   0.41542   0.00000  Uiso   1.00
H555   H     0.95164   0.90375   0.48864   0.00000  Uiso   1.00
H556   H     0.81769   0.80866   0.08213   0.00000  Uiso   1.00
H557   H     0.72101   0.80787   0.42078   0.00000  Uiso   1.00
H558   H     0.69424   0.80598   0.01986   0.00000  Uiso   1.00
H559   H     0.86085   0.89586   0.37303   0.00000  Uiso   1.00
N560   N     0.71426   0.83334   0.25002   0.00000  Uiso   1.00
N561   N     0.95239   0.83331   0.25001   0.00000  Uiso   1.00
O562   O     0.79512   0.89442   0.25001   0.00000  Uiso   1.00
O563   O     0.75534   0.71203   0.32213   0.00000  Uiso   1.00
O564   O     0.75895   0.95538   0.32833   0.00000  Uiso   1.00
O565   O     0.97208   0.77962   0.18381   0.00000  Uiso   1.00
O566   O     0.74463   0.83166   0.08125   0.00000  Uiso   1.00
O567   O     0.87157   0.89441   0.25001   0.00000  Uiso   1.00
O568   O     0.77613   0.83333   0.32681   0.00000  Uiso   1.00
O569   O     0.85258   0.83332   0.32681   0.00000  Uiso   1.00
O570   O     0.79510   0.77226   0.24999   0.00000  Uiso   1.00
O571   O     0.87154   0.77225   0.24999   0.00000  Uiso   1.00
O572   O     0.81409   0.83335   0.17319   0.00000  Uiso   1.00
O573   O     0.89053   0.83334   0.17319   0.00000  Uiso   1.00
O574   O     0.90955   0.70942   0.17768   0.00000  Uiso   1.00
Zn575  Zn    0.78229   0.83334   0.25000   0.00000  Uiso   1.00
Zn576  Zn    0.88438   0.83333   0.25000   0.00000  Uiso   1.00
C577   C     0.16640   0.24655   0.75063   0.00000  Uiso   1.00
C578   C     0.12181   0.17192   0.91158   0.00000  Uiso   1.00
C579   C     0.20478   0.31120   0.71509   0.00000  Uiso   1.00
C580   C     0.13985   0.16848   0.85227   0.00000  Uiso   1.00
C581   C     0.20558   0.02098   0.71466   0.00000  Uiso   1.00
C582   C     0.16644   0.04246   0.75137   0.00000  Uiso   1.00
C583   C     0.12665   0.02197   0.78829   0.00000  Uiso   1.00
C584   C     0.12721   0.31161   0.78975   0.00000  Uiso   1.00
C585   C     0.16583   0.29060   0.75176   0.00000  Uiso   1.00
C586   C     0.31922   0.13965   0.71709   0.00000  Uiso   1.00
C587   C     0.03407   0.13973   0.71740   0.00000  Uiso   1.00
C588   C     0.14073   0.17939   0.99428   0.00000  Uiso   1.00
C589   C     0.01401   0.19368   0.78245   0.00000  Uiso   1.00
C590   C     0.29952   0.19373   0.78233   0.00000  Uiso   1.00
C591   C     0.16663   0.08670   0.75029   0.00000  Uiso   1.00
C592   C     0.19351   0.16792   0.64761   0.00000  Uiso   1.00
C593   C     0.25431   0.21786   0.51044   0.00000  Uiso   1.00
C594   C     0.20975   0.17658   0.58920   0.00000  Uiso   1.00
C595   C     0.07756   0.15384   0.94123   0.00000  Uiso   1.00
C596   C     0.06292   0.15162   0.99760   0.00000  Uiso   1.00
C597   C     0.09408   0.16408   0.52500   0.00000  Uiso   1.00
C598   C     0.28636   0.21446   0.58752   0.00000  Uiso   1.00
C599   C     0.15075   0.18927   0.93902   0.00000  Uiso   1.00
C600   C     0.17798   0.18558   0.51602   0.00000  Uiso   1.00
C601   C     0.21851   0.21026   0.98774   0.00000  Uiso   1.00
C602   C     0.22276   0.22684   0.93706   0.00000  Uiso   1.00
C603   C     0.18959   0.21600   0.91256   0.00000  Uiso   1.00
C604   C     0.17745   0.16567   0.56343   0.00000  Uiso   1.00
C605   C     0.24966   0.20227   0.56210   0.00000  Uiso   1.00
H606   H     0.06063   0.11840   0.69144   0.00000  Uiso   1.00
H607   H     0.23410   0.29365   0.68651   0.00000  Uiso   1.00
H608   H     0.26884   0.23293   0.62515   0.00000  Uiso   1.00
H609   H     0.30314   0.18597   0.59747   0.00000  Uiso   1.00
H610   H     0.31556   0.23379   0.55961   0.00000  Uiso   1.00
H611   H     0.26718   0.02266   0.65498   0.00000  Uiso   1.00
H612   H     0.05868   0.02899   0.83030   0.00000  Uiso   1.00
H613   H     0.07826   0.30596   0.86156   0.00000  Uiso   1.00
H614   H     0.00003   0.09531   0.66307   0.00000  Uiso   1.00
H615   H     0.04516   0.15306   0.59563   0.00000  Uiso   1.00
H616   H     0.02414   0.21533   0.80844   0.00000  Uiso   1.00
H617   H     0.27366   0.21561   0.80796   0.00000  Uiso   1.00
H618   H     0.25269   0.24684   0.91542   0.00000  Uiso   1.00
H619   H     0.28498   0.23708   0.98864   0.00000  Uiso   1.00
H620   H     0.15103   0.14199   0.58213   0.00000  Uiso   1.00
H621   H     0.05435   0.14120   0.92078   0.00000  Uiso   1.00
H622   H     0.02758   0.13932   0.51986   0.00000  Uiso   1.00
H623   H     0.19418   0.22920   0.87303   0.00000  Uiso   1.00
N624   N     0.04760   0.16668   0.75002   0.00000  Uiso   1.00
N625   N     0.28573   0.16665   0.75001   0.00000  Uiso   1.00
O626   O     0.12846   0.22775   0.75001   0.00000  Uiso   1.00
O627   O     0.08868   0.04536   0.82213   0.00000  Uiso   1.00
O628   O     0.09228   0.28871   0.82833   0.00000  Uiso   1.00
O629   O     0.30541   0.11295   0.68381   0.00000  Uiso   1.00
O630   O     0.07796   0.16500   0.58125   0.00000  Uiso   1.00
O631   O     0.20490   0.22774   0.75001   0.00000  Uiso   1.00
O632   O     0.10947   0.16666   0.82681   0.00000  Uiso   1.00
O633   O     0.18591   0.16665   0.82681   0.00000  Uiso   1.00
O634   O     0.12843   0.10559   0.74999   0.00000  Uiso   1.00
O635   O     0.20488   0.10558   0.74999   0.00000  Uiso   1.00
O636   O     0.14742   0.16668   0.67319   0.00000  Uiso   1.00
O637   O     0.22387   0.16667   0.67319   0.00000  Uiso   1.00
O638   O     0.24288   0.04276   0.67768   0.00000  Uiso   1.00
Zn639  Zn    0.11562   0.16667   0.75000   0.00000  Uiso   1.00
Zn640  Zn    0.21771   0.16666   0.75000   0.00000  Uiso   1.00
C641   C     0.49973   0.24655   0.75063   0.00000  Uiso   1.00
C642   C     0.45514   0.17192   0.91158   0.00000  Uiso   1.00
C643   C     0.53812   0.31120   0.71509   0.00000  Uiso   1.00
C644   C     0.47318   0.16848   0.85227   0.00000  Uiso   1.00
C645   C     0.53891   0.02098   0.71466   0.00000  Uiso   1.00
C646   C     0.49978   0.04246   0.75137   0.00000  Uiso   1.00
C647   C     0.45999   0.02197   0.78829   0.00000  Uiso   1.00
C648   C     0.46054   0.31161   0.78975   0.00000  Uiso   1.00
C649   C     0.49916   0.29060   0.75176   0.00000  Uiso   1.00
C650   C     0.65256   0.13965   0.71709   0.00000  Uiso   1.00
C651   C     0.36740   0.13973   0.71740   0.00000  Uiso   1.00
C652   C     0.47406   0.17939   0.99428   0.00000  Uiso   1.00
C653   C     0.34734   0.19368   0.78245   0.00000  Uiso   1.00
C654   C     0.63285   0.19373   0.78233   0.00000  Uiso   1.00
C655   C     0.49996   0.08670   0.75029   0.00000  Uiso   1.00
C656   C     0.52684   0.16792   0.64761   0.00000  Uiso   1.00
C657   C     0.58764   0.21786   0.51044   0.00000  Uiso   1.00
C658   C     0.54308   0.17658   0.58920   0.00000  Uiso   1.00
C659   C     0.41089   0.15384   0.94123   0.00000  Uiso   1.00
C660   C     0.39625   0.15162   0.99760   0.00000  Uiso   1.00
C661   C     0.42742   0.16408   0.52500   0.00000  Uiso   1.00
C662   C     0.61969   0.21446   0.58752   0.00000  Uiso   1.00
C663   C     0.48408   0.18927   0.93902   0.00000  Uiso   1.00
C664   C     0.51131   0.18558   0.51602   0.00000  Uiso   1.00
C665   C     0.55184   0.21026   0.98774   0.00000  Uiso   1.00
C666   C     0.55609   0.22684   0.93706   0.00000  Uiso   1.00
C667   C     0.52293   0.21600   0.91256   0.00000  Uiso   1.00
C668   C     0.51078   0.16567   0.56343   0.00000  Uiso   1.00
C669   C     0.58300   0.20227   0.56210   0.00000  Uiso   1.00
H670   H     0.39396   0.11840   0.69144   0.00000  Uiso   1.00
H671   H     0.56744   0.29365   0.68651   0.00000  Uiso   1.00
H672   H     0.60217   0.23293   0.62515   0.00000  Uiso   1.00
H673   H     0.63647   0.18597   0.59747   0.00000  Uiso   1.00
H674   H     0.64889   0.23379   0.55961   0.00000  Uiso   1.00
H675   H     0.60051   0.02266   0.65498   0.00000  Uiso   1.00
H676   H     0.39202   0.02899   0.83030   0.00000  Uiso   1.00
H677   H     0.41159   0.30596   0.86156   0.00000  Uiso   1.00
H678   H     0.33336   0.09531   0.66307   0.00000  Uiso   1.00
H679   H     0.37849   0.15306   0.59563   0.00000  Uiso   1.00
H680   H     0.35747   0.21533   0.80844   0.00000  Uiso   1.00
H681   H     0.60699   0.21561   0.80796   0.00000  Uiso   1.00
H682   H     0.58602   0.24684   0.91542   0.00000  Uiso   1.00
H683   H     0.61831   0.23708   0.98864   0.00000  Uiso   1.00
H684   H     0.48436   0.14199   0.58213   0.00000  Uiso   1.00
H685   H     0.38768   0.14120   0.92078   0.00000  Uiso   1.00
H686   H     0.36091   0.13932   0.51986   0.00000  Uiso   1.00
H687   H     0.52752   0.22920   0.87303   0.00000  Uiso   1.00
N688   N     0.38093   0.16668   0.75002   0.00000  Uiso   1.00
N689   N     0.61906   0.16665   0.75001   0.00000  Uiso   1.00
O690   O     0.46179   0.22775   0.75001   0.00000  Uiso   1.00
O691   O     0.42201   0.04536   0.82213   0.00000  Uiso   1.00
O692   O     0.42561   0.28871   0.82833   0.00000  Uiso   1.00
O693   O     0.63874   0.11295   0.68381   0.00000  Uiso   1.00
O694   O     0.41130   0.16500   0.58125   0.00000  Uiso   1.00
O695   O     0.53823   0.22774   0.75001   0.00000  Uiso   1.00
O696   O     0.44280   0.16666   0.82681   0.00000  Uiso   1.00
O697   O     0.51924   0.16665   0.82681   0.00000  Uiso   1.00
O698   O     0.46177   0.10559   0.74999   0.00000  Uiso   1.00
O699   O     0.53821   0.10558   0.74999   0.00000  Uiso   1.00
O700   O     0.48076   0.16668   0.67319   0.00000  Uiso   1.00
O701   O     0.55720   0.16667   0.67319   0.00000  Uiso   1.00
O702   O     0.57621   0.04276   0.67768   0.00000  Uiso   1.00
Zn703  Zn    0.44896   0.16667   0.75000   0.00000  Uiso   1.00
Zn704  Zn    0.55104   0.16666   0.75000   0.00000  Uiso   1.00
C705   C     0.83307   0.24655   0.75063   0.00000  Uiso   1.00
C706   C     0.78847   0.17192   0.91158   0.00000  Uiso   1.00
C707   C     0.87145   0.31120   0.71509   0.00000  Uiso   1.00
C708   C     0.80652   0.16848   0.85227   0.00000  Uiso   1.00
C709   C     0.87225   0.02098   0.71466   0.00000  Uiso   1.00
C710   C     0.83311   0.04246   0.75137   0.00000  Uiso   1.00
C711   C     0.79332   0.02197   0.78829   0.00000  Uiso   1.00
C712   C     0.79388   0.31161   0.78975   0.00000  Uiso   1.00
C713   C     0.83249   0.29060   0.75176   0.00000  Uiso   1.00
C714   C     0.98589   0.13965   0.71709   0.00000  Uiso   1.00
C715   C     0.70074   0.13973   0.71740   0.00000  Uiso   1.00
C716   C     0.80739   0.17939   0.99428   0.00000  Uiso   1.00
C717   C     0.68068   0.19368   0.78245   0.00000  Uiso   1.00
C718   C     0.96618   0.19373   0.78233   0.00000  Uiso   1.00
C719   C     0.83330   0.08670   0.75029   0.00000  Uiso   1.00
C720   C     0.86017   0.16792   0.64761   0.00000  Uiso   1.00
C721   C     0.92097   0.21786   0.51044   0.00000  Uiso   1.00
C722   C     0.87642   0.17658   0.58920   0.00000  Uiso   1.00
C723   C     0.74422   0.15384   0.94123   0.00000  Uiso   1.00
C724   C     0.72959   0.15162   0.99760   0.00000  Uiso   1.00
C725   C     0.76075   0.16408   0.52500   0.00000  Uiso   1.00
C726   C     0.95302   0.21446   0.58752   0.00000  Uiso   1.00
C727   C     0.81741   0.18927   0.93902   0.00000  Uiso   1.00
C728   C     0.84465   0.18558   0.51602   0.00000  Uiso   1.00
C729   C     0.88517   0.21026   0.98774   0.00000  Uiso   1.00
C730   C     0.88942   0.22684   0.93706   0.00000  Uiso   1.00
C731   C     0.85626   0.21600   0.91256   0.00000  Uiso   1.00
C732   C     0.84411   0.16567   0.56343   0.00000  Uiso   1.00
C733   C     0.91633   0.20227   0.56210   0.00000  Uiso   1.00
H734   H     0.72729   0.11840   0.69144   0.00000  Uiso   1.00
H735   H     0.90077   0.29365   0.68651   0.00000  Uiso   1.00
H736   H     0.93550   0.23293   0.62515   0.00000  Uiso   1.00
H737   H     0.96981   0.18597   0.59747   0.00000  Uiso   1.00
H738   H     0.98223   0.23379   0.55961   0.00000  Uiso   1.00
H739   H     0.93385   0.02266   0.65498   0.00000  Uiso   1.00
H740   H     0.72535   0.02899   0.83030   0.00000  Uiso   1.00
H741   H     0.74493   0.30596   0.86156   0.00000  Uiso   1.00
H742   H     0.66669   0.09531   0.66307   0.00000  Uiso   1.00
H743   H     0.71183   0.15306   0.59563   0.00000  Uiso   1.00
H744   H     0.69080   0.21533   0.80844   0.00000  Uiso   1.00
H745   H     0.94033   0.21561   0.80796   0.00000  Uiso   1.00
H746   H     0.91936   0.24684   0.91542   0.00000  Uiso   1.00
H747   H     0.95164   0.23708   0.98864   0.00000  Uiso   1.00
H748   H     0.81769   0.14199   0.58213   0.00000  Uiso   1.00
H749   H     0.72101   0.14120   0.92078   0.00000  Uiso   1.00
H750   H     0.69424   0.13932   0.51986   0.00000  Uiso   1.00
H751   H     0.86085   0.22920   0.87303   0.00000  Uiso   1.00
N752   N     0.71426   0.16668   0.75002   0.00000  Uiso   1.00
N753   N     0.95239   0.16665   0.75001   0.00000  Uiso   1.00
O754   O     0.79512   0.22775   0.75001   0.00000  Uiso   1.00
O755   O     0.75534   0.04536   0.82213   0.00000  Uiso   1.00
O756   O     0.75895   0.28871   0.82833   0.00000  Uiso   1.00
O757   O     0.97208   0.11295   0.68381   0.00000  Uiso   1.00
O758   O     0.74463   0.16500   0.58125   0.00000  Uiso   1.00
O759   O     0.87157   0.22774   0.75001   0.00000  Uiso   1.00
O760   O     0.77613   0.16666   0.82681   0.00000  Uiso   1.00
O761   O     0.85258   0.16665   0.82681   0.00000  Uiso   1.00
O762   O     0.79510   0.10559   0.74999   0.00000  Uiso   1.00
O763   O     0.87154   0.10558   0.74999   0.00000  Uiso   1.00
O764   O     0.81409   0.16668   0.67319   0.00000  Uiso   1.00
O765   O     0.89053   0.16667   0.67319   0.00000  Uiso   1.00
O766   O     0.90955   0.04276   0.67768   0.00000  Uiso   1.00
Zn767  Zn    0.78229   0.16667   0.75000   0.00000  Uiso   1.00
Zn768  Zn    0.88438   0.16666   0.75000   0.00000  Uiso   1.00
C769   C     0.16640   0.57989   0.75063   0.00000  Uiso   1.00
C770   C     0.12181   0.50525   0.91158   0.00000  Uiso   1.00
C771   C     0.20478   0.64454   0.71509   0.00000  Uiso   1.00
C772   C     0.13985   0.50182   0.85227   0.00000  Uiso   1.00
C773   C     0.20558   0.35432   0.71466   0.00000  Uiso   1.00
C774   C     0.16644   0.37579   0.75137   0.00000  Uiso   1.00
C775   C     0.12665   0.35530   0.78829   0.00000  Uiso   1.00
C776   C     0.12721   0.64494   0.78975   0.00000  Uiso   1.00
C777   C     0.16583   0.62393   0.75176   0.00000  Uiso   1.00
C778   C     0.31922   0.47298   0.71709   0.00000  Uiso   1.00
C779   C     0.03407   0.47306   0.71740   0.00000  Uiso   1.00
C780   C     0.14073   0.51272   0.99428   0.00000  Uiso   1.00
C781   C     0.01401   0.52701   0.78245   0.00000  Uiso   1.00
C782   C     0.29952   0.52706   0.78233   0.00000  Uiso   1.00
C783   C     0.16663   0.42004   0.75029   0.00000  Uiso   1.00
C784   C     0.19351   0.50125   0.64761   0.00000  Uiso   1.00
C785   C     0.25431   0.55120   0.51044   0.00000  Uiso   1.00
C786   C     0.20975   0.50991   0.58920   0.00000  Uiso   1.00
C787   C     0.07756   0.48717   0.94123   0.00000  Uiso   1.00
C788   C     0.06292   0.48495   0.99760   0.00000  Uiso   1.00
C789   C     0.09408   0.49742   0.52500   0.00000  Uiso   1.00
C790   C     0.28636   0.54779   0.58752   0.00000  Uiso   1.00
C791   C     0.15075   0.52261   0.93902   0.00000  Uiso   1.00
C792   C     0.17798   0.51891   0.51602   0.00000  Uiso   1.00
C793   C     0.21851   0.54359   0.98774   0.00000  Uiso   1.00
C794   C     0.22276   0.56017   0.93706   0.00000  Uiso   1.00
C795   C     0.18959   0.54933   0.91256   0.00000  Uiso   1.00
C796   C     0.17745   0.49901   0.56343   0.00000  Uiso   1.00
C797   C     0.24966   0.53560   0.56210   0.00000  Uiso   1.00
H798   H     0.06063   0.45173   0.69144   0.00000  Uiso   1.00
H799   H     0.23410   0.62698   0.68651   0.00000  Uiso   1.00
H800   H     0.26884   0.56626   0.62515   0.00000  Uiso   1.00
H801   H     0.30314   0.51930   0.59747   0.00000  Uiso   1.00
H802   H     0.31556   0.56713   0.55961   0.00000  Uiso   1.00
H803   H     0.26718   0.35599   0.65498   0.00000  Uiso   1.00
H804   H     0.05868   0.36232   0.83030   0.00000  Uiso   1.00
H805   H     0.07826   0.63929   0.86156   0.00000  Uiso   1.00
H806   H     0.00003   0.42865   0.66307   0.00000  Uiso   1.00
H807   H     0.04516   0.48639   0.59563   0.00000  Uiso   1.00
H808   H     0.02414   0.54866   0.80844   0.00000  Uiso   1.00
H809   H     0.27366   0.54895   0.80796   0.00000  Uiso   1.00
H810   H     0.25269   0.58017   0.91542   0.00000  Uiso   1.00
H811   H     0.28498   0.57041   0.98864   0.00000  Uiso   1.00
H812   H     0.15103   0.47533   0.58213   0.00000  Uiso   1.00
H813   H     0.05435   0.47454   0.92078   0.00000  Uiso   1.00
H814   H     0.02758   0.47265   0.51986   0.00000  Uiso   1.00
H815   H     0.19418   0.56253   0.87303   0.00000  Uiso   1.00
N816   N     0.04760   0.50001   0.75002   0.00000  Uiso   1.00
N817   N     0.28573   0.49998   0.75001   0.00000  Uiso   1.00
O818   O     0.12846   0.56108   0.75001   0.00000  Uiso   1.00
O819   O     0.08868   0.37870   0.82213   0.00000  Uiso   1.00
O820   O     0.09228   0.62204   0.82833   0.00000  Uiso   1.00
O821   O     0.30541   0.44629   0.68381   0.00000  Uiso   1.00
O822   O     0.07796   0.49833   0.58125   0.00000  Uiso   1.00
O823   O     0.20490   0.56107   0.75001   0.00000  Uiso   1.00
O824   O     0.10947   0.50000   0.82681   0.00000  Uiso   1.00
O825   O     0.18591   0.49999   0.82681   0.00000  Uiso   1.00
O826   O     0.12843   0.43893   0.74999   0.00000  Uiso   1.00
O827   O     0.20488   0.43892   0.74999   0.00000  Uiso   1.00
O828   O     0.14742   0.50001   0.67319   0.00000  Uiso   1.00
O829   O     0.22387   0.50000   0.67319   0.00000  Uiso   1.00
O830   O     0.24288   0.37609   0.67768   0.00000  Uiso   1.00
Zn831  Zn    0.11562   0.50001   0.75000   0.00000  Uiso   1.00
Zn832  Zn    0.21771   0.49999   0.75000   0.00000  Uiso   1.00
C833   C     0.49973   0.57989   0.75063   0.00000  Uiso   1.00
C834   C     0.45514   0.50525   0.91158   0.00000  Uiso   1.00
C835   C     0.53812   0.64454   0.71509   0.00000  Uiso   1.00
C836   C     0.47318   0.50182   0.85227   0.00000  Uiso   1.00
C837   C     0.53891   0.35432   0.71466   0.00000  Uiso   1.00
C838   C     0.49978   0.37579   0.75137   0.00000  Uiso   1.00
C839   C     0.45999   0.35530   0.78829   0.00000  Uiso   1.00
C840   C     0.46054   0.64494   0.78975   0.00000  Uiso   1.00
C841   C     0.49916   0.62393   0.75176   0.00000  Uiso   1.00
C842   C     0.65256   0.47298   0.71709   0.00000  Uiso   1.00
C843   C     0.36740   0.47306   0.71740   0.00000  Uiso   1.00
C844   C     0.47406   0.51272   0.99428   0.00000  Uiso   1.00
C845   C     0.34734   0.52701   0.78245   0.00000  Uiso   1.00
C846   C     0.63285   0.52706   0.78233   0.00000  Uiso   1.00
C847   C     0.49996   0.42004   0.75029   0.00000  Uiso   1.00
C848   C     0.52684   0.50125   0.64761   0.00000  Uiso   1.00
C849   C     0.58764   0.55120   0.51044   0.00000  Uiso   1.00
C850   C     0.54308   0.50991   0.58920   0.00000  Uiso   1.00
C851   C     0.41089   0.48717   0.94123   0.00000  Uiso   1.00
C852   C     0.39625   0.48495   0.99760   0.00000  Uiso   1.00
C853   C     0.42742   0.49742   0.52500   0.00000  Uiso   1.00
C854   C     0.61969   0.54779   0.58752   0.00000  Uiso   1.00
C855   C     0.48408   0.52261   0.93902   0.00000  Uiso   1.00
C856   C     0.51131   0.51891   0.51602   0.00000  Uiso   1.00
C857   C     0.55184   0.54359   0.98774   0.00000  Uiso   1.00
C858   C     0.55609   0.56017   0.93706   0.00000  Uiso   1.00
C859   C     0.52293   0.54933   0.91256   0.00000  Uiso   1.00
C860   C     0.51078   0.49901   0.56343   0.00000  Uiso   1.00
C861   C     0.58300   0.53560   0.56210   0.00000  Uiso   1.00
H862   H     0.39396   0.45173   0.69144   0.00000  Uiso   1.00
H863   H     0.56744   0.62698   0.68651   0.00000  Uiso   1.00
H864   H     0.60217   0.56626   0.62515   0.00000  Uiso   1.00
H865   H     0.63647   0.51930   0.59747   0.00000  Uiso   1.00
H866   H     0.64889   0.56713   0.55961   0.00000  Uiso   1.00
H867   H     0.60051   0.35599   0.65498   0.00000  Uiso   1.00
H868   H     0.39202   0.36232   0.83030   0.00000  Uiso   1.00
H869   H     0.41159   0.63929   0.86156   0.00000  Uiso   1.00
H870   H     0.33336   0.42865   0.66307   0.00000  Uiso   1.00
H871   H     0.37849   0.48639   0.59563   0.00000  Uiso   1.00
H872   H     0.35747   0.54866   0.80844   0.00000  Uiso   1.00
H873   H     0.60699   0.54895   0.80796   0.00000  Uiso   1.00
H874   H     0.58602   0.58017   0.91542   0.00000  Uiso   1.00
H875   H     0.61831   0.57041   0.98864   0.00000  Uiso   1.00
H876   H     0.48436   0.47533   0.58213   0.00000  Uiso   1.00
H877   H     0.38768   0.47454   0.92078   0.00000  Uiso   1.00
H878   H     0.36091   0.47265   0.51986   0.00000  Uiso   1.00
H879   H     0.52752   0.56253   0.87303   0.00000  Uiso   1.00
N880   N     0.38093   0.50001   0.75002   0.00000  Uiso   1.00
N881   N     0.61906   0.49998   0.75001   0.00000  Uiso   1.00
O882   O     0.46179   0.56108   0.75001   0.00000  Uiso   1.00
O883   O     0.42201   0.37870   0.82213   0.00000  Uiso   1.00
O884   O     0.42561   0.62204   0.82833   0.00000  Uiso   1.00
O885   O     0.63874   0.44629   0.68381   0.00000  Uiso   1.00
O886   O     0.41130   0.49833   0.58125   0.00000  Uiso   1.00
O887   O     0.53823   0.56107   0.75001   0.00000  Uiso   1.00
O888   O     0.44280   0.50000   0.82681   0.00000  Uiso   1.00
O889   O     0.51924   0.49999   0.82681   0.00000  Uiso   1.00
O890   O     0.46177   0.43893   0.74999   0.00000  Uiso   1.00
O891   O     0.53821   0.43892   0.74999   0.00000  Uiso   1.00
O892   O     0.48076   0.50001   0.67319   0.00000  Uiso   1.00
O893   O     0.55720   0.50000   0.67319   0.00000  Uiso   1.00
O894   O     0.57621   0.37609   0.67768   0.00000  Uiso   1.00
Zn895  Zn    0.44896   0.50001   0.75000   0.00000  Uiso   1.00
Zn896  Zn    0.55104   0.49999   0.75000   0.00000  Uiso   1.00
C897   C     0.83307   0.57989   0.75063   0.00000  Uiso   1.00
C898   C     0.78847   0.50525   0.91158   0.00000  Uiso   1.00
C899   C     0.87145   0.64454   0.71509   0.00000  Uiso   1.00
C900   C     0.80652   0.50182   0.85227   0.00000  Uiso   1.00
C901   C     0.87225   0.35432   0.71466   0.00000  Uiso   1.00
C902   C     0.83311   0.37579   0.75137   0.00000  Uiso   1.00
C903   C     0.79332   0.35530   0.78829   0.00000  Uiso   1.00
C904   C     0.79388   0.64494   0.78975   0.00000  Uiso   1.00
C905   C     0.83249   0.62393   0.75176   0.00000  Uiso   1.00
C906   C     0.98589   0.47298   0.71709   0.00000  Uiso   1.00
C907   C     0.70074   0.47306   0.71740   0.00000  Uiso   1.00
C908   C     0.80739   0.51272   0.99428   0.00000  Uiso   1.00
C909   C     0.68068   0.52701   0.78245   0.00000  Uiso   1.00
C910   C     0.96618   0.52706   0.78233   0.00000  Uiso   1.00
C911   C     0.83330   0.42004   0.75029   0.00000  Uiso   1.00
C912   C     0.86017   0.50125   0.64761   0.00000  Uiso   1.00
C913   C     0.92097   0.55120   0.51044   0.00000  Uiso   1.00
C914   C     0.87642   0.50991   0.58920   0.00000  Uiso   1.00
C915   C     0.74422   0.48717   0.94123   0.00000  Uiso   1.00
C916   C     0.72959   0.48495   0.99760   0.00000  Uiso   1.00
C917   C     0.76075   0.49742   0.52500   0.00000  Uiso   1.00
C918   C     0.95302   0.54779   0.58752   0.00000  Uiso   1.00
C919   C     0.81741   0.52261   0.93902   0.00000  Uiso   1.00
C920   C     0.84465   0.51891   0.51602   0.00000  Uiso   1.00
C921   C     0.88517   0.54359   0.98774   0.00000  Uiso   1.00
C922   C     0.88942   0.56017   0.93706   0.00000  Uiso   1.00
C923   C     0.85626   0.54933   0.91256   0.00000  Uiso   1.00
C924   C     0.84411   0.49901   0.56343   0.00000  Uiso   1.00
C925   C     0.91633   0.53560   0.56210   0.00000  Uiso   1.00
H926   H     0.72729   0.45173   0.69144   0.00000  Uiso   1.00
H927   H     0.90077   0.62698   0.68651   0.00000  Uiso   1.00
H928   H     0.93550   0.56626   0.62515   0.00000  Uiso   1.00
H929   H     0.96981   0.51930   0.59747   0.00000  Uiso   1.00
H930   H     0.98223   0.56713   0.55961   0.00000  Uiso   1.00
H931   H     0.93385   0.35599   0.65498   0.00000  Uiso   1.00
H932   H     0.72535   0.36232   0.83030   0.00000  Uiso   1.00
H933   H     0.74493   0.63929   0.86156   0.00000  Uiso   1.00
H934   H     0.66669   0.42865   0.66307   0.00000  Uiso   1.00
H935   H     0.71183   0.48639   0.59563   0.00000  Uiso   1.00
H936   H     0.69080   0.54866   0.80844   0.00000  Uiso   1.00
H937   H     0.94033   0.54895   0.80796   0.00000  Uiso   1.00
H938   H     0.91936   0.58017   0.91542   0.00000  Uiso   1.00
H939   H     0.95164   0.57041   0.98864   0.00000  Uiso   1.00
H940   H     0.81769   0.47533   0.58213   0.00000  Uiso   1.00
H941   H     0.72101   0.47454   0.92078   0.00000  Uiso   1.00
H942   H     0.69424   0.47265   0.51986   0.00000  Uiso   1.00
H943   H     0.86085   0.56253   0.87303   0.00000  Uiso   1.00
N944   N     0.71426   0.50001   0.75002   0.00000  Uiso   1.00
N945   N     0.95239   0.49998   0.75001   0.00000  Uiso   1.00
O946   O     0.79512   0.56108   0.75001   0.00000  Uiso   1.00
O947   O     0.75534   0.37870   0.82213   0.00000  Uiso   1.00
O948   O     0.75895   0.62204   0.82833   0.00000  Uiso   1.00
O949   O     0.97208   0.44629   0.68381   0.00000  Uiso   1.00
O950   O     0.74463   0.49833   0.58125   0.00000  Uiso   1.00
O951   O     0.87157   0.56107   0.75001   0.00000  Uiso   1.00
O952   O     0.77613   0.50000   0.82681   0.00000  Uiso   1.00
O953   O     0.85258   0.49999   0.82681   0.00000  Uiso   1.00
O954   O     0.79510   0.43893   0.74999   0.00000  Uiso   1.00
O955   O     0.87154   0.43892   0.74999   0.00000  Uiso   1.00
O956   O     0.81409   0.50001   0.67319   0.00000  Uiso   1.00
O957   O     0.89053   0.50000   0.67319   0.00000  Uiso   1.00
O958   O     0.90955   0.37609   0.67768   0.00000  Uiso   1.00
Zn959  Zn    0.78229   0.50001   0.75000   0.00000  Uiso   1.00
Zn960  Zn    0.88438   0.49999   0.75000   0.00000  Uiso   1.00
C961   C     0.16640   0.91322   0.75063   0.00000  Uiso   1.00
C962   C     0.12181   0.83859   0.91158   0.00000  Uiso   1.00
C963   C     0.20478   0.97787   0.71509   0.00000  Uiso   1.00
C964   C     0.13985   0.83515   0.85227   0.00000  Uiso   1.00
C965   C     0.20558   0.68765   0.71466   0.00000  Uiso   1.00
C966   C     0.16644   0.70912   0.75137   0.00000  Uiso   1.00
C967   C     0.12665   0.68864   0.78829   0.00000  Uiso   1.00
C968   C     0.12721   0.97828   0.78975   0.00000  Uiso   1.00
C969   C     0.16583   0.95727   0.75176   0.00000  Uiso   1.00
C970   C     0.31922   0.80631   0.71709   0.00000  Uiso   1.00
C971   C     0.03407   0.80639   0.71740   0.00000  Uiso   1.00
C972   C     0.14073   0.84605   0.99428   0.00000  Uiso   1.00
C973   C     0.01401   0.86034   0.78245   0.00000  Uiso   1.00
C974   C     0.29952   0.86040   0.78233   0.00000  Uiso   1.00
C975   C     0.16663   0.75337   0.75029   0.00000  Uiso   1.00
C976   C     0.19351   0.83458   0.64761   0.00000  Uiso   1.00
C977   C     0.25431   0.88453   0.51044   0.00000  Uiso   1.00
C978   C     0.20975   0.84324   0.58920   0.00000  Uiso   1.00
C979   C     0.07756   0.82050   0.94123   0.00000  Uiso   1.00
C980   C     0.06292   0.81829   0.99760   0.00000  Uiso   1.00
C981   C     0.09408   0.83075   0.52500   0.00000  Uiso   1.00
C982   C     0.28636   0.88113   0.58752   0.00000  Uiso   1.00
C983   C     0.15075   0.85594   0.93902   0.00000  Uiso   1.00
C984   C     0.17798   0.85225   0.51602   0.00000  Uiso   1.00
C985   C     0.21851   0.87693   0.98774   0.00000  Uiso   1.00
C986   C     0.22276   0.89350   0.93706   0.00000  Uiso   1.00
C987   C     0.18959   0.88267   0.91256   0.00000  Uiso   1.00
C988   C     0.17745   0.83234   0.56343   0.00000  Uiso   1.00
C989   C     0.24966   0.86894   0.56210   0.00000  Uiso   1.00
H990   H     0.06063   0.78506   0.69144   0.00000  Uiso   1.00
H991   H     0.23410   0.96031   0.68651   0.00000  Uiso   1.00
H992   H     0.26884   0.89960   0.62515   0.00000  Uiso   1.00
H993   H     0.30314   0.85264   0.59747   0.00000  Uiso   1.00
H994   H     0.31556   0.90046   0.55961   0.00000  Uiso   1.00
H995   H     0.26718   0.68933   0.65498   0.00000  Uiso   1.00
H996   H     0.05868   0.69566   0.83030   0.00000  Uiso   1.00
H997   H     0.07826   0.97263   0.86156   0.00000  Uiso   1.00
H998   H     0.00003   0.76198   0.66307   0.00000  Uiso   1.00
H999   H     0.04516   0.81973   0.59563   0.00000  Uiso   1.00
H1000  H     0.02414   0.88199   0.80844   0.00000  Uiso   1.00
H1001  H     0.27366   0.88228   0.80796   0.00000  Uiso   1.00
H1002  H     0.25269   0.91350   0.91542   0.00000  Uiso   1.00
H1003  H     0.28498   0.90375   0.98864   0.00000  Uiso   1.00
H1004  H     0.15103   0.80866   0.58213   0.00000  Uiso   1.00
H1005  H     0.05435   0.80787   0.92078   0.00000  Uiso   1.00
H1006  H     0.02758   0.80598   0.51986   0.00000  Uiso   1.00
H1007  H     0.19418   0.89586   0.87303   0.00000  Uiso   1.00
N1008  N     0.04760   0.83334   0.75002   0.00000  Uiso   1.00
N1009  N     0.28573   0.83331   0.75001   0.00000  Uiso   1.00
O1010  O     0.12846   0.89442   0.75001   0.00000  Uiso   1.00
O1011  O     0.08868   0.71203   0.82213   0.00000  Uiso   1.00
O1012  O     0.09228   0.95538   0.82833   0.00000  Uiso   1.00
O1013  O     0.30541   0.77962   0.68381   0.00000  Uiso   1.00
O1014  O     0.07796   0.83166   0.58125   0.00000  Uiso   1.00
O1015  O     0.20490   0.89441   0.75001   0.00000  Uiso   1.00
O1016  O     0.10947   0.83333   0.82681   0.00000  Uiso   1.00
O1017  O     0.18591   0.83332   0.82681   0.00000  Uiso   1.00
O1018  O     0.12843   0.77226   0.74999   0.00000  Uiso   1.00
O1019  O     0.20488   0.77225   0.74999   0.00000  Uiso   1.00
O1020  O     0.14742   0.83335   0.67319   0.00000  Uiso   1.00
O1021  O     0.22387   0.83334   0.67319   0.00000  Uiso   1.00
O1022  O     0.24288   0.70942   0.67768   0.00000  Uiso   1.00
Zn1023 Zn    0.11562   0.83334   0.75000   0.00000  Uiso   1.00
Zn1024 Zn    0.21771   0.83333   0.75000   0.00000  Uiso   1.00
C1025  C     0.49973   0.91322   0.75063   0.00000  Uiso   1.00
C1026  C     0.45514   0.83859   0.91158   0.00000  Uiso   1.00
C1027  C     0.53812   0.97787   0.71509   0.00000  Uiso   1.00
C1028  C     0.47318   0.83515   0.85227   0.00000  Uiso   1.00
C1029  C     0.53891   0.68765   0.71466   0.00000  Uiso   1.00
C1030  C     0.49978   0.70912   0.75137   0.00000  Uiso   1.00
C1031  C     0.45999   0.68864   0.78829   0.00000  Uiso   1.00
C1032  C     0.46054   0.97828   0.78975   0.00000  Uiso   1.00
C1033  C     0.49916   0.95727   0.75176   0.00000  Uiso   1.00
C1034  C     0.65256   0.80631   0.71709   0.00000  Uiso   1.00
C1035  C     0.36740   0.80639   0.71740   0.00000  Uiso   1.00
C1036  C     0.47406   0.84605   0.99428   0.00000  Uiso   1.00
C1037  C     0.34734   0.86034   0.78245   0.00000  Uiso   1.00
C1038  C     0.63285   0.86040   0.78233   0.00000  Uiso   1.00
C1039  C     0.49996   0.75337   0.75029   0.00000  Uiso   1.00
C1040  C     0.52684   0.83458   0.64761   0.00000  Uiso   1.00
C1041  C     0.58764   0.88453   0.51044   0.00000  Uiso   1.00
C1042  C     0.54308   0.84324   0.58920   0.00000  Uiso   1.00
C1043  C     0.41089   0.82050   0.94123   0.00000  Uiso   1.00
C1044  C     0.39625   0.81829   0.99760   0.00000  Uiso   1.00
C1045  C     0.42742   0.83075   0.52500   0.00000  Uiso   1.00
C1046  C     0.61969   0.88113   0.58752   0.00000  Uiso   1.00
C1047  C     0.48408   0.85594   0.93902   0.00000  Uiso   1.00
C1048  C     0.51131   0.85225   0.51602   0.00000  Uiso   1.00
C1049  C     0.55184   0.87693   0.98774   0.00000  Uiso   1.00
C1050  C     0.55609   0.89350   0.93706   0.00000  Uiso   1.00
C1051  C     0.52293   0.88267   0.91256   0.00000  Uiso   1.00
C1052  C     0.51078   0.83234   0.56343   0.00000  Uiso   1.00
C1053  C     0.58300   0.86894   0.56210   0.00000  Uiso   1.00
H1054  H     0.39396   0.78506   0.69144   0.00000  Uiso   1.00
H1055  H     0.56744   0.96031   0.68651   0.00000  Uiso   1.00
H1056  H     0.60217   0.89960   0.62515   0.00000  Uiso   1.00
H1057  H     0.63647   0.85264   0.59747   0.00000  Uiso   1.00
H1058  H     0.64889   0.90046   0.55961   0.00000  Uiso   1.00
H1059  H     0.60051   0.68933   0.65498   0.00000  Uiso   1.00
H1060  H     0.39202   0.69566   0.83030   0.00000  Uiso   1.00
H1061  H     0.41159   0.97263   0.86156   0.00000  Uiso   1.00
H1062  H     0.33336   0.76198   0.66307   0.00000  Uiso   1.00
H1063  H     0.37849   0.81973   0.59563   0.00000  Uiso   1.00
H1064  H     0.35747   0.88199   0.80844   0.00000  Uiso   1.00
H1065  H     0.60699   0.88228   0.80796   0.00000  Uiso   1.00
H1066  H     0.58602   0.91350   0.91542   0.00000  Uiso   1.00
H1067  H     0.61831   0.90375   0.98864   0.00000  Uiso   1.00
H1068  H     0.48436   0.80866   0.58213   0.00000  Uiso   1.00
H1069  H     0.38768   0.80787   0.92078   0.00000  Uiso   1.00
H1070  H     0.36091   0.80598   0.51986   0.00000  Uiso   1.00
H1071  H     0.52752   0.89586   0.87303   0.00000  Uiso   1.00
N1072  N     0.38093   0.83334   0.75002   0.00000  Uiso   1.00
N1073  N     0.61906   0.83331   0.75001   0.00000  Uiso   1.00
O1074  O     0.46179   0.89442   0.75001   0.00000  Uiso   1.00
O1075  O     0.42201   0.71203   0.82213   0.00000  Uiso   1.00
O1076  O     0.42561   0.95538   0.82833   0.00000  Uiso   1.00
O1077  O     0.63874   0.77962   0.68381   0.00000  Uiso   1.00
O1078  O     0.41130   0.83166   0.58125   0.00000  Uiso   1.00
O1079  O     0.53823   0.89441   0.75001   0.00000  Uiso   1.00
O1080  O     0.44280   0.83333   0.82681   0.00000  Uiso   1.00
O1081  O     0.51924   0.83332   0.82681   0.00000  Uiso   1.00
O1082  O     0.46177   0.77226   0.74999   0.00000  Uiso   1.00
O1083  O     0.53821   0.77225   0.74999   0.00000  Uiso   1.00
O1084  O     0.48076   0.83335   0.67319   0.00000  Uiso   1.00
O1085  O     0.55720   0.83334   0.67319   0.00000  Uiso   1.00
O1086  O     0.57621   0.70942   0.67768   0.00000  Uiso   1.00
Zn1087 Zn    0.44896   0.83334   0.75000   0.00000  Uiso   1.00
Zn1088 Zn    0.55104   0.83333   0.75000   0.00000  Uiso   1.00
C1089  C     0.83307   0.91322   0.75063   0.00000  Uiso   1.00
C1090  C     0.78847   0.83859   0.91158   0.00000  Uiso   1.00
C1091  C     0.87145   0.97787   0.71509   0.00000  Uiso   1.00
C1092  C     0.80652   0.83515   0.85227   0.00000  Uiso   1.00
C1093  C     0.87225   0.68765   0.71466   0.00000  Uiso   1.00
C1094  C     0.83311   0.70912   0.75137   0.00000  Uiso   1.00
C1095  C     0.79332   0.68864   0.78829   0.00000  Uiso   1.00
C1096  C     0.79388   0.97828   0.78975   0.00000  Uiso   1.00
C1097  C     0.83249   0.95727   0.75176   0.00000  Uiso   1.00
C1098  C     0.98589   0.80631   0.71709   0.00000  Uiso   1.00
C1099  C     0.70074   0.80639   0.71740   0.00000  Uiso   1.00
C1100  C     0.80739   0.84605   0.99428   0.00000  Uiso   1.00
C1101  C     0.68068   0.86034   0.78245   0.00000  Uiso   1.00
C1102  C     0.96618   0.86040   0.78233   0.00000  Uiso   1.00
C1103  C     0.83330   0.75337   0.75029   0.00000  Uiso   1.00
C1104  C     0.86017   0.83458   0.64761   0.00000  Uiso   1.00
C1105  C     0.92097   0.88453   0.51044   0.00000  Uiso   1.00
C1106  C     0.87642   0.84324   0.58920   0.00000  Uiso   1.00
C1107  C     0.74422   0.82050   0.94123   0.00000  Uiso   1.00
C1108  C     0.72959   0.81829   0.99760   0.00000  Uiso   1.00
C1109  C     0.76075   0.83075   0.52500   0.00000  Uiso   1.00
C1110  C     0.95302   0.88113   0.58752   0.00000  Uiso   1.00
C1111  C     0.81741   0.85594   0.93902   0.00000  Uiso   1.00
C1112  C     0.84465   0.85225   0.51602   0.00000  Uiso   1.00
C1113  C     0.88517   0.87693   0.98774   0.00000  Uiso   1.00
C1114  C     0.88942   0.89350   0.93706   0.00000  Uiso   1.00
C1115  C     0.85626   0.88267   0.91256   0.00000  Uiso   1.00
C1116  C     0.84411   0.83234   0.56343   0.00000  Uiso   1.00
C1117  C     0.91633   0.86894   0.56210   0.00000  Uiso   1.00
H1118  H     0.72729   0.78506   0.69144   0.00000  Uiso   1.00
H1119  H     0.90077   0.96031   0.68651   0.00000  Uiso   1.00
H1120  H     0.93550   0.89960   0.62515   0.00000  Uiso   1.00
H1121  H     0.96981   0.85264   0.59747   0.00000  Uiso   1.00
H1122  H     0.98223   0.90046   0.55961   0.00000  Uiso   1.00
H1123  H     0.93385   0.68933   0.65498   0.00000  Uiso   1.00
H1124  H     0.72535   0.69566   0.83030   0.00000  Uiso   1.00
H1125  H     0.74493   0.97263   0.86156   0.00000  Uiso   1.00
H1126  H     0.66669   0.76198   0.66307   0.00000  Uiso   1.00
H1127  H     0.71183   0.81973   0.59563   0.00000  Uiso   1.00
H1128  H     0.69080   0.88199   0.80844   0.00000  Uiso   1.00
H1129  H     0.94033   0.88228   0.80796   0.00000  Uiso   1.00
H1130  H     0.91936   0.91350   0.91542   0.00000  Uiso   1.00
H1131  H     0.95164   0.90375   0.98864   0.00000  Uiso   1.00
H1132  H     0.81769   0.80866   0.58213   0.00000  Uiso   1.00
H1133  H     0.72101   0.80787   0.92078   0.00000  Uiso   1.00
H1134  H     0.69424   0.80598   0.51986   0.00000  Uiso   1.00
H1135  H     0.86085   0.89586   0.87303   0.00000  Uiso   1.00
N1136  N     0.71426   0.83334   0.75002   0.00000  Uiso   1.00
N1137  N     0.95239   0.83331   0.75001   0.00000  Uiso   1.00
O1138  O     0.79512   0.89442   0.75001   0.00000  Uiso   1.00
O1139  O     0.75534   0.71203   0.82213   0.00000  Uiso   1.00
O1140  O     0.75895   0.95538   0.82833   0.00000  Uiso   1.00
O1141  O     0.97208   0.77962   0.68381   0.00000  Uiso   1.00
O1142  O     0.74463   0.83166   0.58125   0.00000  Uiso   1.00
O1143  O     0.87157   0.89441   0.75001   0.00000  Uiso   1.00
O1144  O     0.77613   0.83333   0.82681   0.00000  Uiso   1.00
O1145  O     0.85258   0.83332   0.82681   0.00000  Uiso   1.00
O1146  O     0.79510   0.77226   0.74999   0.00000  Uiso   1.00
O1147  O     0.87154   0.77225   0.74999   0.00000  Uiso   1.00
O1148  O     0.81409   0.83335   0.67319   0.00000  Uiso   1.00
O1149  O     0.89053   0.83334   0.67319   0.00000  Uiso   1.00
O1150  O     0.90955   0.70942   0.67768   0.00000  Uiso   1.00
Zn1151 Zn    0.78229   0.83334   0.75000   0.00000  Uiso   1.00
Zn1152 Zn    0.88438   0.83333   0.75000   0.00000  Uiso   1.00
loop_
_geom_bond_atom_site_label_1
_geom_bond_atom_site_label_2
_geom_bond_distance
_geom_bond_site_symmetry_2
_ccdc_geom_bond_type
C1     O50     1.280   .     A
C1     O55     1.281   .     A
C1     C9      1.409   .     S
C2     C4      1.460   .     S
C2     C23     1.407   .     A
C2     C19     1.400   .     A
C3     C9      1.390   .     A
C3     H31     1.084   .     S
C3     C197    1.379   .     S
C4     O57     1.296   .     A
C4     O56     1.290   .     A
C5     C6      1.400   .     A
C5     O62     1.383   .     S
C5     C387    1.379   1_545 S
C6     C7      1.405   .     A
C6     C15     1.415   .     S
C7     O51     1.383   .     S
C7     C392    1.398   1_545 S
C8     O52     1.383   .     S
C8     C9      1.398   .     A
C8     C199    1.398   .     S
C10    O53     1.377   .     S
C10    N49     1.369   .     A
C10    C75     1.428   .     S
C11    N48     1.365   .     A
C11    H30     1.082   .     S
C11    C138    1.428   1_455 S
C12    C23     1.408   .     A
C12    C597    1.426   .     S
C12    C600    1.417   .     S
C13    N48     1.365   .     A
C13    H40     1.082   .     S
C13    C142    1.416   1_455 S
C14    H41     1.080   .     S
C14    N49     1.367   .     A
C14    C77     1.416   .     S
C15    O58     1.281   .     A
C15    O59     1.282   .     A
C16    O60     1.297   .     A
C16    C18     1.462   .     S
C16    O61     1.291   .     A
C17    C29     1.402   .     A
C17    C601    1.402   1_554 S
C17    H619    1.085   1_554 S
C18    C28     1.390   .     A
C18    C29     1.417   .     A
C19    H45     1.083   .     S
C19    C20     1.388   .     A
C20    C597    1.406   .     S
C20    H622    1.083   .     S
C21    O54     1.382   .     S
C21    C596    1.406   1_554 S
C21    C588    1.426   1_554 S
C22    C29     1.506   .     S
C22    H32     1.109   .     S
C22    H33     1.109   .     S
C22    H34     1.111   .     S
C23    C27     1.412   .     A
C24    C28     1.389   .     A
C24    C588    1.417   1_554 S
C24    C601    1.417   1_554 S
C25    C26     1.393   .     A
C25    C593    1.402   .     S
C25    C600    1.417   .     S
C26    C27     1.388   .     A
C26    H42     1.084   .     S
C27    H47     1.082   .     S
C28    H44     1.080   .     S
H35    O62     0.992   .     S
H36    O51     0.990   .     S
H37    O52     0.990   .     S
H38    O181    0.992   1_455 S
H39    O54     0.991   .     S
H43    C593    1.085   .     S
H46    C596    1.083   1_554 S
N48    Zn63    2.012   .     S
N49    Zn64    2.012   .     S
O50    Zn63    1.991   .     S
O53    H102    0.992   .     S
O55    Zn64    1.988   .     S
O56    Zn63    1.953   .     S
O57    Zn64    1.902   .     S
O58    Zn63    1.988   .     S
O59    Zn64    1.991   .     S
O60    Zn63    1.902   .     S
O61    Zn64    1.953   .     S
C65    O114    1.280   .     A
C65    O119    1.281   .     A
C65    C73     1.409   .     S
C66    C68     1.460   .     S
C66    C87     1.407   .     A
C66    C83     1.400   .     A
C67    C73     1.390   .     A
C67    H95     1.084   .     S
C67    C261    1.379   .     S
C68    O121    1.296   .     A
C68    O120    1.290   .     A
C69    C70     1.400   .     A
C69    O126    1.383   .     S
C69    C451    1.379   1_545 S
C70    C71     1.405   .     A
C70    C79     1.415   .     S
C71    O115    1.383   .     S
C71    C456    1.398   1_545 S
C72    O116    1.383   .     S
C72    C73     1.398   .     A
C72    C263    1.398   .     S
C74    O117    1.377   .     S
C74    N113    1.369   .     A
C74    C139    1.428   .     S
C75    N112    1.365   .     A
C75    H94     1.082   .     S
C76    C87     1.408   .     A
C76    C661    1.426   .     S
C76    C664    1.417   .     S
C77    N112    1.365   .     A
C77    H104    1.082   .     S
C78    H105    1.080   .     S
C78    N113    1.367   .     A
C78    C141    1.416   .     S
C79    O122    1.281   .     A
C79    O123    1.282   .     A
C80    O124    1.297   .     A
C80    C82     1.462   .     S
C80    O125    1.291   .     A
C81    C93     1.402   .     A
C81    C665    1.402   1_554 S
C81    H683    1.085   1_554 S
C82    C92     1.390   .     A
C82    C93     1.417   .     A
C83    H109    1.083   .     S
C83    C84     1.388   .     A
C84    C661    1.406   .     S
C84    H686    1.083   .     S
C85    O118    1.382   .     S
C85    C660    1.406   1_554 S
C85    C652    1.426   1_554 S
C86    C93     1.506   .     S
C86    H96     1.109   .     S
C86    H97     1.109   .     S
C86    H98     1.111   .     S
C87    C91     1.412   .     A
C88    C92     1.389   .     A
C88    C652    1.417   1_554 S
C88    C665    1.417   1_554 S
C89    C90     1.393   .     A
C89    C657    1.402   .     S
C89    C664    1.417   .     S
C90    C91     1.388   .     A
C90    H106    1.084   .     S
C91    H111    1.082   .     S
C92    H108    1.080   .     S
H99    O126    0.992   .     S
H100   O115    0.990   .     S
H101   O116    0.990   .     S
H103   O118    0.991   .     S
H107   C657    1.085   .     S
H110   C660    1.083   1_554 S
N112   Zn127   2.012   .     S
N113   Zn128   2.012   .     S
O114   Zn127   1.991   .     S
O117   H166    0.992   .     S
O119   Zn128   1.988   .     S
O120   Zn127   1.953   .     S
O121   Zn128   1.902   .     S
O122   Zn127   1.988   .     S
O123   Zn128   1.991   .     S
O124   Zn127   1.902   .     S
O125   Zn128   1.953   .     S
C129   O178    1.280   .     A
C129   O183    1.281   .     A
C129   C137    1.409   .     S
C130   C132    1.460   .     S
C130   C151    1.407   .     A
C130   C147    1.400   .     A
C131   C137    1.390   .     A
C131   H159    1.084   .     S
C131   C325    1.379   .     S
C132   O185    1.296   .     A
C132   O184    1.290   .     A
C133   C134    1.400   .     A
C133   O190    1.383   .     S
C133   C515    1.379   1_545 S
C134   C135    1.405   .     A
C134   C143    1.415   .     S
C135   O179    1.383   .     S
C135   C520    1.398   1_545 S
C136   O180    1.383   .     S
C136   C137    1.398   .     A
C136   C327    1.398   .     S
C138   O181    1.377   .     S
C138   N177    1.369   .     A
C138   C11     1.428   1_655 S
C139   N176    1.365   .     A
C139   H158    1.082   .     S
C140   C151    1.408   .     A
C140   C725    1.426   .     S
C140   C728    1.417   .     S
C141   N176    1.365   .     A
C141   H168    1.082   .     S
C142   H169    1.080   .     S
C142   N177    1.367   .     A
C142   C13     1.416   1_655 S
C143   O186    1.281   .     A
C143   O187    1.282   .     A
C144   O188    1.297   .     A
C144   C146    1.462   .     S
C144   O189    1.291   .     A
C145   C157    1.402   .     A
C145   C729    1.402   1_554 S
C145   H747    1.085   1_554 S
C146   C156    1.390   .     A
C146   C157    1.417   .     A
C147   H173    1.083   .     S
C147   C148    1.388   .     A
C148   C725    1.406   .     S
C148   H750    1.083   .     S
C149   O182    1.382   .     S
C149   C724    1.406   1_554 S
C149   C716    1.426   1_554 S
C150   C157    1.506   .     S
C150   H160    1.109   .     S
C150   H161    1.109   .     S
C150   H162    1.111   .     S
C151   C155    1.412   .     A
C152   C156    1.389   .     A
C152   C716    1.417   1_554 S
C152   C729    1.417   1_554 S
C153   C154    1.393   .     A
C153   C721    1.402   .     S
C153   C728    1.417   .     S
C154   C155    1.388   .     A
C154   H170    1.084   .     S
C155   H175    1.082   .     S
C156   H172    1.080   .     S
H163   O190    0.992   .     S
H164   O179    0.990   .     S
H165   O180    0.990   .     S
H167   O182    0.991   .     S
H171   C721    1.085   .     S
H174   C724    1.083   1_554 S
N176   Zn191   2.012   .     S
N177   Zn192   2.012   .     S
O178   Zn191   1.991   .     S
O181   H38     0.992   1_655 S
O183   Zn192   1.988   .     S
O184   Zn191   1.953   .     S
O185   Zn192   1.902   .     S
O186   Zn191   1.988   .     S
O187   Zn192   1.991   .     S
O188   Zn191   1.902   .     S
O189   Zn192   1.953   .     S
C193   O242    1.280   .     A
C193   O247    1.281   .     A
C193   C201    1.409   .     S
C194   C196    1.460   .     S
C194   C215    1.407   .     A
C194   C211    1.400   .     A
C195   C201    1.390   .     A
C195   H223    1.084   .     S
C195   C389    1.379   .     S
C196   O249    1.296   .     A
C196   O248    1.290   .     A
C197   C198    1.400   .     A
C197   O254    1.383   .     S
C198   C199    1.405   .     A
C198   C207    1.415   .     S
C199   O243    1.383   .     S
C200   O244    1.383   .     S
C200   C201    1.398   .     A
C200   C391    1.398   .     S
C202   O245    1.377   .     S
C202   N241    1.369   .     A
C202   C267    1.428   .     S
C203   N240    1.365   .     A
C203   H222    1.082   .     S
C203   C330    1.428   1_455 S
C204   C215    1.408   .     A
C204   C789    1.426   .     S
C204   C792    1.417   .     S
C205   N240    1.365   .     A
C205   H232    1.082   .     S
C205   C334    1.416   1_455 S
C206   H233    1.080   .     S
C206   N241    1.367   .     A
C206   C269    1.416   .     S
C207   O250    1.281   .     A
C207   O251    1.282   .     A
C208   O252    1.297   .     A
C208   C210    1.462   .     S
C208   O253    1.291   .     A
C209   C221    1.402   .     A
C209   C793    1.402   1_554 S
C209   H811    1.085   1_554 S
C210   C220    1.390   .     A
C210   C221    1.417   .     A
C211   H237    1.083   .     S
C211   C212    1.388   .     A
C212   C789    1.406   .     S
C212   H814    1.083   .     S
C213   O246    1.382   .     S
C213   C788    1.406   1_554 S
C213   C780    1.426   1_554 S
C214   C221    1.506   .     S
C214   H224    1.109   .     S
C214   H225    1.109   .     S
C214   H226    1.111   .     S
C215   C219    1.412   .     A
C216   C220    1.389   .     A
C216   C780    1.417   1_554 S
C216   C793    1.417   1_554 S
C217   C218    1.393   .     A
C217   C785    1.402   .     S
C217   C792    1.417   .     S
C218   C219    1.388   .     A
C218   H234    1.084   .     S
C219   H239    1.082   .     S
C220   H236    1.080   .     S
H227   O254    0.992   .     S
H228   O243    0.990   .     S
H229   O244    0.990   .     S
H230   O373    0.992   1_455 S
H231   O246    0.991   .     S
H235   C785    1.085   .     S
H238   C788    1.083   1_554 S
N240   Zn255   2.012   .     S
N241   Zn256   2.012   .     S
O242   Zn255   1.991   .     S
O245   H294    0.992   .     S
O247   Zn256   1.988   .     S
O248   Zn255   1.953   .     S
O249   Zn256   1.902   .     S
O250   Zn255   1.988   .     S
O251   Zn256   1.991   .     S
O252   Zn255   1.902   .     S
O253   Zn256   1.953   .     S
C257   O306    1.280   .     A
C257   O311    1.281   .     A
C257   C265    1.409   .     S
C258   C260    1.460   .     S
C258   C279    1.407   .     A
C258   C275    1.400   .     A
C259   C265    1.390   .     A
C259   H287    1.084   .     S
C259   C453    1.379   .     S
C260   O313    1.296   .     A
C260   O312    1.290   .     A
C261   C262    1.400   .     A
C261   O318    1.383   .     S
C262   C263    1.405   .     A
C262   C271    1.415   .     S
C263   O307    1.383   .     S
C264   O308    1.383   .     S
C264   C265    1.398   .     A
C264   C455    1.398   .     S
C266   O309    1.377   .     S
C266   N305    1.369   .     A
C266   C331    1.428   .     S
C267   N304    1.365   .     A
C267   H286    1.082   .     S
C268   C279    1.408   .     A
C268   C853    1.426   .     S
C268   C856    1.417   .     S
C269   N304    1.365   .     A
C269   H296    1.082   .     S
C270   H297    1.080   .     S
C270   N305    1.367   .     A
C270   C333    1.416   .     S
C271   O314    1.281   .     A
C271   O315    1.282   .     A
C272   O316    1.297   .     A
C272   C274    1.462   .     S
C272   O317    1.291   .     A
C273   C285    1.402   .     A
C273   C857    1.402   1_554 S
C273   H875    1.085   1_554 S
C274   C284    1.390   .     A
C274   C285    1.417   .     A
C275   H301    1.083   .     S
C275   C276    1.388   .     A
C276   C853    1.406   .     S
C276   H878    1.083   .     S
C277   O310    1.382   .     S
C277   C852    1.406   1_554 S
C277   C844    1.426   1_554 S
C278   C285    1.506   .     S
C278   H288    1.109   .     S
C278   H289    1.109   .     S
C278   H290    1.111   .     S
C279   C283    1.412   .     A
C280   C284    1.389   .     A
C280   C844    1.417   1_554 S
C280   C857    1.417   1_554 S
C281   C282    1.393   .     A
C281   C849    1.402   .     S
C281   C856    1.417   .     S
C282   C283    1.388   .     A
C282   H298    1.084   .     S
C283   H303    1.082   .     S
C284   H300    1.080   .     S
H291   O318    0.992   .     S
H292   O307    0.990   .     S
H293   O308    0.990   .     S
H295   O310    0.991   .     S
H299   C849    1.085   .     S
H302   C852    1.083   1_554 S
N304   Zn319   2.012   .     S
N305   Zn320   2.012   .     S
O306   Zn319   1.991   .     S
O309   H358    0.992   .     S
O311   Zn320   1.988   .     S
O312   Zn319   1.953   .     S
O313   Zn320   1.902   .     S
O314   Zn319   1.988   .     S
O315   Zn320   1.991   .     S
O316   Zn319   1.902   .     S
O317   Zn320   1.953   .     S
C321   O370    1.280   .     A
C321   O375    1.281   .     A
C321   C329    1.409   .     S
C322   C324    1.460   .     S
C322   C343    1.407   .     A
C322   C339    1.400   .     A
C323   C329    1.390   .     A
C323   H351    1.084   .     S
C323   C517    1.379   .     S
C324   O377    1.296   .     A
C324   O376    1.290   .     A
C325   C326    1.400   .     A
C325   O382    1.383   .     S
C326   C327    1.405   .     A
C326   C335    1.415   .     S
C327   O371    1.383   .     S
C328   O372    1.383   .     S
C328   C329    1.398   .     A
C328   C519    1.398   .     S
C330   O373    1.377   .     S
C330   N369    1.369   .     A
C330   C203    1.428   1_655 S
C331   N368    1.365   .     A
C331   H350    1.082   .     S
C332   C343    1.408   .     A
C332   C917    1.426   .     S
C332   C920    1.417   .     S
C333   N368    1.365   .     A
C333   H360    1.082   .     S
C334   H361    1.080   .     S
C334   N369    1.367   .     A
C334   C205    1.416   1_655 S
C335   O378    1.281   .     A
C335   O379    1.282   .     A
C336   O380    1.297   .     A
C336   C338    1.462   .     S
C336   O381    1.291   .     A
C337   C349    1.402   .     A
C337   C921    1.402   1_554 S
C337   H939    1.085   1_554 S
C338   C348    1.390   .     A
C338   C349    1.417   .     A
C339   H365    1.083   .     S
C339   C340    1.388   .     A
C340   C917    1.406   .     S
C340   H942    1.083   .     S
C341   O374    1.382   .     S
C341   C916    1.406   1_554 S
C341   C908    1.426   1_554 S
C342   C349    1.506   .     S
C342   H352    1.109   .     S
C342   H353    1.109   .     S
C342   H354    1.111   .     S
C343   C347    1.412   .     A
C344   C348    1.389   .     A
C344   C908    1.417   1_554 S
C344   C921    1.417   1_554 S
C345   C346    1.393   .     A
C345   C913    1.402   .     S
C345   C920    1.417   .     S
C346   C347    1.388   .     A
C346   H362    1.084   .     S
C347   H367    1.082   .     S
C348   H364    1.080   .     S
H355   O382    0.992   .     S
H356   O371    0.990   .     S
H357   O372    0.990   .     S
H359   O374    0.991   .     S
H363   C913    1.085   .     S
H366   C916    1.083   1_554 S
N368   Zn383   2.012   .     S
N369   Zn384   2.012   .     S
O370   Zn383   1.991   .     S
O373   H230    0.992   1_655 S
O375   Zn384   1.988   .     S
O376   Zn383   1.953   .     S
O377   Zn384   1.902   .     S
O378   Zn383   1.988   .     S
O379   Zn384   1.991   .     S
O380   Zn383   1.902   .     S
O381   Zn384   1.953   .     S
C385   O434    1.280   .     A
C385   O439    1.281   .     A
C385   C393    1.409   .     S
C386   C388    1.460   .     S
C386   C407    1.407   .     A
C386   C403    1.400   .     A
C387   C393    1.390   .     A
C387   H415    1.084   .     S
C387   C5      1.379   1_565 S
C388   O441    1.296   .     A
C388   O440    1.290   .     A
C389   C390    1.400   .     A
C389   O446    1.383   .     S
C390   C391    1.405   .     A
C390   C399    1.415   .     S
C391   O435    1.383   .     S
C392   O436    1.383   .     S
C392   C393    1.398   .     A
C392   C7      1.398   1_565 S
C394   O437    1.377   .     S
C394   N433    1.369   .     A
C394   C459    1.428   .     S
C395   N432    1.365   .     A
C395   H414    1.082   .     S
C395   C522    1.428   1_455 S
C396   C407    1.408   .     A
C396   C981    1.426   .     S
C396   C984    1.417   .     S
C397   N432    1.365   .     A
C397   H424    1.082   .     S
C397   C526    1.416   1_455 S
C398   H425    1.080   .     S
C398   N433    1.367   .     A
C398   C461    1.416   .     S
C399   O442    1.281   .     A
C399   O443    1.282   .     A
C400   O444    1.297   .     A
C400   C402    1.462   .     S
C400   O445    1.291   .     A
C401   C413    1.402   .     A
C401   C985    1.402   1_554 S
C401   H1003   1.085   1_554 S
C402   C412    1.390   .     A
C402   C413    1.417   .     A
C403   H429    1.083   .     S
C403   C404    1.388   .     A
C404   C981    1.406   .     S
C404   H1006   1.083   .     S
C405   O438    1.382   .     S
C405   C980    1.406   1_554 S
C405   C972    1.426   1_554 S
C406   C413    1.506   .     S
C406   H416    1.109   .     S
C406   H417    1.109   .     S
C406   H418    1.111   .     S
C407   C411    1.412   .     A
C408   C412    1.389   .     A
C408   C972    1.417   1_554 S
C408   C985    1.417   1_554 S
C409   C410    1.393   .     A
C409   C977    1.402   .     S
C409   C984    1.417   .     S
C410   C411    1.388   .     A
C410   H426    1.084   .     S
C411   H431    1.082   .     S
C412   H428    1.080   .     S
H419   O446    0.992   .     S
H420   O435    0.990   .     S
H421   O436    0.990   .     S
H422   O565    0.992   1_455 S
H423   O438    0.991   .     S
H427   C977    1.085   .     S
H430   C980    1.083   1_554 S
N432   Zn447   2.012   .     S
N433   Zn448   2.012   .     S
O434   Zn447   1.991   .     S
O437   H486    0.992   .     S
O439   Zn448   1.988   .     S
O440   Zn447   1.953   .     S
O441   Zn448   1.902   .     S
O442   Zn447   1.988   .     S
O443   Zn448   1.991   .     S
O444   Zn447   1.902   .     S
O445   Zn448   1.953   .     S
C449   O498    1.280   .     A
C449   O503    1.281   .     A
C449   C457    1.409   .     S
C450   C452    1.460   .     S
C450   C471    1.407   .     A
C450   C467    1.400   .     A
C451   C457    1.390   .     A
C451   H479    1.084   .     S
C451   C69     1.379   1_565 S
C452   O505    1.296   .     A
C452   O504    1.290   .     A
C453   C454    1.400   .     A
C453   O510    1.383   .     S
C454   C455    1.405   .     A
C454   C463    1.415   .     S
C455   O499    1.383   .     S
C456   O500    1.383   .     S
C456   C457    1.398   .     A
C456   C71     1.398   1_565 S
C458   O501    1.377   .     S
C458   N497    1.369   .     A
C458   C523    1.428   .     S
C459   N496    1.365   .     A
C459   H478    1.082   .     S
C460   C471    1.408   .     A
C460   C1045   1.426   .     S
C460   C1048   1.417   .     S
C461   N496    1.365   .     A
C461   H488    1.082   .     S
C462   H489    1.080   .     S
C462   N497    1.367   .     A
C462   C525    1.416   .     S
C463   O506    1.281   .     A
C463   O507    1.282   .     A
C464   O508    1.297   .     A
C464   C466    1.462   .     S
C464   O509    1.291   .     A
C465   C477    1.402   .     A
C465   C1049   1.402   1_554 S
C465   H1067   1.085   1_554 S
C466   C476    1.390   .     A
C466   C477    1.417   .     A
C467   H493    1.083   .     S
C467   C468    1.388   .     A
C468   C1045   1.406   .     S
C468   H1070   1.083   .     S
C469   O502    1.382   .     S
C469   C1044   1.406   1_554 S
C469   C1036   1.426   1_554 S
C470   C477    1.506   .     S
C470   H480    1.109   .     S
C470   H481    1.109   .     S
C470   H482    1.111   .     S
C471   C475    1.412   .     A
C472   C476    1.389   .     A
C472   C1036   1.417   1_554 S
C472   C1049   1.417   1_554 S
C473   C474    1.393   .     A
C473   C1041   1.402   .     S
C473   C1048   1.417   .     S
C474   C475    1.388   .     A
C474   H490    1.084   .     S
C475   H495    1.082   .     S
C476   H492    1.080   .     S
H483   O510    0.992   .     S
H484   O499    0.990   .     S
H485   O500    0.990   .     S
H487   O502    0.991   .     S
H491   C1041   1.085   .     S
H494   C1044   1.083   1_554 S
N496   Zn511   2.012   .     S
N497   Zn512   2.012   .     S
O498   Zn511   1.991   .     S
O501   H550    0.992   .     S
O503   Zn512   1.988   .     S
O504   Zn511   1.953   .     S
O505   Zn512   1.902   .     S
O506   Zn511   1.988   .     S
O507   Zn512   1.991   .     S
O508   Zn511   1.902   .     S
O509   Zn512   1.953   .     S
C513   O562    1.280   .     A
C513   O567    1.281   .     A
C513   C521    1.409   .     S
C514   C516    1.460   .     S
C514   C535    1.407   .     A
C514   C531    1.400   .     A
C515   C521    1.390   .     A
C515   H543    1.084   .     S
C515   C133    1.379   1_565 S
C516   O569    1.296   .     A
C516   O568    1.290   .     A
C517   C518    1.400   .     A
C517   O574    1.383   .     S
C518   C519    1.405   .     A
C518   C527    1.415   .     S
C519   O563    1.383   .     S
C520   O564    1.383   .     S
C520   C521    1.398   .     A
C520   C135    1.398   1_565 S
C522   O565    1.377   .     S
C522   N561    1.369   .     A
C522   C395    1.428   1_655 S
C523   N560    1.365   .     A
C523   H542    1.082   .     S
C524   C535    1.408   .     A
C524   C1109   1.426   .     S
C524   C1112   1.417   .     S
C525   N560    1.365   .     A
C525   H552    1.082   .     S
C526   H553    1.080   .     S
C526   N561    1.367   .     A
C526   C397    1.416   1_655 S
C527   O570    1.281   .     A
C527   O571    1.282   .     A
C528   O572    1.297   .     A
C528   C530    1.462   .     S
C528   O573    1.291   .     A
C529   C541    1.402   .     A
C529   C1113   1.402   1_554 S
C529   H1131   1.085   1_554 S
C530   C540    1.390   .     A
C530   C541    1.417   .     A
C531   H557    1.083   .     S
C531   C532    1.388   .     A
C532   C1109   1.406   .     S
C532   H1134   1.083   .     S
C533   O566    1.382   .     S
C533   C1108   1.406   1_554 S
C533   C1100   1.426   1_554 S
C534   C541    1.506   .     S
C534   H544    1.109   .     S
C534   H545    1.109   .     S
C534   H546    1.111   .     S
C535   C539    1.412   .     A
C536   C540    1.389   .     A
C536   C1100   1.417   1_554 S
C536   C1113   1.417   1_554 S
C537   C538    1.393   .     A
C537   C1105   1.402   .     S
C537   C1112   1.417   .     S
C538   C539    1.388   .     A
C538   H554    1.084   .     S
C539   H559    1.082   .     S
C540   H556    1.080   .     S
H547   O574    0.992   .     S
H548   O563    0.990   .     S
H549   O564    0.990   .     S
H551   O566    0.991   .     S
H555   C1105   1.085   .     S
H558   C1108   1.083   1_554 S
N560   Zn575   2.012   .     S
N561   Zn576   2.012   .     S
O562   Zn575   1.991   .     S
O565   H422    0.992   1_655 S
O567   Zn576   1.988   .     S
O568   Zn575   1.953   .     S
O569   Zn576   1.902   .     S
O570   Zn575   1.988   .     S
O571   Zn576   1.991   .     S
O572   Zn575   1.902   .     S
O573   Zn576   1.953   .     S
C577   O626    1.280   .     A
C577   O631    1.281   .     A
C577   C585    1.409   .     S
C578   C580    1.460   .     S
C578   C599    1.407   .     A
C578   C595    1.400   .     A
C579   C585    1.390   .     A
C579   H607    1.084   .     S
C579   C773    1.379   .     S
C580   O633    1.296   .     A
C580   O632    1.290   .     A
C581   C582    1.400   .     A
C581   O638    1.383   .     S
C581   C963    1.379   1_545 S
C582   C583    1.405   .     A
C582   C591    1.415   .     S
C583   O627    1.383   .     S
C583   C968    1.398   1_545 S
C584   O628    1.383   .     S
C584   C585    1.398   .     A
C584   C775    1.398   .     S
C586   O629    1.377   .     S
C586   N625    1.369   .     A
C586   C651    1.428   .     S
C587   N624    1.365   .     A
C587   H606    1.082   .     S
C587   C714    1.428   1_455 S
C588   C599    1.408   .     A
C588   C21     1.426   1_556 S
C588   C24     1.417   1_556 S
C589   N624    1.365   .     A
C589   H616    1.082   .     S
C589   C718    1.416   1_455 S
C590   H617    1.080   .     S
C590   N625    1.367   .     A
C590   C653    1.416   .     S
C591   O634    1.281   .     A
C591   O635    1.282   .     A
C592   O636    1.297   .     A
C592   C594    1.462   .     S
C592   O637    1.291   .     A
C593   C605    1.402   .     A
C594   C604    1.390   .     A
C594   C605    1.417   .     A
C595   H621    1.083   .     S
C595   C596    1.388   .     A
C596   C21     1.406   1_556 S
C596   H46     1.083   1_556 S
C597   O630    1.382   .     S
C598   C605    1.506   .     S
C598   H608    1.109   .     S
C598   H609    1.109   .     S
C598   H610    1.111   .     S
C599   C603    1.412   .     A
C600   C604    1.389   .     A
C601   C602    1.393   .     A
C601   C17     1.402   1_556 S
C601   C24     1.417   1_556 S
C602   C603    1.388   .     A
C602   H618    1.084   .     S
C603   H623    1.082   .     S
C604   H620    1.080   .     S
H611   O638    0.992   .     S
H612   O627    0.990   .     S
H613   O628    0.990   .     S
H614   O757    0.992   1_455 S
H615   O630    0.991   .     S
H619   C17     1.085   1_556 S
N624   Zn639   2.012   .     S
N625   Zn640   2.012   .     S
O626   Zn639   1.991   .     S
O629   H678    0.992   .     S
O631   Zn640   1.988   .     S
O632   Zn639   1.953   .     S
O633   Zn640   1.902   .     S
O634   Zn639   1.988   .     S
O635   Zn640   1.991   .     S
O636   Zn639   1.902   .     S
O637   Zn640   1.953   .     S
C641   O690    1.280   .     A
C641   O695    1.281   .     A
C641   C649    1.409   .     S
C642   C644    1.460   .     S
C642   C663    1.407   .     A
C642   C659    1.400   .     A
C643   C649    1.390   .     A
C643   H671    1.084   .     S
C643   C837    1.379   .     S
C644   O697    1.296   .     A
C644   O696    1.290   .     A
C645   C646    1.400   .     A
C645   O702    1.383   .     S
C645   C1027   1.379   1_545 S
C646   C647    1.405   .     A
C646   C655    1.415   .     S
C647   O691    1.383   .     S
C647   C1032   1.398   1_545 S
C648   O692    1.383   .     S
C648   C649    1.398   .     A
C648   C839    1.398   .     S
C650   O693    1.377   .     S
C650   N689    1.369   .     A
C650   C715    1.428   .     S
C651   N688    1.365   .     A
C651   H670    1.082   .     S
C652   C663    1.408   .     A
C652   C85     1.426   1_556 S
C652   C88     1.417   1_556 S
C653   N688    1.365   .     A
C653   H680    1.082   .     S
C654   H681    1.080   .     S
C654   N689    1.367   .     A
C654   C717    1.416   .     S
C655   O698    1.281   .     A
C655   O699    1.282   .     A
C656   O700    1.297   .     A
C656   C658    1.462   .     S
C656   O701    1.291   .     A
C657   C669    1.402   .     A
C658   C668    1.390   .     A
C658   C669    1.417   .     A
C659   H685    1.083   .     S
C659   C660    1.388   .     A
C660   C85     1.406   1_556 S
C660   H110    1.083   1_556 S
C661   O694    1.382   .     S
C662   C669    1.506   .     S
C662   H672    1.109   .     S
C662   H673    1.109   .     S
C662   H674    1.111   .     S
C663   C667    1.412   .     A
C664   C668    1.389   .     A
C665   C666    1.393   .     A
C665   C81     1.402   1_556 S
C665   C88     1.417   1_556 S
C666   C667    1.388   .     A
C666   H682    1.084   .     S
C667   H687    1.082   .     S
C668   H684    1.080   .     S
H675   O702    0.992   .     S
H676   O691    0.990   .     S
H677   O692    0.990   .     S
H679   O694    0.991   .     S
H683   C81     1.085   1_556 S
N688   Zn703   2.012   .     S
N689   Zn704   2.012   .     S
O690   Zn703   1.991   .     S
O693   H742    0.992   .     S
O695   Zn704   1.988   .     S
O696   Zn703   1.953   .     S
O697   Zn704   1.902   .     S
O698   Zn703   1.988   .     S
O699   Zn704   1.991   .     S
O700   Zn703   1.902   .     S
O701   Zn704   1.953   .     S
C705   O754    1.280   .     A
C705   O759    1.281   .     A
C705   C713    1.409   .     S
C706   C708    1.460   .     S
C706   C727    1.407   .     A
C706   C723    1.400   .     A
C707   C713    1.390   .     A
C707   H735    1.084   .     S
C707   C901    1.379   .     S
C708   O761    1.296   .     A
C708   O760    1.290   .     A
C709   C710    1.400   .     A
C709   O766    1.383   .     S
C709   C1091   1.379   1_545 S
C710   C711    1.405   .     A
C710   C719    1.415   .     S
C711   O755    1.383   .     S
C711   C1096   1.398   1_545 S
C712   O756    1.383   .     S
C712   C713    1.398   .     A
C712   C903    1.398   .     S
C714   O757    1.377   .     S
C714   N753    1.369   .     A
C714   C587    1.428   1_655 S
C715   N752    1.365   .     A
C715   H734    1.082   .     S
C716   C727    1.408   .     A
C716   C149    1.426   1_556 S
C716   C152    1.417   1_556 S
C717   N752    1.365   .     A
C717   H744    1.082   .     S
C718   H745    1.080   .     S
C718   N753    1.367   .     A
C718   C589    1.416   1_655 S
C719   O762    1.281   .     A
C719   O763    1.282   .     A
C720   O764    1.297   .     A
C720   C722    1.462   .     S
C720   O765    1.291   .     A
C721   C733    1.402   .     A
C722   C732    1.390   .     A
C722   C733    1.417   .     A
C723   H749    1.083   .     S
C723   C724    1.388   .     A
C724   C149    1.406   1_556 S
C724   H174    1.083   1_556 S
C725   O758    1.382   .     S
C726   C733    1.506   .     S
C726   H736    1.109   .     S
C726   H737    1.109   .     S
C726   H738    1.111   .     S
C727   C731    1.412   .     A
C728   C732    1.389   .     A
C729   C730    1.393   .     A
C729   C145    1.402   1_556 S
C729   C152    1.417   1_556 S
C730   C731    1.388   .     A
C730   H746    1.084   .     S
C731   H751    1.082   .     S
C732   H748    1.080   .     S
H739   O766    0.992   .     S
H740   O755    0.990   .     S
H741   O756    0.990   .     S
H743   O758    0.991   .     S
H747   C145    1.085   1_556 S
N752   Zn767   2.012   .     S
N753   Zn768   2.012   .     S
O754   Zn767   1.991   .     S
O757   H614    0.992   1_655 S
O759   Zn768   1.988   .     S
O760   Zn767   1.953   .     S
O761   Zn768   1.902   .     S
O762   Zn767   1.988   .     S
O763   Zn768   1.991   .     S
O764   Zn767   1.902   .     S
O765   Zn768   1.953   .     S
C769   O818    1.280   .     A
C769   O823    1.281   .     A
C769   C777    1.409   .     S
C770   C772    1.460   .     S
C770   C791    1.407   .     A
C770   C787    1.400   .     A
C771   C777    1.390   .     A
C771   H799    1.084   .     S
C771   C965    1.379   .     S
C772   O825    1.296   .     A
C772   O824    1.290   .     A
C773   C774    1.400   .     A
C773   O830    1.383   .     S
C774   C775    1.405   .     A
C774   C783    1.415   .     S
C775   O819    1.383   .     S
C776   O820    1.383   .     S
C776   C777    1.398   .     A
C776   C967    1.398   .     S
C778   O821    1.377   .     S
C778   N817    1.369   .     A
C778   C843    1.428   .     S
C779   N816    1.365   .     A
C779   H798    1.082   .     S
C779   C906    1.428   1_455 S
C780   C791    1.408   .     A
C780   C213    1.426   1_556 S
C780   C216    1.417   1_556 S
C781   N816    1.365   .     A
C781   H808    1.082   .     S
C781   C910    1.416   1_455 S
C782   H809    1.080   .     S
C782   N817    1.367   .     A
C782   C845    1.416   .     S
C783   O826    1.281   .     A
C783   O827    1.282   .     A
C784   O828    1.297   .     A
C784   C786    1.462   .     S
C784   O829    1.291   .     A
C785   C797    1.402   .     A
C786   C796    1.390   .     A
C786   C797    1.417   .     A
C787   H813    1.083   .     S
C787   C788    1.388   .     A
C788   C213    1.406   1_556 S
C788   H238    1.083   1_556 S
C789   O822    1.382   .     S
C790   C797    1.506   .     S
C790   H800    1.109   .     S
C790   H801    1.109   .     S
C790   H802    1.111   .     S
C791   C795    1.412   .     A
C792   C796    1.389   .     A
C793   C794    1.393   .     A
C793   C209    1.402   1_556 S
C793   C216    1.417   1_556 S
C794   C795    1.388   .     A
C794   H810    1.084   .     S
C795   H815    1.082   .     S
C796   H812    1.080   .     S
H803   O830    0.992   .     S
H804   O819    0.990   .     S
H805   O820    0.990   .     S
H806   O949    0.992   1_455 S
H807   O822    0.991   .     S
H811   C209    1.085   1_556 S
N816   Zn831   2.012   .     S
N817   Zn832   2.012   .     S
O818   Zn831   1.991   .     S
O821   H870    0.992   .     S
O823   Zn832   1.988   .     S
O824   Zn831   1.953   .     S
O825   Zn832   1.902   .     S
O826   Zn831   1.988   .     S
O827   Zn832   1.991   .     S
O828   Zn831   1.902   .     S
O829   Zn832   1.953   .     S
C833   O882    1.280   .     A
C833   O887    1.281   .     A
C833   C841    1.409   .     S
C834   C836    1.460   .     S
C834   C855    1.407   .     A
C834   C851    1.400   .     A
C835   C841    1.390   .     A
C835   H863    1.084   .     S
C835   C1029   1.379   .     S
C836   O889    1.296   .     A
C836   O888    1.290   .     A
C837   C838    1.400   .     A
C837   O894    1.383   .     S
C838   C839    1.405   .     A
C838   C847    1.415   .     S
C839   O883    1.383   .     S
C840   O884    1.383   .     S
C840   C841    1.398   .     A
C840   C1031   1.398   .     S
C842   O885    1.377   .     S
C842   N881    1.369   .     A
C842   C907    1.428   .     S
C843   N880    1.365   .     A
C843   H862    1.082   .     S
C844   C855    1.408   .     A
C844   C277    1.426   1_556 S
C844   C280    1.417   1_556 S
C845   N880    1.365   .     A
C845   H872    1.082   .     S
C846   H873    1.080   .     S
C846   N881    1.367   .     A
C846   C909    1.416   .     S
C847   O890    1.281   .     A
C847   O891    1.282   .     A
C848   O892    1.297   .     A
C848   C850    1.462   .     S
C848   O893    1.291   .     A
C849   C861    1.402   .     A
C850   C860    1.390   .     A
C850   C861    1.417   .     A
C851   H877    1.083   .     S
C851   C852    1.388   .     A
C852   C277    1.406   1_556 S
C852   H302    1.083   1_556 S
C853   O886    1.382   .     S
C854   C861    1.506   .     S
C854   H864    1.109   .     S
C854   H865    1.109   .     S
C854   H866    1.111   .     S
C855   C859    1.412   .     A
C856   C860    1.389   .     A
C857   C858    1.393   .     A
C857   C273    1.402   1_556 S
C857   C280    1.417   1_556 S
C858   C859    1.388   .     A
C858   H874    1.084   .     S
C859   H879    1.082   .     S
C860   H876    1.080   .     S
H867   O894    0.992   .     S
H868   O883    0.990   .     S
H869   O884    0.990   .     S
H871   O886    0.991   .     S
H875   C273    1.085   1_556 S
N880   Zn895   2.012   .     S
N881   Zn896   2.012   .     S
O882   Zn895   1.991   .     S
O885   H934    0.992   .     S
O887   Zn896   1.988   .     S
O888   Zn895   1.953   .     S
O889   Zn896   1.902   .     S
O890   Zn895   1.988   .     S
O891   Zn896   1.991   .     S
O892   Zn895   1.902   .     S
O893   Zn896   1.953   .     S
C897   O946    1.280   .     A
C897   O951    1.281   .     A
C897   C905    1.409   .     S
C898   C900    1.460   .     S
C898   C919    1.407   .     A
C898   C915    1.400   .     A
C899   C905    1.390   .     A
C899   H927    1.084   .     S
C899   C1093   1.379   .     S
C900   O953    1.296   .     A
C900   O952    1.290   .     A
C901   C902    1.400   .     A
C901   O958    1.383   .     S
C902   C903    1.405   .     A
C902   C911    1.415   .     S
C903   O947    1.383   .     S
C904   O948    1.383   .     S
C904   C905    1.398   .     A
C904   C1095   1.398   .     S
C906   O949    1.377   .     S
C906   N945    1.369   .     A
C906   C779    1.428   1_655 S
C907   N944    1.365   .     A
C907   H926    1.082   .     S
C908   C919    1.408   .     A
C908   C341    1.426   1_556 S
C908   C344    1.417   1_556 S
C909   N944    1.365   .     A
C909   H936    1.082   .     S
C910   H937    1.080   .     S
C910   N945    1.367   .     A
C910   C781    1.416   1_655 S
C911   O954    1.281   .     A
C911   O955    1.282   .     A
C912   O956    1.297   .     A
C912   C914    1.462   .     S
C912   O957    1.291   .     A
C913   C925    1.402   .     A
C914   C924    1.390   .     A
C914   C925    1.417   .     A
C915   H941    1.083   .     S
C915   C916    1.388   .     A
C916   C341    1.406   1_556 S
C916   H366    1.083   1_556 S
C917   O950    1.382   .     S
C918   C925    1.506   .     S
C918   H928    1.109   .     S
C918   H929    1.109   .     S
C918   H930    1.111   .     S
C919   C923    1.412   .     A
C920   C924    1.389   .     A
C921   C922    1.393   .     A
C921   C337    1.402   1_556 S
C921   C344    1.417   1_556 S
C922   C923    1.388   .     A
C922   H938    1.084   .     S
C923   H943    1.082   .     S
C924   H940    1.080   .     S
H931   O958    0.992   .     S
H932   O947    0.990   .     S
H933   O948    0.990   .     S
H935   O950    0.991   .     S
H939   C337    1.085   1_556 S
N944   Zn959   2.012   .     S
N945   Zn960   2.012   .     S
O946   Zn959   1.991   .     S
O949   H806    0.992   1_655 S
O951   Zn960   1.988   .     S
O952   Zn959   1.953   .     S
O953   Zn960   1.902   .     S
O954   Zn959   1.988   .     S
O955   Zn960   1.991   .     S
O956   Zn959   1.902   .     S
O957   Zn960   1.953   .     S
C961   O1010   1.280   .     A
C961   O1015   1.281   .     A
C961   C969    1.409   .     S
C962   C964    1.460   .     S
C962   C983    1.407   .     A
C962   C979    1.400   .     A
C963   C969    1.390   .     A
C963   H991    1.084   .     S
C963   C581    1.379   1_565 S
C964   O1017   1.296   .     A
C964   O1016   1.290   .     A
C965   C966    1.400   .     A
C965   O1022   1.383   .     S
C966   C967    1.405   .     A
C966   C975    1.415   .     S
C967   O1011   1.383   .     S
C968   O1012   1.383   .     S
C968   C969    1.398   .     A
C968   C583    1.398   1_565 S
C970   O1013   1.377   .     S
C970   N1009   1.369   .     A
C970   C1035   1.428   .     S
C971   N1008   1.365   .     A
C971   H990    1.082   .     S
C971   C1098   1.428   1_455 S
C972   C983    1.408   .     A
C972   C405    1.426   1_556 S
C972   C408    1.417   1_556 S
C973   N1008   1.365   .     A
C973   H1000   1.082   .     S
C973   C1102   1.416   1_455 S
C974   H1001   1.080   .     S
C974   N1009   1.367   .     A
C974   C1037   1.416   .     S
C975   O1018   1.281   .     A
C975   O1019   1.282   .     A
C976   O1020   1.297   .     A
C976   C978    1.462   .     S
C976   O1021   1.291   .     A
C977   C989    1.402   .     A
C978   C988    1.390   .     A
C978   C989    1.417   .     A
C979   H1005   1.083   .     S
C979   C980    1.388   .     A
C980   C405    1.406   1_556 S
C980   H430    1.083   1_556 S
C981   O1014   1.382   .     S
C982   C989    1.506   .     S
C982   H992    1.109   .     S
C982   H993    1.109   .     S
C982   H994    1.111   .     S
C983   C987    1.412   .     A
C984   C988    1.389   .     A
C985   C986    1.393   .     A
C985   C401    1.402   1_556 S
C985   C408    1.417   1_556 S
C986   C987    1.388   .     A
C986   H1002   1.084   .     S
C987   H1007   1.082   .     S
C988   H1004   1.080   .     S
H995   O1022   0.992   .     S
H996   O1011   0.990   .     S
H997   O1012   0.990   .     S
H998   O1141   0.992   1_455 S
H999   O1014   0.991   .     S
H1003  C401    1.085   1_556 S
N1008  Zn1023  2.012   .     S
N1009  Zn1024  2.012   .     S
O1010  Zn1023  1.991   .     S
O1013  H1062   0.992   .     S
O1015  Zn1024  1.988   .     S
O1016  Zn1023  1.953   .     S
O1017  Zn1024  1.902   .     S
O1018  Zn1023  1.988   .     S
O1019  Zn1024  1.991   .     S
O1020  Zn1023  1.902   .     S
O1021  Zn1024  1.953   .     S
C1025  O1074   1.280   .     A
C1025  O1079   1.281   .     A
C1025  C1033   1.409   .     S
C1026  C1028   1.460   .     S
C1026  C1047   1.407   .     A
C1026  C1043   1.400   .     A
C1027  C1033   1.390   .     A
C1027  H1055   1.084   .     S
C1027  C645    1.379   1_565 S
C1028  O1081   1.296   .     A
C1028  O1080   1.290   .     A
C1029  C1030   1.400   .     A
C1029  O1086   1.383   .     S
C1030  C1031   1.405   .     A
C1030  C1039   1.415   .     S
C1031  O1075   1.383   .     S
C1032  O1076   1.383   .     S
C1032  C1033   1.398   .     A
C1032  C647    1.398   1_565 S
C1034  O1077   1.377   .     S
C1034  N1073   1.369   .     A
C1034  C1099   1.428   .     S
C1035  N1072   1.365   .     A
C1035  H1054   1.082   .     S
C1036  C1047   1.408   .     A
C1036  C469    1.426   1_556 S
C1036  C472    1.417   1_556 S
C1037  N1072   1.365   .     A
C1037  H1064   1.082   .     S
C1038  H1065   1.080   .     S
C1038  N1073   1.367   .     A
C1038  C1101   1.416   .     S
C1039  O1082   1.281   .     A
C1039  O1083   1.282   .     A
C1040  O1084   1.297   .     A
C1040  C1042   1.462   .     S
C1040  O1085   1.291   .     A
C1041  C1053   1.402   .     A
C1042  C1052   1.390   .     A
C1042  C1053   1.417   .     A
C1043  H1069   1.083   .     S
C1043  C1044   1.388   .     A
C1044  C469    1.406   1_556 S
C1044  H494    1.083   1_556 S
C1045  O1078   1.382   .     S
C1046  C1053   1.506   .     S
C1046  H1056   1.109   .     S
C1046  H1057   1.109   .     S
C1046  H1058   1.111   .     S
C1047  C1051   1.412   .     A
C1048  C1052   1.389   .     A
C1049  C1050   1.393   .     A
C1049  C465    1.402   1_556 S
C1049  C472    1.417   1_556 S
C1050  C1051   1.388   .     A
C1050  H1066   1.084   .     S
C1051  H1071   1.082   .     S
C1052  H1068   1.080   .     S
H1059  O1086   0.992   .     S
H1060  O1075   0.990   .     S
H1061  O1076   0.990   .     S
H1063  O1078   0.991   .     S
H1067  C465    1.085   1_556 S
N1072  Zn1087  2.012   .     S
N1073  Zn1088  2.012   .     S
O1074  Zn1087  1.991   .     S
O1077  H1126   0.992   .     S
O1079  Zn1088  1.988   .     S
O1080  Zn1087  1.953   .     S
O1081  Zn1088  1.902   .     S
O1082  Zn1087  1.988   .     S
O1083  Zn1088  1.991   .     S
O1084  Zn1087  1.902   .     S
O1085  Zn1088  1.953   .     S
C1089  O1138   1.280   .     A
C1089  O1143   1.281   .     A
C1089  C1097   1.409   .     S
C1090  C1092   1.460   .     S
C1090  C1111   1.407   .     A
C1090  C1107   1.400   .     A
C1091  C1097   1.390   .     A
C1091  H1119   1.084   .     S
C1091  C709    1.379   1_565 S
C1092  O1145   1.296   .     A
C1092  O1144   1.290   .     A
C1093  C1094   1.400   .     A
C1093  O1150   1.383   .     S
C1094  C1095   1.405   .     A
C1094  C1103   1.415   .     S
C1095  O1139   1.383   .     S
C1096  O1140   1.383   .     S
C1096  C1097   1.398   .     A
C1096  C711    1.398   1_565 S
C1098  O1141   1.377   .     S
C1098  N1137   1.369   .     A
C1098  C971    1.428   1_655 S
C1099  N1136   1.365   .     A
C1099  H1118   1.082   .     S
C1100  C1111   1.408   .     A
C1100  C533    1.426   1_556 S
C1100  C536    1.417   1_556 S
C1101  N1136   1.365   .     A
C1101  H1128   1.082   .     S
C1102  H1129   1.080   .     S
C1102  N1137   1.367   .     A
C1102  C973    1.416   1_655 S
C1103  O1146   1.281   .     A
C1103  O1147   1.282   .     A
C1104  O1148   1.297   .     A
C1104  C1106   1.462   .     S
C1104  O1149   1.291   .     A
C1105  C1117   1.402   .     A
C1106  C1116   1.390   .     A
C1106  C1117   1.417   .     A
C1107  H1133   1.083   .     S
C1107  C1108   1.388   .     A
C1108  C533    1.406   1_556 S
C1108  H558    1.083   1_556 S
C1109  O1142   1.382   .     S
C1110  C1117   1.506   .     S
C1110  H1120   1.109   .     S
C1110  H1121   1.109   .     S
C1110  H1122   1.111   .     S
C1111  C1115   1.412   .     A
C1112  C1116   1.389   .     A
C1113  C1114   1.393   .     A
C1113  C529    1.402   1_556 S
C1113  C536    1.417   1_556 S
C1114  C1115   1.388   .     A
C1114  H1130   1.084   .     S
C1115  H1135   1.082   .     S
C1116  H1132   1.080   .     S
H1123  O1150   0.992   .     S
H1124  O1139   0.990   .     S
H1125  O1140   0.990   .     S
H1127  O1142   0.991   .     S
H1131  C529    1.085   1_556 S
N1136  Zn1151  2.012   .     S
N1137  Zn1152  2.012   .     S
O1138  Zn1151  1.991   .     S
O1141  H998    0.992   1_655 S
O1143  Zn1152  1.988   .     S
O1144  Zn1151  1.953   .     S
O1145  Zn1152  1.902   .     S
O1146  Zn1151  1.988   .     S
O1147  Zn1152  1.991   .     S
O1148  Zn1151  1.902   .     S
O1149  Zn1152  1.953   .     S
