data_str_m3_o1_o10_pcu_sym.108
_audit_creation_date              2020-01-03
_audit_creation_method            'Materials Studio'
_symmetry_space_group_name_H-M    'P1'
_symmetry_Int_Tables_number       1
_symmetry_cell_setting            triclinic
loop_
_symmetry_equiv_pos_as_xyz
  x,y,z
_cell_length_a                    25.7932
_cell_length_b                    32.0797
_cell_length_c                    29.9801
_cell_angle_alpha                 90.2003
_cell_angle_beta                  97.9893
_cell_angle_gamma                 93.2795
loop_
_atom_site_label
_atom_site_type_symbol
_atom_site_fract_x
_atom_site_fract_y
_atom_site_fract_z
_atom_site_U_iso_or_equiv
_atom_site_adp_type
_atom_site_occupancy
O1     O     0.16666   0.10558   0.20487   0.00000  Uiso   1.00
O2     O     0.16667   0.22775   0.12846   0.00000  Uiso   1.00
O3     O     0.16666   0.10559   0.12843   0.00000  Uiso   1.00
O4     O     0.16667   0.22774   0.20490   0.00000  Uiso   1.00
C5     C     0.16693   0.08681   0.16657   0.00000  Uiso   1.00
C6     C     0.16640   0.24652   0.16676   0.00000  Uiso   1.00
O7     O     0.09058   0.16666   0.19595   0.00000  Uiso   1.00
O8     O     0.24275   0.16667   0.13739   0.00000  Uiso   1.00
O9     O     0.09058   0.16667   0.11950   0.00000  Uiso   1.00
O10    O     0.24275   0.16666   0.21383   0.00000  Uiso   1.00
C11    C     0.06735   0.16569   0.15518   0.00000  Uiso   1.00
C12    C     0.26599   0.16765   0.17815   0.00000  Uiso   1.00
Zn13   Zn    0.16667   0.16666   0.21771   0.00000  Uiso   1.00
Zn14   Zn    0.16667   0.16667   0.11563   0.00000  Uiso   1.00
N15    N     0.16665   0.16666   0.28573   0.00000  Uiso   1.00
N16    N     0.16668   0.16668   0.04760   0.00000  Uiso   1.00
C17    C     0.01262   0.15806   0.15102   0.00000  Uiso   1.00
C18    C     0.32072   0.17527   0.18232   0.00000  Uiso   1.00
C19    C     0.14760   0.02022   0.12709   0.00000  Uiso   1.00
C20    C     0.18573   0.31311   0.20624   0.00000  Uiso   1.00
H21    H     0.13268   0.03547   0.09632   0.00000  Uiso   1.00
H22    H     0.20065   0.29786   0.23701   0.00000  Uiso   1.00
C23    C     0.14624   0.31080   0.12753   0.00000  Uiso   1.00
C24    C     0.18709   0.02253   0.20581   0.00000  Uiso   1.00
H25    H     0.12957   0.29353   0.09734   0.00000  Uiso   1.00
H26    H     0.20375   0.03981   0.23600   0.00000  Uiso   1.00
C27    C     0.16586   0.29073   0.16695   0.00000  Uiso   1.00
C28    C     0.16747   0.04261   0.16638   0.00000  Uiso   1.00
C29    C     0.20319   0.19106   0.02794   0.00000  Uiso   1.00
C30    C     0.13014   0.14227   0.30539   0.00000  Uiso   1.00
C31    C     0.20473   0.18892   0.31379   0.00000  Uiso   1.00
C32    C     0.12860   0.14441   0.01954   0.00000  Uiso   1.00
N33    N     0.32296   0.12373   0.12254   0.00000  Uiso   1.00
O34    O     0.29934   0.13057   0.08225   0.00000  Uiso   1.00
O35    O     0.33210   0.08564   0.13464   0.00000  Uiso   1.00
N36    N     0.01037   0.20961   0.21079   0.00000  Uiso   1.00
O37    O     0.03399   0.20277   0.25108   0.00000  Uiso   1.00
O38    O     0.00123   0.24769   0.19869   0.00000  Uiso   1.00
C39    C     0.24007   0.22336   0.05513   0.00000  Uiso   1.00
C40    C     0.22599   0.26813   0.04250   0.00000  Uiso   1.00
C41    C     0.26017   0.30027   0.07284   0.00000  Uiso   1.00
H42    H     0.25534   0.29519   0.10869   0.00000  Uiso   1.00
H43    H     0.30209   0.29794   0.06886   0.00000  Uiso   1.00
H44    H     0.24845   0.33219   0.06342   0.00000  Uiso   1.00
H45    H     0.23133   0.27472   0.00715   0.00000  Uiso   1.00
H46    H     0.18417   0.27196   0.04573   0.00000  Uiso   1.00
H47    H     0.23861   0.22066   0.09100   0.00000  Uiso   1.00
H48    H     0.28135   0.21870   0.05072   0.00000  Uiso   1.00
C49    C     0.09326   0.10997   0.27820   0.00000  Uiso   1.00
C50    C     0.10732   0.06520   0.29083   0.00000  Uiso   1.00
C51    C     0.07315   0.03307   0.26048   0.00000  Uiso   1.00
H52    H     0.03122   0.03542   0.26443   0.00000  Uiso   1.00
H53    H     0.07802   0.03814   0.22463   0.00000  Uiso   1.00
H54    H     0.08484   0.00114   0.26992   0.00000  Uiso   1.00
H55    H     0.14914   0.06137   0.28762   0.00000  Uiso   1.00
H56    H     0.10196   0.05861   0.32618   0.00000  Uiso   1.00
H57    H     0.05198   0.11465   0.28260   0.00000  Uiso   1.00
H58    H     0.09473   0.11267   0.24234   0.00000  Uiso   1.00
N59    N     0.25007   0.20600   0.29632   0.00000  Uiso   1.00
O60    O     0.29526   0.19074   0.30908   0.00000  Uiso   1.00
O61    O     0.24738   0.23793   0.26984   0.00000  Uiso   1.00
N62    N     0.08326   0.12733   0.03702   0.00000  Uiso   1.00
O63    O     0.08596   0.09540   0.06350   0.00000  Uiso   1.00
O64    O     0.03807   0.14259   0.02425   0.00000  Uiso   1.00
O65    O     0.50000   0.10558   0.20487   0.00000  Uiso   1.00
O66    O     0.50000   0.22775   0.12846   0.00000  Uiso   1.00
O67    O     0.50000   0.10559   0.12843   0.00000  Uiso   1.00
O68    O     0.50000   0.22774   0.20490   0.00000  Uiso   1.00
C69    C     0.50026   0.08681   0.16657   0.00000  Uiso   1.00
C70    C     0.49974   0.24652   0.16676   0.00000  Uiso   1.00
O71    O     0.42392   0.16666   0.19595   0.00000  Uiso   1.00
O72    O     0.57608   0.16667   0.13739   0.00000  Uiso   1.00
O73    O     0.42392   0.16667   0.11950   0.00000  Uiso   1.00
O74    O     0.57608   0.16666   0.21383   0.00000  Uiso   1.00
C75    C     0.40068   0.16569   0.15518   0.00000  Uiso   1.00
C76    C     0.59932   0.16765   0.17815   0.00000  Uiso   1.00
Zn77   Zn    0.50000   0.16666   0.21771   0.00000  Uiso   1.00
Zn78   Zn    0.50000   0.16667   0.11563   0.00000  Uiso   1.00
N79    N     0.49999   0.16666   0.28573   0.00000  Uiso   1.00
N80    N     0.50001   0.16668   0.04760   0.00000  Uiso   1.00
C81    C     0.34595   0.15806   0.15102   0.00000  Uiso   1.00
C82    C     0.65405   0.17527   0.18232   0.00000  Uiso   1.00
C83    C     0.48094   0.02022   0.12709   0.00000  Uiso   1.00
C84    C     0.51906   0.31311   0.20624   0.00000  Uiso   1.00
H85    H     0.46601   0.03547   0.09632   0.00000  Uiso   1.00
H86    H     0.53398   0.29786   0.23701   0.00000  Uiso   1.00
C87    C     0.47957   0.31080   0.12753   0.00000  Uiso   1.00
C88    C     0.52043   0.02253   0.20581   0.00000  Uiso   1.00
H89    H     0.46290   0.29353   0.09734   0.00000  Uiso   1.00
H90    H     0.53709   0.03981   0.23600   0.00000  Uiso   1.00
C91    C     0.49920   0.29073   0.16695   0.00000  Uiso   1.00
C92    C     0.50080   0.04261   0.16638   0.00000  Uiso   1.00
C93    C     0.53652   0.19106   0.02794   0.00000  Uiso   1.00
C94    C     0.46348   0.14227   0.30539   0.00000  Uiso   1.00
C95    C     0.53807   0.18892   0.31379   0.00000  Uiso   1.00
C96    C     0.46193   0.14441   0.01954   0.00000  Uiso   1.00
N97    N     0.65629   0.12373   0.12254   0.00000  Uiso   1.00
O98    O     0.63268   0.13057   0.08225   0.00000  Uiso   1.00
O99    O     0.66543   0.08564   0.13464   0.00000  Uiso   1.00
N100   N     0.34371   0.20961   0.21079   0.00000  Uiso   1.00
O101   O     0.36733   0.20277   0.25108   0.00000  Uiso   1.00
O102   O     0.33457   0.24769   0.19869   0.00000  Uiso   1.00
C103   C     0.57340   0.22336   0.05513   0.00000  Uiso   1.00
C104   C     0.55932   0.26813   0.04250   0.00000  Uiso   1.00
C105   C     0.59350   0.30027   0.07284   0.00000  Uiso   1.00
H106   H     0.58867   0.29519   0.10869   0.00000  Uiso   1.00
H107   H     0.63542   0.29794   0.06886   0.00000  Uiso   1.00
H108   H     0.58178   0.33219   0.06342   0.00000  Uiso   1.00
H109   H     0.56466   0.27472   0.00715   0.00000  Uiso   1.00
H110   H     0.51751   0.27196   0.04573   0.00000  Uiso   1.00
H111   H     0.57194   0.22066   0.09100   0.00000  Uiso   1.00
H112   H     0.61468   0.21870   0.05072   0.00000  Uiso   1.00
C113   C     0.42660   0.10997   0.27820   0.00000  Uiso   1.00
C114   C     0.44066   0.06520   0.29083   0.00000  Uiso   1.00
C115   C     0.40648   0.03307   0.26048   0.00000  Uiso   1.00
H116   H     0.36455   0.03542   0.26443   0.00000  Uiso   1.00
H117   H     0.41135   0.03814   0.22463   0.00000  Uiso   1.00
H118   H     0.41817   0.00114   0.26992   0.00000  Uiso   1.00
H119   H     0.48248   0.06137   0.28762   0.00000  Uiso   1.00
H120   H     0.43530   0.05861   0.32618   0.00000  Uiso   1.00
H121   H     0.38531   0.11465   0.28260   0.00000  Uiso   1.00
H122   H     0.42806   0.11267   0.24234   0.00000  Uiso   1.00
N123   N     0.58340   0.20600   0.29632   0.00000  Uiso   1.00
O124   O     0.62859   0.19074   0.30908   0.00000  Uiso   1.00
O125   O     0.58071   0.23793   0.26984   0.00000  Uiso   1.00
N126   N     0.41660   0.12733   0.03702   0.00000  Uiso   1.00
O127   O     0.41929   0.09540   0.06350   0.00000  Uiso   1.00
O128   O     0.37141   0.14259   0.02425   0.00000  Uiso   1.00
O129   O     0.83333   0.10558   0.20487   0.00000  Uiso   1.00
O130   O     0.83334   0.22775   0.12846   0.00000  Uiso   1.00
O131   O     0.83333   0.10559   0.12843   0.00000  Uiso   1.00
O132   O     0.83334   0.22774   0.20490   0.00000  Uiso   1.00
C133   C     0.83360   0.08681   0.16657   0.00000  Uiso   1.00
C134   C     0.83307   0.24652   0.16676   0.00000  Uiso   1.00
O135   O     0.75725   0.16666   0.19595   0.00000  Uiso   1.00
O136   O     0.90942   0.16667   0.13739   0.00000  Uiso   1.00
O137   O     0.75725   0.16667   0.11950   0.00000  Uiso   1.00
O138   O     0.90942   0.16666   0.21383   0.00000  Uiso   1.00
C139   C     0.73401   0.16569   0.15518   0.00000  Uiso   1.00
C140   C     0.93265   0.16765   0.17815   0.00000  Uiso   1.00
Zn141  Zn    0.83333   0.16666   0.21771   0.00000  Uiso   1.00
Zn142  Zn    0.83333   0.16667   0.11563   0.00000  Uiso   1.00
N143   N     0.83332   0.16666   0.28573   0.00000  Uiso   1.00
N144   N     0.83335   0.16668   0.04760   0.00000  Uiso   1.00
C145   C     0.67928   0.15806   0.15102   0.00000  Uiso   1.00
C146   C     0.98738   0.17527   0.18232   0.00000  Uiso   1.00
C147   C     0.81427   0.02022   0.12709   0.00000  Uiso   1.00
C148   C     0.85239   0.31311   0.20624   0.00000  Uiso   1.00
H149   H     0.79935   0.03547   0.09632   0.00000  Uiso   1.00
H150   H     0.86732   0.29786   0.23701   0.00000  Uiso   1.00
C151   C     0.81290   0.31080   0.12753   0.00000  Uiso   1.00
C152   C     0.85376   0.02253   0.20581   0.00000  Uiso   1.00
H153   H     0.79624   0.29353   0.09734   0.00000  Uiso   1.00
H154   H     0.87042   0.03981   0.23600   0.00000  Uiso   1.00
C155   C     0.83253   0.29073   0.16695   0.00000  Uiso   1.00
C156   C     0.83413   0.04261   0.16638   0.00000  Uiso   1.00
C157   C     0.86986   0.19106   0.02794   0.00000  Uiso   1.00
C158   C     0.79681   0.14227   0.30539   0.00000  Uiso   1.00
C159   C     0.87140   0.18892   0.31379   0.00000  Uiso   1.00
C160   C     0.79527   0.14441   0.01954   0.00000  Uiso   1.00
N161   N     0.98963   0.12373   0.12254   0.00000  Uiso   1.00
O162   O     0.96601   0.13057   0.08225   0.00000  Uiso   1.00
O163   O     0.99876   0.08564   0.13464   0.00000  Uiso   1.00
N164   N     0.67704   0.20961   0.21079   0.00000  Uiso   1.00
O165   O     0.70066   0.20277   0.25108   0.00000  Uiso   1.00
O166   O     0.66790   0.24769   0.19869   0.00000  Uiso   1.00
C167   C     0.90673   0.22336   0.05513   0.00000  Uiso   1.00
C168   C     0.89265   0.26813   0.04250   0.00000  Uiso   1.00
C169   C     0.92683   0.30027   0.07284   0.00000  Uiso   1.00
H170   H     0.92201   0.29519   0.10869   0.00000  Uiso   1.00
H171   H     0.96876   0.29794   0.06886   0.00000  Uiso   1.00
H172   H     0.91512   0.33219   0.06342   0.00000  Uiso   1.00
H173   H     0.89799   0.27472   0.00715   0.00000  Uiso   1.00
H174   H     0.85084   0.27196   0.04573   0.00000  Uiso   1.00
H175   H     0.90528   0.22066   0.09100   0.00000  Uiso   1.00
H176   H     0.94802   0.21870   0.05072   0.00000  Uiso   1.00
C177   C     0.75993   0.10997   0.27820   0.00000  Uiso   1.00
C178   C     0.77399   0.06520   0.29083   0.00000  Uiso   1.00
C179   C     0.73982   0.03307   0.26048   0.00000  Uiso   1.00
H180   H     0.69789   0.03542   0.26443   0.00000  Uiso   1.00
H181   H     0.74468   0.03814   0.22463   0.00000  Uiso   1.00
H182   H     0.75150   0.00114   0.26992   0.00000  Uiso   1.00
H183   H     0.81581   0.06137   0.28762   0.00000  Uiso   1.00
H184   H     0.76863   0.05861   0.32618   0.00000  Uiso   1.00
H185   H     0.71865   0.11465   0.28260   0.00000  Uiso   1.00
H186   H     0.76139   0.11267   0.24234   0.00000  Uiso   1.00
N187   N     0.91674   0.20600   0.29632   0.00000  Uiso   1.00
O188   O     0.96193   0.19074   0.30908   0.00000  Uiso   1.00
O189   O     0.91404   0.23793   0.26984   0.00000  Uiso   1.00
N190   N     0.74993   0.12733   0.03702   0.00000  Uiso   1.00
O191   O     0.75262   0.09540   0.06350   0.00000  Uiso   1.00
O192   O     0.70474   0.14259   0.02425   0.00000  Uiso   1.00
O193   O     0.16666   0.43892   0.20487   0.00000  Uiso   1.00
O194   O     0.16667   0.56108   0.12846   0.00000  Uiso   1.00
O195   O     0.16666   0.43893   0.12843   0.00000  Uiso   1.00
O196   O     0.16667   0.56107   0.20490   0.00000  Uiso   1.00
C197   C     0.16693   0.42014   0.16657   0.00000  Uiso   1.00
C198   C     0.16640   0.57986   0.16676   0.00000  Uiso   1.00
O199   O     0.09058   0.50000   0.19595   0.00000  Uiso   1.00
O200   O     0.24275   0.50000   0.13739   0.00000  Uiso   1.00
O201   O     0.09058   0.50000   0.11950   0.00000  Uiso   1.00
O202   O     0.24275   0.50000   0.21383   0.00000  Uiso   1.00
C203   C     0.06735   0.49902   0.15518   0.00000  Uiso   1.00
C204   C     0.26599   0.50098   0.17815   0.00000  Uiso   1.00
Zn205  Zn    0.16667   0.49999   0.21771   0.00000  Uiso   1.00
Zn206  Zn    0.16667   0.50001   0.11563   0.00000  Uiso   1.00
N207   N     0.16665   0.49999   0.28573   0.00000  Uiso   1.00
N208   N     0.16668   0.50001   0.04760   0.00000  Uiso   1.00
C209   C     0.01262   0.49140   0.15102   0.00000  Uiso   1.00
C210   C     0.32072   0.50860   0.18232   0.00000  Uiso   1.00
C211   C     0.14760   0.35356   0.12709   0.00000  Uiso   1.00
C212   C     0.18573   0.64644   0.20624   0.00000  Uiso   1.00
H213   H     0.13268   0.36881   0.09632   0.00000  Uiso   1.00
H214   H     0.20065   0.63119   0.23701   0.00000  Uiso   1.00
C215   C     0.14624   0.64413   0.12753   0.00000  Uiso   1.00
C216   C     0.18709   0.35587   0.20581   0.00000  Uiso   1.00
H217   H     0.12957   0.62686   0.09734   0.00000  Uiso   1.00
H218   H     0.20375   0.37314   0.23600   0.00000  Uiso   1.00
C219   C     0.16586   0.62406   0.16695   0.00000  Uiso   1.00
C220   C     0.16747   0.37594   0.16638   0.00000  Uiso   1.00
C221   C     0.20319   0.52440   0.02794   0.00000  Uiso   1.00
C222   C     0.13014   0.47560   0.30539   0.00000  Uiso   1.00
C223   C     0.20473   0.52225   0.31379   0.00000  Uiso   1.00
C224   C     0.12860   0.47775   0.01954   0.00000  Uiso   1.00
N225   N     0.32296   0.45706   0.12254   0.00000  Uiso   1.00
O226   O     0.29934   0.46390   0.08225   0.00000  Uiso   1.00
O227   O     0.33210   0.41898   0.13464   0.00000  Uiso   1.00
N228   N     0.01037   0.54294   0.21079   0.00000  Uiso   1.00
O229   O     0.03399   0.53610   0.25108   0.00000  Uiso   1.00
O230   O     0.00123   0.58102   0.19869   0.00000  Uiso   1.00
C231   C     0.24007   0.55670   0.05513   0.00000  Uiso   1.00
C232   C     0.22599   0.60147   0.04250   0.00000  Uiso   1.00
C233   C     0.26017   0.63360   0.07284   0.00000  Uiso   1.00
H234   H     0.25534   0.62852   0.10869   0.00000  Uiso   1.00
H235   H     0.30209   0.63127   0.06886   0.00000  Uiso   1.00
H236   H     0.24845   0.66553   0.06342   0.00000  Uiso   1.00
H237   H     0.23133   0.60806   0.00715   0.00000  Uiso   1.00
H238   H     0.18417   0.60529   0.04573   0.00000  Uiso   1.00
H239   H     0.23861   0.55400   0.09100   0.00000  Uiso   1.00
H240   H     0.28135   0.55203   0.05072   0.00000  Uiso   1.00
C241   C     0.09326   0.44331   0.27820   0.00000  Uiso   1.00
C242   C     0.10732   0.39853   0.29083   0.00000  Uiso   1.00
C243   C     0.07315   0.36640   0.26048   0.00000  Uiso   1.00
H244   H     0.03122   0.36876   0.26443   0.00000  Uiso   1.00
H245   H     0.07802   0.37147   0.22463   0.00000  Uiso   1.00
H246   H     0.08484   0.33448   0.26992   0.00000  Uiso   1.00
H247   H     0.14914   0.39470   0.28762   0.00000  Uiso   1.00
H248   H     0.10196   0.39194   0.32618   0.00000  Uiso   1.00
H249   H     0.05198   0.44798   0.28260   0.00000  Uiso   1.00
H250   H     0.09473   0.44600   0.24234   0.00000  Uiso   1.00
N251   N     0.25007   0.53933   0.29632   0.00000  Uiso   1.00
O252   O     0.29526   0.52408   0.30908   0.00000  Uiso   1.00
O253   O     0.24738   0.57127   0.26984   0.00000  Uiso   1.00
N254   N     0.08326   0.46067   0.03702   0.00000  Uiso   1.00
O255   O     0.08596   0.42874   0.06350   0.00000  Uiso   1.00
O256   O     0.03807   0.47592   0.02425   0.00000  Uiso   1.00
O257   O     0.50000   0.43892   0.20487   0.00000  Uiso   1.00
O258   O     0.50000   0.56108   0.12846   0.00000  Uiso   1.00
O259   O     0.50000   0.43893   0.12843   0.00000  Uiso   1.00
O260   O     0.50000   0.56107   0.20490   0.00000  Uiso   1.00
C261   C     0.50026   0.42014   0.16657   0.00000  Uiso   1.00
C262   C     0.49974   0.57986   0.16676   0.00000  Uiso   1.00
O263   O     0.42392   0.50000   0.19595   0.00000  Uiso   1.00
O264   O     0.57608   0.50000   0.13739   0.00000  Uiso   1.00
O265   O     0.42392   0.50000   0.11950   0.00000  Uiso   1.00
O266   O     0.57608   0.50000   0.21383   0.00000  Uiso   1.00
C267   C     0.40068   0.49902   0.15518   0.00000  Uiso   1.00
C268   C     0.59932   0.50098   0.17815   0.00000  Uiso   1.00
Zn269  Zn    0.50000   0.49999   0.21771   0.00000  Uiso   1.00
Zn270  Zn    0.50000   0.50001   0.11563   0.00000  Uiso   1.00
N271   N     0.49999   0.49999   0.28573   0.00000  Uiso   1.00
N272   N     0.50001   0.50001   0.04760   0.00000  Uiso   1.00
C273   C     0.34595   0.49140   0.15102   0.00000  Uiso   1.00
C274   C     0.65405   0.50860   0.18232   0.00000  Uiso   1.00
C275   C     0.48094   0.35356   0.12709   0.00000  Uiso   1.00
C276   C     0.51906   0.64644   0.20624   0.00000  Uiso   1.00
H277   H     0.46601   0.36881   0.09632   0.00000  Uiso   1.00
H278   H     0.53398   0.63119   0.23701   0.00000  Uiso   1.00
C279   C     0.47957   0.64413   0.12753   0.00000  Uiso   1.00
C280   C     0.52043   0.35587   0.20581   0.00000  Uiso   1.00
H281   H     0.46290   0.62686   0.09734   0.00000  Uiso   1.00
H282   H     0.53709   0.37314   0.23600   0.00000  Uiso   1.00
C283   C     0.49920   0.62406   0.16695   0.00000  Uiso   1.00
C284   C     0.50080   0.37594   0.16638   0.00000  Uiso   1.00
C285   C     0.53652   0.52440   0.02794   0.00000  Uiso   1.00
C286   C     0.46348   0.47560   0.30539   0.00000  Uiso   1.00
C287   C     0.53807   0.52225   0.31379   0.00000  Uiso   1.00
C288   C     0.46193   0.47775   0.01954   0.00000  Uiso   1.00
N289   N     0.65629   0.45706   0.12254   0.00000  Uiso   1.00
O290   O     0.63268   0.46390   0.08225   0.00000  Uiso   1.00
O291   O     0.66543   0.41898   0.13464   0.00000  Uiso   1.00
N292   N     0.34371   0.54294   0.21079   0.00000  Uiso   1.00
O293   O     0.36733   0.53610   0.25108   0.00000  Uiso   1.00
O294   O     0.33457   0.58102   0.19869   0.00000  Uiso   1.00
C295   C     0.57340   0.55670   0.05513   0.00000  Uiso   1.00
C296   C     0.55932   0.60147   0.04250   0.00000  Uiso   1.00
C297   C     0.59350   0.63360   0.07284   0.00000  Uiso   1.00
H298   H     0.58867   0.62852   0.10869   0.00000  Uiso   1.00
H299   H     0.63542   0.63127   0.06886   0.00000  Uiso   1.00
H300   H     0.58178   0.66553   0.06342   0.00000  Uiso   1.00
H301   H     0.56466   0.60806   0.00715   0.00000  Uiso   1.00
H302   H     0.51751   0.60529   0.04573   0.00000  Uiso   1.00
H303   H     0.57194   0.55400   0.09100   0.00000  Uiso   1.00
H304   H     0.61468   0.55203   0.05072   0.00000  Uiso   1.00
C305   C     0.42660   0.44331   0.27820   0.00000  Uiso   1.00
C306   C     0.44066   0.39853   0.29083   0.00000  Uiso   1.00
C307   C     0.40648   0.36640   0.26048   0.00000  Uiso   1.00
H308   H     0.36455   0.36876   0.26443   0.00000  Uiso   1.00
H309   H     0.41135   0.37147   0.22463   0.00000  Uiso   1.00
H310   H     0.41817   0.33448   0.26992   0.00000  Uiso   1.00
H311   H     0.48248   0.39470   0.28762   0.00000  Uiso   1.00
H312   H     0.43530   0.39194   0.32618   0.00000  Uiso   1.00
H313   H     0.38531   0.44798   0.28260   0.00000  Uiso   1.00
H314   H     0.42806   0.44600   0.24234   0.00000  Uiso   1.00
N315   N     0.58340   0.53933   0.29632   0.00000  Uiso   1.00
O316   O     0.62859   0.52408   0.30908   0.00000  Uiso   1.00
O317   O     0.58071   0.57127   0.26984   0.00000  Uiso   1.00
N318   N     0.41660   0.46067   0.03702   0.00000  Uiso   1.00
O319   O     0.41929   0.42874   0.06350   0.00000  Uiso   1.00
O320   O     0.37141   0.47592   0.02425   0.00000  Uiso   1.00
O321   O     0.83333   0.43892   0.20487   0.00000  Uiso   1.00
O322   O     0.83334   0.56108   0.12846   0.00000  Uiso   1.00
O323   O     0.83333   0.43893   0.12843   0.00000  Uiso   1.00
O324   O     0.83334   0.56107   0.20490   0.00000  Uiso   1.00
C325   C     0.83360   0.42014   0.16657   0.00000  Uiso   1.00
C326   C     0.83307   0.57986   0.16676   0.00000  Uiso   1.00
O327   O     0.75725   0.50000   0.19595   0.00000  Uiso   1.00
O328   O     0.90942   0.50000   0.13739   0.00000  Uiso   1.00
O329   O     0.75725   0.50000   0.11950   0.00000  Uiso   1.00
O330   O     0.90942   0.50000   0.21383   0.00000  Uiso   1.00
C331   C     0.73401   0.49902   0.15518   0.00000  Uiso   1.00
C332   C     0.93265   0.50098   0.17815   0.00000  Uiso   1.00
Zn333  Zn    0.83333   0.49999   0.21771   0.00000  Uiso   1.00
Zn334  Zn    0.83333   0.50001   0.11563   0.00000  Uiso   1.00
N335   N     0.83332   0.49999   0.28573   0.00000  Uiso   1.00
N336   N     0.83335   0.50001   0.04760   0.00000  Uiso   1.00
C337   C     0.67928   0.49140   0.15102   0.00000  Uiso   1.00
C338   C     0.98738   0.50860   0.18232   0.00000  Uiso   1.00
C339   C     0.81427   0.35356   0.12709   0.00000  Uiso   1.00
C340   C     0.85239   0.64644   0.20624   0.00000  Uiso   1.00
H341   H     0.79935   0.36881   0.09632   0.00000  Uiso   1.00
H342   H     0.86732   0.63119   0.23701   0.00000  Uiso   1.00
C343   C     0.81290   0.64413   0.12753   0.00000  Uiso   1.00
C344   C     0.85376   0.35587   0.20581   0.00000  Uiso   1.00
H345   H     0.79624   0.62686   0.09734   0.00000  Uiso   1.00
H346   H     0.87042   0.37314   0.23600   0.00000  Uiso   1.00
C347   C     0.83253   0.62406   0.16695   0.00000  Uiso   1.00
C348   C     0.83413   0.37594   0.16638   0.00000  Uiso   1.00
C349   C     0.86986   0.52440   0.02794   0.00000  Uiso   1.00
C350   C     0.79681   0.47560   0.30539   0.00000  Uiso   1.00
C351   C     0.87140   0.52225   0.31379   0.00000  Uiso   1.00
C352   C     0.79527   0.47775   0.01954   0.00000  Uiso   1.00
N353   N     0.98963   0.45706   0.12254   0.00000  Uiso   1.00
O354   O     0.96601   0.46390   0.08225   0.00000  Uiso   1.00
O355   O     0.99876   0.41898   0.13464   0.00000  Uiso   1.00
N356   N     0.67704   0.54294   0.21079   0.00000  Uiso   1.00
O357   O     0.70066   0.53610   0.25108   0.00000  Uiso   1.00
O358   O     0.66790   0.58102   0.19869   0.00000  Uiso   1.00
C359   C     0.90673   0.55670   0.05513   0.00000  Uiso   1.00
C360   C     0.89265   0.60147   0.04250   0.00000  Uiso   1.00
C361   C     0.92683   0.63360   0.07284   0.00000  Uiso   1.00
H362   H     0.92201   0.62852   0.10869   0.00000  Uiso   1.00
H363   H     0.96876   0.63127   0.06886   0.00000  Uiso   1.00
H364   H     0.91512   0.66553   0.06342   0.00000  Uiso   1.00
H365   H     0.89799   0.60806   0.00715   0.00000  Uiso   1.00
H366   H     0.85084   0.60529   0.04573   0.00000  Uiso   1.00
H367   H     0.90528   0.55400   0.09100   0.00000  Uiso   1.00
H368   H     0.94802   0.55203   0.05072   0.00000  Uiso   1.00
C369   C     0.75993   0.44331   0.27820   0.00000  Uiso   1.00
C370   C     0.77399   0.39853   0.29083   0.00000  Uiso   1.00
C371   C     0.73982   0.36640   0.26048   0.00000  Uiso   1.00
H372   H     0.69789   0.36876   0.26443   0.00000  Uiso   1.00
H373   H     0.74468   0.37147   0.22463   0.00000  Uiso   1.00
H374   H     0.75150   0.33448   0.26992   0.00000  Uiso   1.00
H375   H     0.81581   0.39470   0.28762   0.00000  Uiso   1.00
H376   H     0.76863   0.39194   0.32618   0.00000  Uiso   1.00
H377   H     0.71865   0.44798   0.28260   0.00000  Uiso   1.00
H378   H     0.76139   0.44600   0.24234   0.00000  Uiso   1.00
N379   N     0.91674   0.53933   0.29632   0.00000  Uiso   1.00
O380   O     0.96193   0.52408   0.30908   0.00000  Uiso   1.00
O381   O     0.91404   0.57127   0.26984   0.00000  Uiso   1.00
N382   N     0.74993   0.46067   0.03702   0.00000  Uiso   1.00
O383   O     0.75262   0.42874   0.06350   0.00000  Uiso   1.00
O384   O     0.70474   0.47592   0.02425   0.00000  Uiso   1.00
O385   O     0.16666   0.77225   0.20487   0.00000  Uiso   1.00
O386   O     0.16667   0.89442   0.12846   0.00000  Uiso   1.00
O387   O     0.16666   0.77226   0.12843   0.00000  Uiso   1.00
O388   O     0.16667   0.89441   0.20490   0.00000  Uiso   1.00
C389   C     0.16693   0.75348   0.16657   0.00000  Uiso   1.00
C390   C     0.16640   0.91319   0.16676   0.00000  Uiso   1.00
O391   O     0.09058   0.83333   0.19595   0.00000  Uiso   1.00
O392   O     0.24275   0.83334   0.13739   0.00000  Uiso   1.00
O393   O     0.09058   0.83334   0.11950   0.00000  Uiso   1.00
O394   O     0.24275   0.83333   0.21383   0.00000  Uiso   1.00
C395   C     0.06735   0.83235   0.15518   0.00000  Uiso   1.00
C396   C     0.26599   0.83431   0.17815   0.00000  Uiso   1.00
Zn397  Zn    0.16667   0.83333   0.21771   0.00000  Uiso   1.00
Zn398  Zn    0.16667   0.83334   0.11563   0.00000  Uiso   1.00
N399   N     0.16665   0.83332   0.28573   0.00000  Uiso   1.00
N400   N     0.16668   0.83334   0.04760   0.00000  Uiso   1.00
C401   C     0.01262   0.82473   0.15102   0.00000  Uiso   1.00
C402   C     0.32072   0.84194   0.18232   0.00000  Uiso   1.00
C403   C     0.14760   0.68689   0.12709   0.00000  Uiso   1.00
C404   C     0.18573   0.97978   0.20624   0.00000  Uiso   1.00
H405   H     0.13268   0.70214   0.09632   0.00000  Uiso   1.00
H406   H     0.20065   0.96453   0.23701   0.00000  Uiso   1.00
C407   C     0.14624   0.97747   0.12753   0.00000  Uiso   1.00
C408   C     0.18709   0.68920   0.20581   0.00000  Uiso   1.00
H409   H     0.12957   0.96019   0.09734   0.00000  Uiso   1.00
H410   H     0.20375   0.70647   0.23600   0.00000  Uiso   1.00
C411   C     0.16586   0.95739   0.16695   0.00000  Uiso   1.00
C412   C     0.16747   0.70927   0.16638   0.00000  Uiso   1.00
C413   C     0.20319   0.85773   0.02794   0.00000  Uiso   1.00
C414   C     0.13014   0.80893   0.30539   0.00000  Uiso   1.00
C415   C     0.20473   0.85559   0.31379   0.00000  Uiso   1.00
C416   C     0.12860   0.81108   0.01954   0.00000  Uiso   1.00
N417   N     0.32296   0.79039   0.12254   0.00000  Uiso   1.00
O418   O     0.29934   0.79723   0.08225   0.00000  Uiso   1.00
O419   O     0.33210   0.75231   0.13464   0.00000  Uiso   1.00
N420   N     0.01037   0.87627   0.21079   0.00000  Uiso   1.00
O421   O     0.03399   0.86943   0.25108   0.00000  Uiso   1.00
O422   O     0.00123   0.91436   0.19869   0.00000  Uiso   1.00
C423   C     0.24007   0.89003   0.05513   0.00000  Uiso   1.00
C424   C     0.22599   0.93480   0.04250   0.00000  Uiso   1.00
C425   C     0.26017   0.96694   0.07284   0.00000  Uiso   1.00
H426   H     0.25534   0.96186   0.10869   0.00000  Uiso   1.00
H427   H     0.30209   0.96460   0.06886   0.00000  Uiso   1.00
H428   H     0.24845   0.99886   0.06342   0.00000  Uiso   1.00
H429   H     0.23133   0.94139   0.00715   0.00000  Uiso   1.00
H430   H     0.18417   0.93862   0.04573   0.00000  Uiso   1.00
H431   H     0.23861   0.88733   0.09100   0.00000  Uiso   1.00
H432   H     0.28135   0.88537   0.05072   0.00000  Uiso   1.00
C433   C     0.09326   0.77664   0.27820   0.00000  Uiso   1.00
C434   C     0.10732   0.73187   0.29083   0.00000  Uiso   1.00
C435   C     0.07315   0.69974   0.26048   0.00000  Uiso   1.00
H436   H     0.03122   0.70209   0.26443   0.00000  Uiso   1.00
H437   H     0.07802   0.70481   0.22463   0.00000  Uiso   1.00
H438   H     0.08484   0.66781   0.26992   0.00000  Uiso   1.00
H439   H     0.14914   0.72804   0.28762   0.00000  Uiso   1.00
H440   H     0.10196   0.72528   0.32618   0.00000  Uiso   1.00
H441   H     0.05198   0.78131   0.28260   0.00000  Uiso   1.00
H442   H     0.09473   0.77934   0.24234   0.00000  Uiso   1.00
N443   N     0.25007   0.87267   0.29632   0.00000  Uiso   1.00
O444   O     0.29526   0.85741   0.30908   0.00000  Uiso   1.00
O445   O     0.24738   0.90460   0.26984   0.00000  Uiso   1.00
N446   N     0.08326   0.79400   0.03702   0.00000  Uiso   1.00
O447   O     0.08596   0.76207   0.06350   0.00000  Uiso   1.00
O448   O     0.03807   0.80926   0.02425   0.00000  Uiso   1.00
O449   O     0.50000   0.77225   0.20487   0.00000  Uiso   1.00
O450   O     0.50000   0.89442   0.12846   0.00000  Uiso   1.00
O451   O     0.50000   0.77226   0.12843   0.00000  Uiso   1.00
O452   O     0.50000   0.89441   0.20490   0.00000  Uiso   1.00
C453   C     0.50026   0.75348   0.16657   0.00000  Uiso   1.00
C454   C     0.49974   0.91319   0.16676   0.00000  Uiso   1.00
O455   O     0.42392   0.83333   0.19595   0.00000  Uiso   1.00
O456   O     0.57608   0.83334   0.13739   0.00000  Uiso   1.00
O457   O     0.42392   0.83334   0.11950   0.00000  Uiso   1.00
O458   O     0.57608   0.83333   0.21383   0.00000  Uiso   1.00
C459   C     0.40068   0.83235   0.15518   0.00000  Uiso   1.00
C460   C     0.59932   0.83431   0.17815   0.00000  Uiso   1.00
Zn461  Zn    0.50000   0.83333   0.21771   0.00000  Uiso   1.00
Zn462  Zn    0.50000   0.83334   0.11563   0.00000  Uiso   1.00
N463   N     0.49999   0.83332   0.28573   0.00000  Uiso   1.00
N464   N     0.50001   0.83334   0.04760   0.00000  Uiso   1.00
C465   C     0.34595   0.82473   0.15102   0.00000  Uiso   1.00
C466   C     0.65405   0.84194   0.18232   0.00000  Uiso   1.00
C467   C     0.48094   0.68689   0.12709   0.00000  Uiso   1.00
C468   C     0.51906   0.97978   0.20624   0.00000  Uiso   1.00
H469   H     0.46601   0.70214   0.09632   0.00000  Uiso   1.00
H470   H     0.53398   0.96453   0.23701   0.00000  Uiso   1.00
C471   C     0.47957   0.97747   0.12753   0.00000  Uiso   1.00
C472   C     0.52043   0.68920   0.20581   0.00000  Uiso   1.00
H473   H     0.46290   0.96019   0.09734   0.00000  Uiso   1.00
H474   H     0.53709   0.70647   0.23600   0.00000  Uiso   1.00
C475   C     0.49920   0.95739   0.16695   0.00000  Uiso   1.00
C476   C     0.50080   0.70927   0.16638   0.00000  Uiso   1.00
C477   C     0.53652   0.85773   0.02794   0.00000  Uiso   1.00
C478   C     0.46348   0.80893   0.30539   0.00000  Uiso   1.00
C479   C     0.53807   0.85559   0.31379   0.00000  Uiso   1.00
C480   C     0.46193   0.81108   0.01954   0.00000  Uiso   1.00
N481   N     0.65629   0.79039   0.12254   0.00000  Uiso   1.00
O482   O     0.63268   0.79723   0.08225   0.00000  Uiso   1.00
O483   O     0.66543   0.75231   0.13464   0.00000  Uiso   1.00
N484   N     0.34371   0.87627   0.21079   0.00000  Uiso   1.00
O485   O     0.36733   0.86943   0.25108   0.00000  Uiso   1.00
O486   O     0.33457   0.91436   0.19869   0.00000  Uiso   1.00
C487   C     0.57340   0.89003   0.05513   0.00000  Uiso   1.00
C488   C     0.55932   0.93480   0.04250   0.00000  Uiso   1.00
C489   C     0.59350   0.96694   0.07284   0.00000  Uiso   1.00
H490   H     0.58867   0.96186   0.10869   0.00000  Uiso   1.00
H491   H     0.63542   0.96460   0.06886   0.00000  Uiso   1.00
H492   H     0.58178   0.99886   0.06342   0.00000  Uiso   1.00
H493   H     0.56466   0.94139   0.00715   0.00000  Uiso   1.00
H494   H     0.51751   0.93862   0.04573   0.00000  Uiso   1.00
H495   H     0.57194   0.88733   0.09100   0.00000  Uiso   1.00
H496   H     0.61468   0.88537   0.05072   0.00000  Uiso   1.00
C497   C     0.42660   0.77664   0.27820   0.00000  Uiso   1.00
C498   C     0.44066   0.73187   0.29083   0.00000  Uiso   1.00
C499   C     0.40648   0.69974   0.26048   0.00000  Uiso   1.00
H500   H     0.36455   0.70209   0.26443   0.00000  Uiso   1.00
H501   H     0.41135   0.70481   0.22463   0.00000  Uiso   1.00
H502   H     0.41817   0.66781   0.26992   0.00000  Uiso   1.00
H503   H     0.48248   0.72804   0.28762   0.00000  Uiso   1.00
H504   H     0.43530   0.72528   0.32618   0.00000  Uiso   1.00
H505   H     0.38531   0.78131   0.28260   0.00000  Uiso   1.00
H506   H     0.42806   0.77934   0.24234   0.00000  Uiso   1.00
N507   N     0.58340   0.87267   0.29632   0.00000  Uiso   1.00
O508   O     0.62859   0.85741   0.30908   0.00000  Uiso   1.00
O509   O     0.58071   0.90460   0.26984   0.00000  Uiso   1.00
N510   N     0.41660   0.79400   0.03702   0.00000  Uiso   1.00
O511   O     0.41929   0.76207   0.06350   0.00000  Uiso   1.00
O512   O     0.37141   0.80926   0.02425   0.00000  Uiso   1.00
O513   O     0.83333   0.77225   0.20487   0.00000  Uiso   1.00
O514   O     0.83334   0.89442   0.12846   0.00000  Uiso   1.00
O515   O     0.83333   0.77226   0.12843   0.00000  Uiso   1.00
O516   O     0.83334   0.89441   0.20490   0.00000  Uiso   1.00
C517   C     0.83360   0.75348   0.16657   0.00000  Uiso   1.00
C518   C     0.83307   0.91319   0.16676   0.00000  Uiso   1.00
O519   O     0.75725   0.83333   0.19595   0.00000  Uiso   1.00
O520   O     0.90942   0.83334   0.13739   0.00000  Uiso   1.00
O521   O     0.75725   0.83334   0.11950   0.00000  Uiso   1.00
O522   O     0.90942   0.83333   0.21383   0.00000  Uiso   1.00
C523   C     0.73401   0.83235   0.15518   0.00000  Uiso   1.00
C524   C     0.93265   0.83431   0.17815   0.00000  Uiso   1.00
Zn525  Zn    0.83333   0.83333   0.21771   0.00000  Uiso   1.00
Zn526  Zn    0.83333   0.83334   0.11563   0.00000  Uiso   1.00
N527   N     0.83332   0.83332   0.28573   0.00000  Uiso   1.00
N528   N     0.83335   0.83334   0.04760   0.00000  Uiso   1.00
C529   C     0.67928   0.82473   0.15102   0.00000  Uiso   1.00
C530   C     0.98738   0.84194   0.18232   0.00000  Uiso   1.00
C531   C     0.81427   0.68689   0.12709   0.00000  Uiso   1.00
C532   C     0.85239   0.97978   0.20624   0.00000  Uiso   1.00
H533   H     0.79935   0.70214   0.09632   0.00000  Uiso   1.00
H534   H     0.86732   0.96453   0.23701   0.00000  Uiso   1.00
C535   C     0.81290   0.97747   0.12753   0.00000  Uiso   1.00
C536   C     0.85376   0.68920   0.20581   0.00000  Uiso   1.00
H537   H     0.79624   0.96019   0.09734   0.00000  Uiso   1.00
H538   H     0.87042   0.70647   0.23600   0.00000  Uiso   1.00
C539   C     0.83253   0.95739   0.16695   0.00000  Uiso   1.00
C540   C     0.83413   0.70927   0.16638   0.00000  Uiso   1.00
C541   C     0.86986   0.85773   0.02794   0.00000  Uiso   1.00
C542   C     0.79681   0.80893   0.30539   0.00000  Uiso   1.00
C543   C     0.87140   0.85559   0.31379   0.00000  Uiso   1.00
C544   C     0.79527   0.81108   0.01954   0.00000  Uiso   1.00
N545   N     0.98963   0.79039   0.12254   0.00000  Uiso   1.00
O546   O     0.96601   0.79723   0.08225   0.00000  Uiso   1.00
O547   O     0.99876   0.75231   0.13464   0.00000  Uiso   1.00
N548   N     0.67704   0.87627   0.21079   0.00000  Uiso   1.00
O549   O     0.70066   0.86943   0.25108   0.00000  Uiso   1.00
O550   O     0.66790   0.91436   0.19869   0.00000  Uiso   1.00
C551   C     0.90673   0.89003   0.05513   0.00000  Uiso   1.00
C552   C     0.89265   0.93480   0.04250   0.00000  Uiso   1.00
C553   C     0.92683   0.96694   0.07284   0.00000  Uiso   1.00
H554   H     0.92201   0.96186   0.10869   0.00000  Uiso   1.00
H555   H     0.96876   0.96460   0.06886   0.00000  Uiso   1.00
H556   H     0.91512   0.99886   0.06342   0.00000  Uiso   1.00
H557   H     0.89799   0.94139   0.00715   0.00000  Uiso   1.00
H558   H     0.85084   0.93862   0.04573   0.00000  Uiso   1.00
H559   H     0.90528   0.88733   0.09100   0.00000  Uiso   1.00
H560   H     0.94802   0.88537   0.05072   0.00000  Uiso   1.00
C561   C     0.75993   0.77664   0.27820   0.00000  Uiso   1.00
C562   C     0.77399   0.73187   0.29083   0.00000  Uiso   1.00
C563   C     0.73982   0.69974   0.26048   0.00000  Uiso   1.00
H564   H     0.69789   0.70209   0.26443   0.00000  Uiso   1.00
H565   H     0.74468   0.70481   0.22463   0.00000  Uiso   1.00
H566   H     0.75150   0.66781   0.26992   0.00000  Uiso   1.00
H567   H     0.81581   0.72804   0.28762   0.00000  Uiso   1.00
H568   H     0.76863   0.72528   0.32618   0.00000  Uiso   1.00
H569   H     0.71865   0.78131   0.28260   0.00000  Uiso   1.00
H570   H     0.76139   0.77934   0.24234   0.00000  Uiso   1.00
N571   N     0.91674   0.87267   0.29632   0.00000  Uiso   1.00
O572   O     0.96193   0.85741   0.30908   0.00000  Uiso   1.00
O573   O     0.91404   0.90460   0.26984   0.00000  Uiso   1.00
N574   N     0.74993   0.79400   0.03702   0.00000  Uiso   1.00
O575   O     0.75262   0.76207   0.06350   0.00000  Uiso   1.00
O576   O     0.70474   0.80926   0.02425   0.00000  Uiso   1.00
O577   O     0.16666   0.10558   0.53821   0.00000  Uiso   1.00
O578   O     0.16667   0.22775   0.46179   0.00000  Uiso   1.00
O579   O     0.16666   0.10559   0.46176   0.00000  Uiso   1.00
O580   O     0.16667   0.22774   0.53824   0.00000  Uiso   1.00
C581   C     0.16693   0.08681   0.49990   0.00000  Uiso   1.00
C582   C     0.16640   0.24652   0.50010   0.00000  Uiso   1.00
O583   O     0.09058   0.16666   0.52928   0.00000  Uiso   1.00
O584   O     0.24275   0.16667   0.47072   0.00000  Uiso   1.00
O585   O     0.09058   0.16667   0.45284   0.00000  Uiso   1.00
O586   O     0.24275   0.16666   0.54716   0.00000  Uiso   1.00
C587   C     0.06735   0.16569   0.48851   0.00000  Uiso   1.00
C588   C     0.26599   0.16765   0.51149   0.00000  Uiso   1.00
Zn589  Zn    0.16667   0.16666   0.55104   0.00000  Uiso   1.00
Zn590  Zn    0.16667   0.16667   0.44896   0.00000  Uiso   1.00
N591   N     0.16665   0.16666   0.61907   0.00000  Uiso   1.00
N592   N     0.16668   0.16668   0.38093   0.00000  Uiso   1.00
C593   C     0.01262   0.15806   0.48435   0.00000  Uiso   1.00
C594   C     0.32072   0.17527   0.51565   0.00000  Uiso   1.00
C595   C     0.14760   0.02022   0.46042   0.00000  Uiso   1.00
C596   C     0.18573   0.31311   0.53958   0.00000  Uiso   1.00
H597   H     0.13268   0.03547   0.42965   0.00000  Uiso   1.00
H598   H     0.20065   0.29786   0.57035   0.00000  Uiso   1.00
C599   C     0.14624   0.31080   0.46086   0.00000  Uiso   1.00
C600   C     0.18709   0.02253   0.53914   0.00000  Uiso   1.00
H601   H     0.12957   0.29353   0.43067   0.00000  Uiso   1.00
H602   H     0.20375   0.03981   0.56933   0.00000  Uiso   1.00
C603   C     0.16586   0.29073   0.50029   0.00000  Uiso   1.00
C604   C     0.16747   0.04261   0.49971   0.00000  Uiso   1.00
C605   C     0.20319   0.19106   0.36127   0.00000  Uiso   1.00
C606   C     0.13014   0.14227   0.63873   0.00000  Uiso   1.00
C607   C     0.20473   0.18892   0.64713   0.00000  Uiso   1.00
C608   C     0.12860   0.14441   0.35287   0.00000  Uiso   1.00
N609   N     0.32296   0.12373   0.45587   0.00000  Uiso   1.00
O610   O     0.29934   0.13057   0.41558   0.00000  Uiso   1.00
O611   O     0.33210   0.08564   0.46797   0.00000  Uiso   1.00
N612   N     0.01037   0.20961   0.54413   0.00000  Uiso   1.00
O613   O     0.03399   0.20277   0.58442   0.00000  Uiso   1.00
O614   O     0.00123   0.24769   0.53203   0.00000  Uiso   1.00
C615   C     0.24007   0.22336   0.38846   0.00000  Uiso   1.00
C616   C     0.22599   0.26813   0.37584   0.00000  Uiso   1.00
C617   C     0.26017   0.30027   0.40617   0.00000  Uiso   1.00
H618   H     0.25534   0.29519   0.44203   0.00000  Uiso   1.00
H619   H     0.30209   0.29794   0.40220   0.00000  Uiso   1.00
H620   H     0.24845   0.33219   0.39675   0.00000  Uiso   1.00
H621   H     0.23133   0.27472   0.34048   0.00000  Uiso   1.00
H622   H     0.18417   0.27196   0.37906   0.00000  Uiso   1.00
H623   H     0.23861   0.22066   0.42433   0.00000  Uiso   1.00
H624   H     0.28135   0.21870   0.38405   0.00000  Uiso   1.00
C625   C     0.09326   0.10997   0.61153   0.00000  Uiso   1.00
C626   C     0.10732   0.06520   0.62416   0.00000  Uiso   1.00
C627   C     0.07315   0.03307   0.59382   0.00000  Uiso   1.00
H628   H     0.03122   0.03542   0.59776   0.00000  Uiso   1.00
H629   H     0.07802   0.03814   0.55797   0.00000  Uiso   1.00
H630   H     0.08484   0.00114   0.60325   0.00000  Uiso   1.00
H631   H     0.14914   0.06137   0.62095   0.00000  Uiso   1.00
H632   H     0.10196   0.05861   0.65951   0.00000  Uiso   1.00
H633   H     0.05198   0.11465   0.61594   0.00000  Uiso   1.00
H634   H     0.09473   0.11267   0.57567   0.00000  Uiso   1.00
N635   N     0.25007   0.20600   0.62965   0.00000  Uiso   1.00
O636   O     0.29526   0.19074   0.64242   0.00000  Uiso   1.00
O637   O     0.24738   0.23793   0.60317   0.00000  Uiso   1.00
N638   N     0.08326   0.12733   0.37035   0.00000  Uiso   1.00
O639   O     0.08596   0.09540   0.39683   0.00000  Uiso   1.00
O640   O     0.03807   0.14259   0.35758   0.00000  Uiso   1.00
O641   O     0.50000   0.10558   0.53821   0.00000  Uiso   1.00
O642   O     0.50000   0.22775   0.46179   0.00000  Uiso   1.00
O643   O     0.50000   0.10559   0.46176   0.00000  Uiso   1.00
O644   O     0.50000   0.22774   0.53824   0.00000  Uiso   1.00
C645   C     0.50026   0.08681   0.49990   0.00000  Uiso   1.00
C646   C     0.49974   0.24652   0.50010   0.00000  Uiso   1.00
O647   O     0.42392   0.16666   0.52928   0.00000  Uiso   1.00
O648   O     0.57608   0.16667   0.47072   0.00000  Uiso   1.00
O649   O     0.42392   0.16667   0.45284   0.00000  Uiso   1.00
O650   O     0.57608   0.16666   0.54716   0.00000  Uiso   1.00
C651   C     0.40068   0.16569   0.48851   0.00000  Uiso   1.00
C652   C     0.59932   0.16765   0.51149   0.00000  Uiso   1.00
Zn653  Zn    0.50000   0.16666   0.55104   0.00000  Uiso   1.00
Zn654  Zn    0.50000   0.16667   0.44896   0.00000  Uiso   1.00
N655   N     0.49999   0.16666   0.61907   0.00000  Uiso   1.00
N656   N     0.50001   0.16668   0.38093   0.00000  Uiso   1.00
C657   C     0.34595   0.15806   0.48435   0.00000  Uiso   1.00
C658   C     0.65405   0.17527   0.51565   0.00000  Uiso   1.00
C659   C     0.48094   0.02022   0.46042   0.00000  Uiso   1.00
C660   C     0.51906   0.31311   0.53958   0.00000  Uiso   1.00
H661   H     0.46601   0.03547   0.42965   0.00000  Uiso   1.00
H662   H     0.53398   0.29786   0.57035   0.00000  Uiso   1.00
C663   C     0.47957   0.31080   0.46086   0.00000  Uiso   1.00
C664   C     0.52043   0.02253   0.53914   0.00000  Uiso   1.00
H665   H     0.46290   0.29353   0.43067   0.00000  Uiso   1.00
H666   H     0.53709   0.03981   0.56933   0.00000  Uiso   1.00
C667   C     0.49920   0.29073   0.50029   0.00000  Uiso   1.00
C668   C     0.50080   0.04261   0.49971   0.00000  Uiso   1.00
C669   C     0.53652   0.19106   0.36127   0.00000  Uiso   1.00
C670   C     0.46348   0.14227   0.63873   0.00000  Uiso   1.00
C671   C     0.53807   0.18892   0.64713   0.00000  Uiso   1.00
C672   C     0.46193   0.14441   0.35287   0.00000  Uiso   1.00
N673   N     0.65629   0.12373   0.45587   0.00000  Uiso   1.00
O674   O     0.63268   0.13057   0.41558   0.00000  Uiso   1.00
O675   O     0.66543   0.08564   0.46797   0.00000  Uiso   1.00
N676   N     0.34371   0.20961   0.54413   0.00000  Uiso   1.00
O677   O     0.36733   0.20277   0.58442   0.00000  Uiso   1.00
O678   O     0.33457   0.24769   0.53203   0.00000  Uiso   1.00
C679   C     0.57340   0.22336   0.38846   0.00000  Uiso   1.00
C680   C     0.55932   0.26813   0.37584   0.00000  Uiso   1.00
C681   C     0.59350   0.30027   0.40617   0.00000  Uiso   1.00
H682   H     0.58867   0.29519   0.44203   0.00000  Uiso   1.00
H683   H     0.63542   0.29794   0.40220   0.00000  Uiso   1.00
H684   H     0.58178   0.33219   0.39675   0.00000  Uiso   1.00
H685   H     0.56466   0.27472   0.34048   0.00000  Uiso   1.00
H686   H     0.51751   0.27196   0.37906   0.00000  Uiso   1.00
H687   H     0.57194   0.22066   0.42433   0.00000  Uiso   1.00
H688   H     0.61468   0.21870   0.38405   0.00000  Uiso   1.00
C689   C     0.42660   0.10997   0.61153   0.00000  Uiso   1.00
C690   C     0.44066   0.06520   0.62416   0.00000  Uiso   1.00
C691   C     0.40648   0.03307   0.59382   0.00000  Uiso   1.00
H692   H     0.36455   0.03542   0.59776   0.00000  Uiso   1.00
H693   H     0.41135   0.03814   0.55797   0.00000  Uiso   1.00
H694   H     0.41817   0.00114   0.60325   0.00000  Uiso   1.00
H695   H     0.48248   0.06137   0.62095   0.00000  Uiso   1.00
H696   H     0.43530   0.05861   0.65951   0.00000  Uiso   1.00
H697   H     0.38531   0.11465   0.61594   0.00000  Uiso   1.00
H698   H     0.42806   0.11267   0.57567   0.00000  Uiso   1.00
N699   N     0.58340   0.20600   0.62965   0.00000  Uiso   1.00
O700   O     0.62859   0.19074   0.64242   0.00000  Uiso   1.00
O701   O     0.58071   0.23793   0.60317   0.00000  Uiso   1.00
N702   N     0.41660   0.12733   0.37035   0.00000  Uiso   1.00
O703   O     0.41929   0.09540   0.39683   0.00000  Uiso   1.00
O704   O     0.37141   0.14259   0.35758   0.00000  Uiso   1.00
O705   O     0.83333   0.10558   0.53821   0.00000  Uiso   1.00
O706   O     0.83334   0.22775   0.46179   0.00000  Uiso   1.00
O707   O     0.83333   0.10559   0.46176   0.00000  Uiso   1.00
O708   O     0.83334   0.22774   0.53824   0.00000  Uiso   1.00
C709   C     0.83360   0.08681   0.49990   0.00000  Uiso   1.00
C710   C     0.83307   0.24652   0.50010   0.00000  Uiso   1.00
O711   O     0.75725   0.16666   0.52928   0.00000  Uiso   1.00
O712   O     0.90942   0.16667   0.47072   0.00000  Uiso   1.00
O713   O     0.75725   0.16667   0.45284   0.00000  Uiso   1.00
O714   O     0.90942   0.16666   0.54716   0.00000  Uiso   1.00
C715   C     0.73401   0.16569   0.48851   0.00000  Uiso   1.00
C716   C     0.93265   0.16765   0.51149   0.00000  Uiso   1.00
Zn717  Zn    0.83333   0.16666   0.55104   0.00000  Uiso   1.00
Zn718  Zn    0.83333   0.16667   0.44896   0.00000  Uiso   1.00
N719   N     0.83332   0.16666   0.61907   0.00000  Uiso   1.00
N720   N     0.83335   0.16668   0.38093   0.00000  Uiso   1.00
C721   C     0.67928   0.15806   0.48435   0.00000  Uiso   1.00
C722   C     0.98738   0.17527   0.51565   0.00000  Uiso   1.00
C723   C     0.81427   0.02022   0.46042   0.00000  Uiso   1.00
C724   C     0.85239   0.31311   0.53958   0.00000  Uiso   1.00
H725   H     0.79935   0.03547   0.42965   0.00000  Uiso   1.00
H726   H     0.86732   0.29786   0.57035   0.00000  Uiso   1.00
C727   C     0.81290   0.31080   0.46086   0.00000  Uiso   1.00
C728   C     0.85376   0.02253   0.53914   0.00000  Uiso   1.00
H729   H     0.79624   0.29353   0.43067   0.00000  Uiso   1.00
H730   H     0.87042   0.03981   0.56933   0.00000  Uiso   1.00
C731   C     0.83253   0.29073   0.50029   0.00000  Uiso   1.00
C732   C     0.83413   0.04261   0.49971   0.00000  Uiso   1.00
C733   C     0.86986   0.19106   0.36127   0.00000  Uiso   1.00
C734   C     0.79681   0.14227   0.63873   0.00000  Uiso   1.00
C735   C     0.87140   0.18892   0.64713   0.00000  Uiso   1.00
C736   C     0.79527   0.14441   0.35287   0.00000  Uiso   1.00
N737   N     0.98963   0.12373   0.45587   0.00000  Uiso   1.00
O738   O     0.96601   0.13057   0.41558   0.00000  Uiso   1.00
O739   O     0.99876   0.08564   0.46797   0.00000  Uiso   1.00
N740   N     0.67704   0.20961   0.54413   0.00000  Uiso   1.00
O741   O     0.70066   0.20277   0.58442   0.00000  Uiso   1.00
O742   O     0.66790   0.24769   0.53203   0.00000  Uiso   1.00
C743   C     0.90673   0.22336   0.38846   0.00000  Uiso   1.00
C744   C     0.89265   0.26813   0.37584   0.00000  Uiso   1.00
C745   C     0.92683   0.30027   0.40617   0.00000  Uiso   1.00
H746   H     0.92201   0.29519   0.44203   0.00000  Uiso   1.00
H747   H     0.96876   0.29794   0.40220   0.00000  Uiso   1.00
H748   H     0.91512   0.33219   0.39675   0.00000  Uiso   1.00
H749   H     0.89799   0.27472   0.34048   0.00000  Uiso   1.00
H750   H     0.85084   0.27196   0.37906   0.00000  Uiso   1.00
H751   H     0.90528   0.22066   0.42433   0.00000  Uiso   1.00
H752   H     0.94802   0.21870   0.38405   0.00000  Uiso   1.00
C753   C     0.75993   0.10997   0.61153   0.00000  Uiso   1.00
C754   C     0.77399   0.06520   0.62416   0.00000  Uiso   1.00
C755   C     0.73982   0.03307   0.59382   0.00000  Uiso   1.00
H756   H     0.69789   0.03542   0.59776   0.00000  Uiso   1.00
H757   H     0.74468   0.03814   0.55797   0.00000  Uiso   1.00
H758   H     0.75150   0.00114   0.60325   0.00000  Uiso   1.00
H759   H     0.81581   0.06137   0.62095   0.00000  Uiso   1.00
H760   H     0.76863   0.05861   0.65951   0.00000  Uiso   1.00
H761   H     0.71865   0.11465   0.61594   0.00000  Uiso   1.00
H762   H     0.76139   0.11267   0.57567   0.00000  Uiso   1.00
N763   N     0.91674   0.20600   0.62965   0.00000  Uiso   1.00
O764   O     0.96193   0.19074   0.64242   0.00000  Uiso   1.00
O765   O     0.91404   0.23793   0.60317   0.00000  Uiso   1.00
N766   N     0.74993   0.12733   0.37035   0.00000  Uiso   1.00
O767   O     0.75262   0.09540   0.39683   0.00000  Uiso   1.00
O768   O     0.70474   0.14259   0.35758   0.00000  Uiso   1.00
O769   O     0.16666   0.43892   0.53821   0.00000  Uiso   1.00
O770   O     0.16667   0.56108   0.46179   0.00000  Uiso   1.00
O771   O     0.16666   0.43893   0.46176   0.00000  Uiso   1.00
O772   O     0.16667   0.56107   0.53824   0.00000  Uiso   1.00
C773   C     0.16693   0.42014   0.49990   0.00000  Uiso   1.00
C774   C     0.16640   0.57986   0.50010   0.00000  Uiso   1.00
O775   O     0.09058   0.50000   0.52928   0.00000  Uiso   1.00
O776   O     0.24275   0.50000   0.47072   0.00000  Uiso   1.00
O777   O     0.09058   0.50000   0.45284   0.00000  Uiso   1.00
O778   O     0.24275   0.50000   0.54716   0.00000  Uiso   1.00
C779   C     0.06735   0.49902   0.48851   0.00000  Uiso   1.00
C780   C     0.26599   0.50098   0.51149   0.00000  Uiso   1.00
Zn781  Zn    0.16667   0.49999   0.55104   0.00000  Uiso   1.00
Zn782  Zn    0.16667   0.50001   0.44896   0.00000  Uiso   1.00
N783   N     0.16665   0.49999   0.61907   0.00000  Uiso   1.00
N784   N     0.16668   0.50001   0.38093   0.00000  Uiso   1.00
C785   C     0.01262   0.49140   0.48435   0.00000  Uiso   1.00
C786   C     0.32072   0.50860   0.51565   0.00000  Uiso   1.00
C787   C     0.14760   0.35356   0.46042   0.00000  Uiso   1.00
C788   C     0.18573   0.64644   0.53958   0.00000  Uiso   1.00
H789   H     0.13268   0.36881   0.42965   0.00000  Uiso   1.00
H790   H     0.20065   0.63119   0.57035   0.00000  Uiso   1.00
C791   C     0.14624   0.64413   0.46086   0.00000  Uiso   1.00
C792   C     0.18709   0.35587   0.53914   0.00000  Uiso   1.00
H793   H     0.12957   0.62686   0.43067   0.00000  Uiso   1.00
H794   H     0.20375   0.37314   0.56933   0.00000  Uiso   1.00
C795   C     0.16586   0.62406   0.50029   0.00000  Uiso   1.00
C796   C     0.16747   0.37594   0.49971   0.00000  Uiso   1.00
C797   C     0.20319   0.52440   0.36127   0.00000  Uiso   1.00
C798   C     0.13014   0.47560   0.63873   0.00000  Uiso   1.00
C799   C     0.20473   0.52225   0.64713   0.00000  Uiso   1.00
C800   C     0.12860   0.47775   0.35287   0.00000  Uiso   1.00
N801   N     0.32296   0.45706   0.45587   0.00000  Uiso   1.00
O802   O     0.29934   0.46390   0.41558   0.00000  Uiso   1.00
O803   O     0.33210   0.41898   0.46797   0.00000  Uiso   1.00
N804   N     0.01037   0.54294   0.54413   0.00000  Uiso   1.00
O805   O     0.03399   0.53610   0.58442   0.00000  Uiso   1.00
O806   O     0.00123   0.58102   0.53203   0.00000  Uiso   1.00
C807   C     0.24007   0.55670   0.38846   0.00000  Uiso   1.00
C808   C     0.22599   0.60147   0.37584   0.00000  Uiso   1.00
C809   C     0.26017   0.63360   0.40617   0.00000  Uiso   1.00
H810   H     0.25534   0.62852   0.44203   0.00000  Uiso   1.00
H811   H     0.30209   0.63127   0.40220   0.00000  Uiso   1.00
H812   H     0.24845   0.66553   0.39675   0.00000  Uiso   1.00
H813   H     0.23133   0.60806   0.34048   0.00000  Uiso   1.00
H814   H     0.18417   0.60529   0.37906   0.00000  Uiso   1.00
H815   H     0.23861   0.55400   0.42433   0.00000  Uiso   1.00
H816   H     0.28135   0.55203   0.38405   0.00000  Uiso   1.00
C817   C     0.09326   0.44331   0.61153   0.00000  Uiso   1.00
C818   C     0.10732   0.39853   0.62416   0.00000  Uiso   1.00
C819   C     0.07315   0.36640   0.59382   0.00000  Uiso   1.00
H820   H     0.03122   0.36876   0.59776   0.00000  Uiso   1.00
H821   H     0.07802   0.37147   0.55797   0.00000  Uiso   1.00
H822   H     0.08484   0.33448   0.60325   0.00000  Uiso   1.00
H823   H     0.14914   0.39470   0.62095   0.00000  Uiso   1.00
H824   H     0.10196   0.39194   0.65951   0.00000  Uiso   1.00
H825   H     0.05198   0.44798   0.61594   0.00000  Uiso   1.00
H826   H     0.09473   0.44600   0.57567   0.00000  Uiso   1.00
N827   N     0.25007   0.53933   0.62965   0.00000  Uiso   1.00
O828   O     0.29526   0.52408   0.64242   0.00000  Uiso   1.00
O829   O     0.24738   0.57127   0.60317   0.00000  Uiso   1.00
N830   N     0.08326   0.46067   0.37035   0.00000  Uiso   1.00
O831   O     0.08596   0.42874   0.39683   0.00000  Uiso   1.00
O832   O     0.03807   0.47592   0.35758   0.00000  Uiso   1.00
O833   O     0.50000   0.43892   0.53821   0.00000  Uiso   1.00
O834   O     0.50000   0.56108   0.46179   0.00000  Uiso   1.00
O835   O     0.50000   0.43893   0.46176   0.00000  Uiso   1.00
O836   O     0.50000   0.56107   0.53824   0.00000  Uiso   1.00
C837   C     0.50026   0.42014   0.49990   0.00000  Uiso   1.00
C838   C     0.49974   0.57986   0.50010   0.00000  Uiso   1.00
O839   O     0.42392   0.50000   0.52928   0.00000  Uiso   1.00
O840   O     0.57608   0.50000   0.47072   0.00000  Uiso   1.00
O841   O     0.42392   0.50000   0.45284   0.00000  Uiso   1.00
O842   O     0.57608   0.50000   0.54716   0.00000  Uiso   1.00
C843   C     0.40068   0.49902   0.48851   0.00000  Uiso   1.00
C844   C     0.59932   0.50098   0.51149   0.00000  Uiso   1.00
Zn845  Zn    0.50000   0.49999   0.55104   0.00000  Uiso   1.00
Zn846  Zn    0.50000   0.50001   0.44896   0.00000  Uiso   1.00
N847   N     0.49999   0.49999   0.61907   0.00000  Uiso   1.00
N848   N     0.50001   0.50001   0.38093   0.00000  Uiso   1.00
C849   C     0.34595   0.49140   0.48435   0.00000  Uiso   1.00
C850   C     0.65405   0.50860   0.51565   0.00000  Uiso   1.00
C851   C     0.48094   0.35356   0.46042   0.00000  Uiso   1.00
C852   C     0.51906   0.64644   0.53958   0.00000  Uiso   1.00
H853   H     0.46601   0.36881   0.42965   0.00000  Uiso   1.00
H854   H     0.53398   0.63119   0.57035   0.00000  Uiso   1.00
C855   C     0.47957   0.64413   0.46086   0.00000  Uiso   1.00
C856   C     0.52043   0.35587   0.53914   0.00000  Uiso   1.00
H857   H     0.46290   0.62686   0.43067   0.00000  Uiso   1.00
H858   H     0.53709   0.37314   0.56933   0.00000  Uiso   1.00
C859   C     0.49920   0.62406   0.50029   0.00000  Uiso   1.00
C860   C     0.50080   0.37594   0.49971   0.00000  Uiso   1.00
C861   C     0.53652   0.52440   0.36127   0.00000  Uiso   1.00
C862   C     0.46348   0.47560   0.63873   0.00000  Uiso   1.00
C863   C     0.53807   0.52225   0.64713   0.00000  Uiso   1.00
C864   C     0.46193   0.47775   0.35287   0.00000  Uiso   1.00
N865   N     0.65629   0.45706   0.45587   0.00000  Uiso   1.00
O866   O     0.63268   0.46390   0.41558   0.00000  Uiso   1.00
O867   O     0.66543   0.41898   0.46797   0.00000  Uiso   1.00
N868   N     0.34371   0.54294   0.54413   0.00000  Uiso   1.00
O869   O     0.36733   0.53610   0.58442   0.00000  Uiso   1.00
O870   O     0.33457   0.58102   0.53203   0.00000  Uiso   1.00
C871   C     0.57340   0.55670   0.38846   0.00000  Uiso   1.00
C872   C     0.55932   0.60147   0.37584   0.00000  Uiso   1.00
C873   C     0.59350   0.63360   0.40617   0.00000  Uiso   1.00
H874   H     0.58867   0.62852   0.44203   0.00000  Uiso   1.00
H875   H     0.63542   0.63127   0.40220   0.00000  Uiso   1.00
H876   H     0.58178   0.66553   0.39675   0.00000  Uiso   1.00
H877   H     0.56466   0.60806   0.34048   0.00000  Uiso   1.00
H878   H     0.51751   0.60529   0.37906   0.00000  Uiso   1.00
H879   H     0.57194   0.55400   0.42433   0.00000  Uiso   1.00
H880   H     0.61468   0.55203   0.38405   0.00000  Uiso   1.00
C881   C     0.42660   0.44331   0.61153   0.00000  Uiso   1.00
C882   C     0.44066   0.39853   0.62416   0.00000  Uiso   1.00
C883   C     0.40648   0.36640   0.59382   0.00000  Uiso   1.00
H884   H     0.36455   0.36876   0.59776   0.00000  Uiso   1.00
H885   H     0.41135   0.37147   0.55797   0.00000  Uiso   1.00
H886   H     0.41817   0.33448   0.60325   0.00000  Uiso   1.00
H887   H     0.48248   0.39470   0.62095   0.00000  Uiso   1.00
H888   H     0.43530   0.39194   0.65951   0.00000  Uiso   1.00
H889   H     0.38531   0.44798   0.61594   0.00000  Uiso   1.00
H890   H     0.42806   0.44600   0.57567   0.00000  Uiso   1.00
N891   N     0.58340   0.53933   0.62965   0.00000  Uiso   1.00
O892   O     0.62859   0.52408   0.64242   0.00000  Uiso   1.00
O893   O     0.58071   0.57127   0.60317   0.00000  Uiso   1.00
N894   N     0.41660   0.46067   0.37035   0.00000  Uiso   1.00
O895   O     0.41929   0.42874   0.39683   0.00000  Uiso   1.00
O896   O     0.37141   0.47592   0.35758   0.00000  Uiso   1.00
O897   O     0.83333   0.43892   0.53821   0.00000  Uiso   1.00
O898   O     0.83334   0.56108   0.46179   0.00000  Uiso   1.00
O899   O     0.83333   0.43893   0.46176   0.00000  Uiso   1.00
O900   O     0.83334   0.56107   0.53824   0.00000  Uiso   1.00
C901   C     0.83360   0.42014   0.49990   0.00000  Uiso   1.00
C902   C     0.83307   0.57986   0.50010   0.00000  Uiso   1.00
O903   O     0.75725   0.50000   0.52928   0.00000  Uiso   1.00
O904   O     0.90942   0.50000   0.47072   0.00000  Uiso   1.00
O905   O     0.75725   0.50000   0.45284   0.00000  Uiso   1.00
O906   O     0.90942   0.50000   0.54716   0.00000  Uiso   1.00
C907   C     0.73401   0.49902   0.48851   0.00000  Uiso   1.00
C908   C     0.93265   0.50098   0.51149   0.00000  Uiso   1.00
Zn909  Zn    0.83333   0.49999   0.55104   0.00000  Uiso   1.00
Zn910  Zn    0.83333   0.50001   0.44896   0.00000  Uiso   1.00
N911   N     0.83332   0.49999   0.61907   0.00000  Uiso   1.00
N912   N     0.83335   0.50001   0.38093   0.00000  Uiso   1.00
C913   C     0.67928   0.49140   0.48435   0.00000  Uiso   1.00
C914   C     0.98738   0.50860   0.51565   0.00000  Uiso   1.00
C915   C     0.81427   0.35356   0.46042   0.00000  Uiso   1.00
C916   C     0.85239   0.64644   0.53958   0.00000  Uiso   1.00
H917   H     0.79935   0.36881   0.42965   0.00000  Uiso   1.00
H918   H     0.86732   0.63119   0.57035   0.00000  Uiso   1.00
C919   C     0.81290   0.64413   0.46086   0.00000  Uiso   1.00
C920   C     0.85376   0.35587   0.53914   0.00000  Uiso   1.00
H921   H     0.79624   0.62686   0.43067   0.00000  Uiso   1.00
H922   H     0.87042   0.37314   0.56933   0.00000  Uiso   1.00
C923   C     0.83253   0.62406   0.50029   0.00000  Uiso   1.00
C924   C     0.83413   0.37594   0.49971   0.00000  Uiso   1.00
C925   C     0.86986   0.52440   0.36127   0.00000  Uiso   1.00
C926   C     0.79681   0.47560   0.63873   0.00000  Uiso   1.00
C927   C     0.87140   0.52225   0.64713   0.00000  Uiso   1.00
C928   C     0.79527   0.47775   0.35287   0.00000  Uiso   1.00
N929   N     0.98963   0.45706   0.45587   0.00000  Uiso   1.00
O930   O     0.96601   0.46390   0.41558   0.00000  Uiso   1.00
O931   O     0.99876   0.41898   0.46797   0.00000  Uiso   1.00
N932   N     0.67704   0.54294   0.54413   0.00000  Uiso   1.00
O933   O     0.70066   0.53610   0.58442   0.00000  Uiso   1.00
O934   O     0.66790   0.58102   0.53203   0.00000  Uiso   1.00
C935   C     0.90673   0.55670   0.38846   0.00000  Uiso   1.00
C936   C     0.89265   0.60147   0.37584   0.00000  Uiso   1.00
C937   C     0.92683   0.63360   0.40617   0.00000  Uiso   1.00
H938   H     0.92201   0.62852   0.44203   0.00000  Uiso   1.00
H939   H     0.96876   0.63127   0.40220   0.00000  Uiso   1.00
H940   H     0.91512   0.66553   0.39675   0.00000  Uiso   1.00
H941   H     0.89799   0.60806   0.34048   0.00000  Uiso   1.00
H942   H     0.85084   0.60529   0.37906   0.00000  Uiso   1.00
H943   H     0.90528   0.55400   0.42433   0.00000  Uiso   1.00
H944   H     0.94802   0.55203   0.38405   0.00000  Uiso   1.00
C945   C     0.75993   0.44331   0.61153   0.00000  Uiso   1.00
C946   C     0.77399   0.39853   0.62416   0.00000  Uiso   1.00
C947   C     0.73982   0.36640   0.59382   0.00000  Uiso   1.00
H948   H     0.69789   0.36876   0.59776   0.00000  Uiso   1.00
H949   H     0.74468   0.37147   0.55797   0.00000  Uiso   1.00
H950   H     0.75150   0.33448   0.60325   0.00000  Uiso   1.00
H951   H     0.81581   0.39470   0.62095   0.00000  Uiso   1.00
H952   H     0.76863   0.39194   0.65951   0.00000  Uiso   1.00
H953   H     0.71865   0.44798   0.61594   0.00000  Uiso   1.00
H954   H     0.76139   0.44600   0.57567   0.00000  Uiso   1.00
N955   N     0.91674   0.53933   0.62965   0.00000  Uiso   1.00
O956   O     0.96193   0.52408   0.64242   0.00000  Uiso   1.00
O957   O     0.91404   0.57127   0.60317   0.00000  Uiso   1.00
N958   N     0.74993   0.46067   0.37035   0.00000  Uiso   1.00
O959   O     0.75262   0.42874   0.39683   0.00000  Uiso   1.00
O960   O     0.70474   0.47592   0.35758   0.00000  Uiso   1.00
O961   O     0.16666   0.77225   0.53821   0.00000  Uiso   1.00
O962   O     0.16667   0.89442   0.46179   0.00000  Uiso   1.00
O963   O     0.16666   0.77226   0.46176   0.00000  Uiso   1.00
O964   O     0.16667   0.89441   0.53824   0.00000  Uiso   1.00
C965   C     0.16693   0.75348   0.49990   0.00000  Uiso   1.00
C966   C     0.16640   0.91319   0.50010   0.00000  Uiso   1.00
O967   O     0.09058   0.83333   0.52928   0.00000  Uiso   1.00
O968   O     0.24275   0.83334   0.47072   0.00000  Uiso   1.00
O969   O     0.09058   0.83334   0.45284   0.00000  Uiso   1.00
O970   O     0.24275   0.83333   0.54716   0.00000  Uiso   1.00
C971   C     0.06735   0.83235   0.48851   0.00000  Uiso   1.00
C972   C     0.26599   0.83431   0.51149   0.00000  Uiso   1.00
Zn973  Zn    0.16667   0.83333   0.55104   0.00000  Uiso   1.00
Zn974  Zn    0.16667   0.83334   0.44896   0.00000  Uiso   1.00
N975   N     0.16665   0.83332   0.61907   0.00000  Uiso   1.00
N976   N     0.16668   0.83334   0.38093   0.00000  Uiso   1.00
C977   C     0.01262   0.82473   0.48435   0.00000  Uiso   1.00
C978   C     0.32072   0.84194   0.51565   0.00000  Uiso   1.00
C979   C     0.14760   0.68689   0.46042   0.00000  Uiso   1.00
C980   C     0.18573   0.97978   0.53958   0.00000  Uiso   1.00
H981   H     0.13268   0.70214   0.42965   0.00000  Uiso   1.00
H982   H     0.20065   0.96453   0.57035   0.00000  Uiso   1.00
C983   C     0.14624   0.97747   0.46086   0.00000  Uiso   1.00
C984   C     0.18709   0.68920   0.53914   0.00000  Uiso   1.00
H985   H     0.12957   0.96019   0.43067   0.00000  Uiso   1.00
H986   H     0.20375   0.70647   0.56933   0.00000  Uiso   1.00
C987   C     0.16586   0.95739   0.50029   0.00000  Uiso   1.00
C988   C     0.16747   0.70927   0.49971   0.00000  Uiso   1.00
C989   C     0.20319   0.85773   0.36127   0.00000  Uiso   1.00
C990   C     0.13014   0.80893   0.63873   0.00000  Uiso   1.00
C991   C     0.20473   0.85559   0.64713   0.00000  Uiso   1.00
C992   C     0.12860   0.81108   0.35287   0.00000  Uiso   1.00
N993   N     0.32296   0.79039   0.45587   0.00000  Uiso   1.00
O994   O     0.29934   0.79723   0.41558   0.00000  Uiso   1.00
O995   O     0.33210   0.75231   0.46797   0.00000  Uiso   1.00
N996   N     0.01037   0.87627   0.54413   0.00000  Uiso   1.00
O997   O     0.03399   0.86943   0.58442   0.00000  Uiso   1.00
O998   O     0.00123   0.91436   0.53203   0.00000  Uiso   1.00
C999   C     0.24007   0.89003   0.38846   0.00000  Uiso   1.00
C1000  C     0.22599   0.93480   0.37584   0.00000  Uiso   1.00
C1001  C     0.26017   0.96694   0.40617   0.00000  Uiso   1.00
H1002  H     0.25534   0.96186   0.44203   0.00000  Uiso   1.00
H1003  H     0.30209   0.96460   0.40220   0.00000  Uiso   1.00
H1004  H     0.24845   0.99886   0.39675   0.00000  Uiso   1.00
H1005  H     0.23133   0.94139   0.34048   0.00000  Uiso   1.00
H1006  H     0.18417   0.93862   0.37906   0.00000  Uiso   1.00
H1007  H     0.23861   0.88733   0.42433   0.00000  Uiso   1.00
H1008  H     0.28135   0.88537   0.38405   0.00000  Uiso   1.00
C1009  C     0.09326   0.77664   0.61153   0.00000  Uiso   1.00
C1010  C     0.10732   0.73187   0.62416   0.00000  Uiso   1.00
C1011  C     0.07315   0.69974   0.59382   0.00000  Uiso   1.00
H1012  H     0.03122   0.70209   0.59776   0.00000  Uiso   1.00
H1013  H     0.07802   0.70481   0.55797   0.00000  Uiso   1.00
H1014  H     0.08484   0.66781   0.60325   0.00000  Uiso   1.00
H1015  H     0.14914   0.72804   0.62095   0.00000  Uiso   1.00
H1016  H     0.10196   0.72528   0.65951   0.00000  Uiso   1.00
H1017  H     0.05198   0.78131   0.61594   0.00000  Uiso   1.00
H1018  H     0.09473   0.77934   0.57567   0.00000  Uiso   1.00
N1019  N     0.25007   0.87267   0.62965   0.00000  Uiso   1.00
O1020  O     0.29526   0.85741   0.64242   0.00000  Uiso   1.00
O1021  O     0.24738   0.90460   0.60317   0.00000  Uiso   1.00
N1022  N     0.08326   0.79400   0.37035   0.00000  Uiso   1.00
O1023  O     0.08596   0.76207   0.39683   0.00000  Uiso   1.00
O1024  O     0.03807   0.80926   0.35758   0.00000  Uiso   1.00
O1025  O     0.50000   0.77225   0.53821   0.00000  Uiso   1.00
O1026  O     0.50000   0.89442   0.46179   0.00000  Uiso   1.00
O1027  O     0.50000   0.77226   0.46176   0.00000  Uiso   1.00
O1028  O     0.50000   0.89441   0.53824   0.00000  Uiso   1.00
C1029  C     0.50026   0.75348   0.49990   0.00000  Uiso   1.00
C1030  C     0.49974   0.91319   0.50010   0.00000  Uiso   1.00
O1031  O     0.42392   0.83333   0.52928   0.00000  Uiso   1.00
O1032  O     0.57608   0.83334   0.47072   0.00000  Uiso   1.00
O1033  O     0.42392   0.83334   0.45284   0.00000  Uiso   1.00
O1034  O     0.57608   0.83333   0.54716   0.00000  Uiso   1.00
C1035  C     0.40068   0.83235   0.48851   0.00000  Uiso   1.00
C1036  C     0.59932   0.83431   0.51149   0.00000  Uiso   1.00
Zn1037 Zn    0.50000   0.83333   0.55104   0.00000  Uiso   1.00
Zn1038 Zn    0.50000   0.83334   0.44896   0.00000  Uiso   1.00
N1039  N     0.49999   0.83332   0.61907   0.00000  Uiso   1.00
N1040  N     0.50001   0.83334   0.38093   0.00000  Uiso   1.00
C1041  C     0.34595   0.82473   0.48435   0.00000  Uiso   1.00
C1042  C     0.65405   0.84194   0.51565   0.00000  Uiso   1.00
C1043  C     0.48094   0.68689   0.46042   0.00000  Uiso   1.00
C1044  C     0.51906   0.97978   0.53958   0.00000  Uiso   1.00
H1045  H     0.46601   0.70214   0.42965   0.00000  Uiso   1.00
H1046  H     0.53398   0.96453   0.57035   0.00000  Uiso   1.00
C1047  C     0.47957   0.97747   0.46086   0.00000  Uiso   1.00
C1048  C     0.52043   0.68920   0.53914   0.00000  Uiso   1.00
H1049  H     0.46290   0.96019   0.43067   0.00000  Uiso   1.00
H1050  H     0.53709   0.70647   0.56933   0.00000  Uiso   1.00
C1051  C     0.49920   0.95739   0.50029   0.00000  Uiso   1.00
C1052  C     0.50080   0.70927   0.49971   0.00000  Uiso   1.00
C1053  C     0.53652   0.85773   0.36127   0.00000  Uiso   1.00
C1054  C     0.46348   0.80893   0.63873   0.00000  Uiso   1.00
C1055  C     0.53807   0.85559   0.64713   0.00000  Uiso   1.00
C1056  C     0.46193   0.81108   0.35287   0.00000  Uiso   1.00
N1057  N     0.65629   0.79039   0.45587   0.00000  Uiso   1.00
O1058  O     0.63268   0.79723   0.41558   0.00000  Uiso   1.00
O1059  O     0.66543   0.75231   0.46797   0.00000  Uiso   1.00
N1060  N     0.34371   0.87627   0.54413   0.00000  Uiso   1.00
O1061  O     0.36733   0.86943   0.58442   0.00000  Uiso   1.00
O1062  O     0.33457   0.91436   0.53203   0.00000  Uiso   1.00
C1063  C     0.57340   0.89003   0.38846   0.00000  Uiso   1.00
C1064  C     0.55932   0.93480   0.37584   0.00000  Uiso   1.00
C1065  C     0.59350   0.96694   0.40617   0.00000  Uiso   1.00
H1066  H     0.58867   0.96186   0.44203   0.00000  Uiso   1.00
H1067  H     0.63542   0.96460   0.40220   0.00000  Uiso   1.00
H1068  H     0.58178   0.99886   0.39675   0.00000  Uiso   1.00
H1069  H     0.56466   0.94139   0.34048   0.00000  Uiso   1.00
H1070  H     0.51751   0.93862   0.37906   0.00000  Uiso   1.00
H1071  H     0.57194   0.88733   0.42433   0.00000  Uiso   1.00
H1072  H     0.61468   0.88537   0.38405   0.00000  Uiso   1.00
C1073  C     0.42660   0.77664   0.61153   0.00000  Uiso   1.00
C1074  C     0.44066   0.73187   0.62416   0.00000  Uiso   1.00
C1075  C     0.40648   0.69974   0.59382   0.00000  Uiso   1.00
H1076  H     0.36455   0.70209   0.59776   0.00000  Uiso   1.00
H1077  H     0.41135   0.70481   0.55797   0.00000  Uiso   1.00
H1078  H     0.41817   0.66781   0.60325   0.00000  Uiso   1.00
H1079  H     0.48248   0.72804   0.62095   0.00000  Uiso   1.00
H1080  H     0.43530   0.72528   0.65951   0.00000  Uiso   1.00
H1081  H     0.38531   0.78131   0.61594   0.00000  Uiso   1.00
H1082  H     0.42806   0.77934   0.57567   0.00000  Uiso   1.00
N1083  N     0.58340   0.87267   0.62965   0.00000  Uiso   1.00
O1084  O     0.62859   0.85741   0.64242   0.00000  Uiso   1.00
O1085  O     0.58071   0.90460   0.60317   0.00000  Uiso   1.00
N1086  N     0.41660   0.79400   0.37035   0.00000  Uiso   1.00
O1087  O     0.41929   0.76207   0.39683   0.00000  Uiso   1.00
O1088  O     0.37141   0.80926   0.35758   0.00000  Uiso   1.00
O1089  O     0.83333   0.77225   0.53821   0.00000  Uiso   1.00
O1090  O     0.83334   0.89442   0.46179   0.00000  Uiso   1.00
O1091  O     0.83333   0.77226   0.46176   0.00000  Uiso   1.00
O1092  O     0.83334   0.89441   0.53824   0.00000  Uiso   1.00
C1093  C     0.83360   0.75348   0.49990   0.00000  Uiso   1.00
C1094  C     0.83307   0.91319   0.50010   0.00000  Uiso   1.00
O1095  O     0.75725   0.83333   0.52928   0.00000  Uiso   1.00
O1096  O     0.90942   0.83334   0.47072   0.00000  Uiso   1.00
O1097  O     0.75725   0.83334   0.45284   0.00000  Uiso   1.00
O1098  O     0.90942   0.83333   0.54716   0.00000  Uiso   1.00
C1099  C     0.73401   0.83235   0.48851   0.00000  Uiso   1.00
C1100  C     0.93265   0.83431   0.51149   0.00000  Uiso   1.00
Zn1101 Zn    0.83333   0.83333   0.55104   0.00000  Uiso   1.00
Zn1102 Zn    0.83333   0.83334   0.44896   0.00000  Uiso   1.00
N1103  N     0.83332   0.83332   0.61907   0.00000  Uiso   1.00
N1104  N     0.83335   0.83334   0.38093   0.00000  Uiso   1.00
C1105  C     0.67928   0.82473   0.48435   0.00000  Uiso   1.00
C1106  C     0.98738   0.84194   0.51565   0.00000  Uiso   1.00
C1107  C     0.81427   0.68689   0.46042   0.00000  Uiso   1.00
C1108  C     0.85239   0.97978   0.53958   0.00000  Uiso   1.00
H1109  H     0.79935   0.70214   0.42965   0.00000  Uiso   1.00
H1110  H     0.86732   0.96453   0.57035   0.00000  Uiso   1.00
C1111  C     0.81290   0.97747   0.46086   0.00000  Uiso   1.00
C1112  C     0.85376   0.68920   0.53914   0.00000  Uiso   1.00
H1113  H     0.79624   0.96019   0.43067   0.00000  Uiso   1.00
H1114  H     0.87042   0.70647   0.56933   0.00000  Uiso   1.00
C1115  C     0.83253   0.95739   0.50029   0.00000  Uiso   1.00
C1116  C     0.83413   0.70927   0.49971   0.00000  Uiso   1.00
C1117  C     0.86986   0.85773   0.36127   0.00000  Uiso   1.00
C1118  C     0.79681   0.80893   0.63873   0.00000  Uiso   1.00
C1119  C     0.87140   0.85559   0.64713   0.00000  Uiso   1.00
C1120  C     0.79527   0.81108   0.35287   0.00000  Uiso   1.00
N1121  N     0.98963   0.79039   0.45587   0.00000  Uiso   1.00
O1122  O     0.96601   0.79723   0.41558   0.00000  Uiso   1.00
O1123  O     0.99876   0.75231   0.46797   0.00000  Uiso   1.00
N1124  N     0.67704   0.87627   0.54413   0.00000  Uiso   1.00
O1125  O     0.70066   0.86943   0.58442   0.00000  Uiso   1.00
O1126  O     0.66790   0.91436   0.53203   0.00000  Uiso   1.00
C1127  C     0.90673   0.89003   0.38846   0.00000  Uiso   1.00
C1128  C     0.89265   0.93480   0.37584   0.00000  Uiso   1.00
C1129  C     0.92683   0.96694   0.40617   0.00000  Uiso   1.00
H1130  H     0.92201   0.96186   0.44203   0.00000  Uiso   1.00
H1131  H     0.96876   0.96460   0.40220   0.00000  Uiso   1.00
H1132  H     0.91512   0.99886   0.39675   0.00000  Uiso   1.00
H1133  H     0.89799   0.94139   0.34048   0.00000  Uiso   1.00
H1134  H     0.85084   0.93862   0.37906   0.00000  Uiso   1.00
H1135  H     0.90528   0.88733   0.42433   0.00000  Uiso   1.00
H1136  H     0.94802   0.88537   0.38405   0.00000  Uiso   1.00
C1137  C     0.75993   0.77664   0.61153   0.00000  Uiso   1.00
C1138  C     0.77399   0.73187   0.62416   0.00000  Uiso   1.00
C1139  C     0.73982   0.69974   0.59382   0.00000  Uiso   1.00
H1140  H     0.69789   0.70209   0.59776   0.00000  Uiso   1.00
H1141  H     0.74468   0.70481   0.55797   0.00000  Uiso   1.00
H1142  H     0.75150   0.66781   0.60325   0.00000  Uiso   1.00
H1143  H     0.81581   0.72804   0.62095   0.00000  Uiso   1.00
H1144  H     0.76863   0.72528   0.65951   0.00000  Uiso   1.00
H1145  H     0.71865   0.78131   0.61594   0.00000  Uiso   1.00
H1146  H     0.76139   0.77934   0.57567   0.00000  Uiso   1.00
N1147  N     0.91674   0.87267   0.62965   0.00000  Uiso   1.00
O1148  O     0.96193   0.85741   0.64242   0.00000  Uiso   1.00
O1149  O     0.91404   0.90460   0.60317   0.00000  Uiso   1.00
N1150  N     0.74993   0.79400   0.37035   0.00000  Uiso   1.00
O1151  O     0.75262   0.76207   0.39683   0.00000  Uiso   1.00
O1152  O     0.70474   0.80926   0.35758   0.00000  Uiso   1.00
O1153  O     0.16666   0.10558   0.87154   0.00000  Uiso   1.00
O1154  O     0.16667   0.22775   0.79513   0.00000  Uiso   1.00
O1155  O     0.16666   0.10559   0.79510   0.00000  Uiso   1.00
O1156  O     0.16667   0.22774   0.87157   0.00000  Uiso   1.00
C1157  C     0.16693   0.08681   0.83324   0.00000  Uiso   1.00
C1158  C     0.16640   0.24652   0.83343   0.00000  Uiso   1.00
O1159  O     0.09058   0.16666   0.86261   0.00000  Uiso   1.00
O1160  O     0.24275   0.16667   0.80405   0.00000  Uiso   1.00
O1161  O     0.09058   0.16667   0.78617   0.00000  Uiso   1.00
O1162  O     0.24275   0.16666   0.88050   0.00000  Uiso   1.00
C1163  C     0.06735   0.16569   0.82185   0.00000  Uiso   1.00
C1164  C     0.26599   0.16765   0.84482   0.00000  Uiso   1.00
Zn1165 Zn    0.16667   0.16666   0.88437   0.00000  Uiso   1.00
Zn1166 Zn    0.16667   0.16667   0.78229   0.00000  Uiso   1.00
N1167  N     0.16665   0.16666   0.95240   0.00000  Uiso   1.00
N1168  N     0.16668   0.16668   0.71427   0.00000  Uiso   1.00
C1169  C     0.01262   0.15806   0.81768   0.00000  Uiso   1.00
C1170  C     0.32072   0.17527   0.84898   0.00000  Uiso   1.00
C1171  C     0.14760   0.02022   0.79376   0.00000  Uiso   1.00
C1172  C     0.18573   0.31311   0.87291   0.00000  Uiso   1.00
H1173  H     0.13268   0.03547   0.76299   0.00000  Uiso   1.00
H1174  H     0.20065   0.29786   0.90368   0.00000  Uiso   1.00
C1175  C     0.14624   0.31080   0.79420   0.00000  Uiso   1.00
C1176  C     0.18709   0.02253   0.87247   0.00000  Uiso   1.00
H1177  H     0.12957   0.29353   0.76400   0.00000  Uiso   1.00
H1178  H     0.20375   0.03981   0.90267   0.00000  Uiso   1.00
C1179  C     0.16586   0.29073   0.83362   0.00000  Uiso   1.00
C1180  C     0.16747   0.04261   0.83305   0.00000  Uiso   1.00
C1181  C     0.20319   0.19106   0.69460   0.00000  Uiso   1.00
C1182  C     0.13014   0.14227   0.97206   0.00000  Uiso   1.00
C1183  C     0.20473   0.18892   0.98046   0.00000  Uiso   1.00
C1184  C     0.12860   0.14441   0.68621   0.00000  Uiso   1.00
N1185  N     0.32296   0.12373   0.78921   0.00000  Uiso   1.00
O1186  O     0.29934   0.13057   0.74892   0.00000  Uiso   1.00
O1187  O     0.33210   0.08564   0.80131   0.00000  Uiso   1.00
N1188  N     0.01037   0.20961   0.87746   0.00000  Uiso   1.00
O1189  O     0.03399   0.20277   0.91775   0.00000  Uiso   1.00
O1190  O     0.00123   0.24769   0.86536   0.00000  Uiso   1.00
C1191  C     0.24007   0.22336   0.72180   0.00000  Uiso   1.00
C1192  C     0.22599   0.26813   0.70917   0.00000  Uiso   1.00
C1193  C     0.26017   0.30027   0.73951   0.00000  Uiso   1.00
H1194  H     0.25534   0.29519   0.77536   0.00000  Uiso   1.00
H1195  H     0.30209   0.29794   0.73553   0.00000  Uiso   1.00
H1196  H     0.24845   0.33219   0.73008   0.00000  Uiso   1.00
H1197  H     0.23133   0.27472   0.67382   0.00000  Uiso   1.00
H1198  H     0.18417   0.27196   0.71240   0.00000  Uiso   1.00
H1199  H     0.23861   0.22066   0.75766   0.00000  Uiso   1.00
H1200  H     0.28135   0.21870   0.71739   0.00000  Uiso   1.00
C1201  C     0.09326   0.10997   0.94487   0.00000  Uiso   1.00
C1202  C     0.10732   0.06520   0.95750   0.00000  Uiso   1.00
C1203  C     0.07315   0.03307   0.92715   0.00000  Uiso   1.00
H1204  H     0.03122   0.03542   0.93109   0.00000  Uiso   1.00
H1205  H     0.07802   0.03814   0.89130   0.00000  Uiso   1.00
H1206  H     0.08484   0.00114   0.93659   0.00000  Uiso   1.00
H1207  H     0.14914   0.06137   0.95429   0.00000  Uiso   1.00
H1208  H     0.10196   0.05861   0.99285   0.00000  Uiso   1.00
H1209  H     0.05198   0.11465   0.94927   0.00000  Uiso   1.00
H1210  H     0.09473   0.11267   0.90900   0.00000  Uiso   1.00
N1211  N     0.25007   0.20600   0.96298   0.00000  Uiso   1.00
O1212  O     0.29526   0.19074   0.97575   0.00000  Uiso   1.00
O1213  O     0.24738   0.23793   0.93650   0.00000  Uiso   1.00
N1214  N     0.08326   0.12733   0.70368   0.00000  Uiso   1.00
O1215  O     0.08596   0.09540   0.73017   0.00000  Uiso   1.00
O1216  O     0.03807   0.14259   0.69091   0.00000  Uiso   1.00
O1217  O     0.50000   0.10558   0.87154   0.00000  Uiso   1.00
O1218  O     0.50000   0.22775   0.79513   0.00000  Uiso   1.00
O1219  O     0.50000   0.10559   0.79510   0.00000  Uiso   1.00
O1220  O     0.50000   0.22774   0.87157   0.00000  Uiso   1.00
C1221  C     0.50026   0.08681   0.83324   0.00000  Uiso   1.00
C1222  C     0.49974   0.24652   0.83343   0.00000  Uiso   1.00
O1223  O     0.42392   0.16666   0.86261   0.00000  Uiso   1.00
O1224  O     0.57608   0.16667   0.80405   0.00000  Uiso   1.00
O1225  O     0.42392   0.16667   0.78617   0.00000  Uiso   1.00
O1226  O     0.57608   0.16666   0.88050   0.00000  Uiso   1.00
C1227  C     0.40068   0.16569   0.82185   0.00000  Uiso   1.00
C1228  C     0.59932   0.16765   0.84482   0.00000  Uiso   1.00
Zn1229 Zn    0.50000   0.16666   0.88437   0.00000  Uiso   1.00
Zn1230 Zn    0.50000   0.16667   0.78229   0.00000  Uiso   1.00
N1231  N     0.49999   0.16666   0.95240   0.00000  Uiso   1.00
N1232  N     0.50001   0.16668   0.71427   0.00000  Uiso   1.00
C1233  C     0.34595   0.15806   0.81768   0.00000  Uiso   1.00
C1234  C     0.65405   0.17527   0.84898   0.00000  Uiso   1.00
C1235  C     0.48094   0.02022   0.79376   0.00000  Uiso   1.00
C1236  C     0.51906   0.31311   0.87291   0.00000  Uiso   1.00
H1237  H     0.46601   0.03547   0.76299   0.00000  Uiso   1.00
H1238  H     0.53398   0.29786   0.90368   0.00000  Uiso   1.00
C1239  C     0.47957   0.31080   0.79420   0.00000  Uiso   1.00
C1240  C     0.52043   0.02253   0.87247   0.00000  Uiso   1.00
H1241  H     0.46290   0.29353   0.76400   0.00000  Uiso   1.00
H1242  H     0.53709   0.03981   0.90267   0.00000  Uiso   1.00
C1243  C     0.49920   0.29073   0.83362   0.00000  Uiso   1.00
C1244  C     0.50080   0.04261   0.83305   0.00000  Uiso   1.00
C1245  C     0.53652   0.19106   0.69460   0.00000  Uiso   1.00
C1246  C     0.46348   0.14227   0.97206   0.00000  Uiso   1.00
C1247  C     0.53807   0.18892   0.98046   0.00000  Uiso   1.00
C1248  C     0.46193   0.14441   0.68621   0.00000  Uiso   1.00
N1249  N     0.65629   0.12373   0.78921   0.00000  Uiso   1.00
O1250  O     0.63268   0.13057   0.74892   0.00000  Uiso   1.00
O1251  O     0.66543   0.08564   0.80131   0.00000  Uiso   1.00
N1252  N     0.34371   0.20961   0.87746   0.00000  Uiso   1.00
O1253  O     0.36733   0.20277   0.91775   0.00000  Uiso   1.00
O1254  O     0.33457   0.24769   0.86536   0.00000  Uiso   1.00
C1255  C     0.57340   0.22336   0.72180   0.00000  Uiso   1.00
C1256  C     0.55932   0.26813   0.70917   0.00000  Uiso   1.00
C1257  C     0.59350   0.30027   0.73951   0.00000  Uiso   1.00
H1258  H     0.58867   0.29519   0.77536   0.00000  Uiso   1.00
H1259  H     0.63542   0.29794   0.73553   0.00000  Uiso   1.00
H1260  H     0.58178   0.33219   0.73008   0.00000  Uiso   1.00
H1261  H     0.56466   0.27472   0.67382   0.00000  Uiso   1.00
H1262  H     0.51751   0.27196   0.71240   0.00000  Uiso   1.00
H1263  H     0.57194   0.22066   0.75766   0.00000  Uiso   1.00
H1264  H     0.61468   0.21870   0.71739   0.00000  Uiso   1.00
C1265  C     0.42660   0.10997   0.94487   0.00000  Uiso   1.00
C1266  C     0.44066   0.06520   0.95750   0.00000  Uiso   1.00
C1267  C     0.40648   0.03307   0.92715   0.00000  Uiso   1.00
H1268  H     0.36455   0.03542   0.93109   0.00000  Uiso   1.00
H1269  H     0.41135   0.03814   0.89130   0.00000  Uiso   1.00
H1270  H     0.41817   0.00114   0.93659   0.00000  Uiso   1.00
H1271  H     0.48248   0.06137   0.95429   0.00000  Uiso   1.00
H1272  H     0.43530   0.05861   0.99285   0.00000  Uiso   1.00
H1273  H     0.38531   0.11465   0.94927   0.00000  Uiso   1.00
H1274  H     0.42806   0.11267   0.90900   0.00000  Uiso   1.00
N1275  N     0.58340   0.20600   0.96298   0.00000  Uiso   1.00
O1276  O     0.62859   0.19074   0.97575   0.00000  Uiso   1.00
O1277  O     0.58071   0.23793   0.93650   0.00000  Uiso   1.00
N1278  N     0.41660   0.12733   0.70368   0.00000  Uiso   1.00
O1279  O     0.41929   0.09540   0.73017   0.00000  Uiso   1.00
O1280  O     0.37141   0.14259   0.69091   0.00000  Uiso   1.00
O1281  O     0.83333   0.10558   0.87154   0.00000  Uiso   1.00
O1282  O     0.83334   0.22775   0.79513   0.00000  Uiso   1.00
O1283  O     0.83333   0.10559   0.79510   0.00000  Uiso   1.00
O1284  O     0.83334   0.22774   0.87157   0.00000  Uiso   1.00
C1285  C     0.83360   0.08681   0.83324   0.00000  Uiso   1.00
C1286  C     0.83307   0.24652   0.83343   0.00000  Uiso   1.00
O1287  O     0.75725   0.16666   0.86261   0.00000  Uiso   1.00
O1288  O     0.90942   0.16667   0.80405   0.00000  Uiso   1.00
O1289  O     0.75725   0.16667   0.78617   0.00000  Uiso   1.00
O1290  O     0.90942   0.16666   0.88050   0.00000  Uiso   1.00
C1291  C     0.73401   0.16569   0.82185   0.00000  Uiso   1.00
C1292  C     0.93265   0.16765   0.84482   0.00000  Uiso   1.00
Zn1293 Zn    0.83333   0.16666   0.88437   0.00000  Uiso   1.00
Zn1294 Zn    0.83333   0.16667   0.78229   0.00000  Uiso   1.00
N1295  N     0.83332   0.16666   0.95240   0.00000  Uiso   1.00
N1296  N     0.83335   0.16668   0.71427   0.00000  Uiso   1.00
C1297  C     0.67928   0.15806   0.81768   0.00000  Uiso   1.00
C1298  C     0.98738   0.17527   0.84898   0.00000  Uiso   1.00
C1299  C     0.81427   0.02022   0.79376   0.00000  Uiso   1.00
C1300  C     0.85239   0.31311   0.87291   0.00000  Uiso   1.00
H1301  H     0.79935   0.03547   0.76299   0.00000  Uiso   1.00
H1302  H     0.86732   0.29786   0.90368   0.00000  Uiso   1.00
C1303  C     0.81290   0.31080   0.79420   0.00000  Uiso   1.00
C1304  C     0.85376   0.02253   0.87247   0.00000  Uiso   1.00
H1305  H     0.79624   0.29353   0.76400   0.00000  Uiso   1.00
H1306  H     0.87042   0.03981   0.90267   0.00000  Uiso   1.00
C1307  C     0.83253   0.29073   0.83362   0.00000  Uiso   1.00
C1308  C     0.83413   0.04261   0.83305   0.00000  Uiso   1.00
C1309  C     0.86986   0.19106   0.69460   0.00000  Uiso   1.00
C1310  C     0.79681   0.14227   0.97206   0.00000  Uiso   1.00
C1311  C     0.87140   0.18892   0.98046   0.00000  Uiso   1.00
C1312  C     0.79527   0.14441   0.68621   0.00000  Uiso   1.00
N1313  N     0.98963   0.12373   0.78921   0.00000  Uiso   1.00
O1314  O     0.96601   0.13057   0.74892   0.00000  Uiso   1.00
O1315  O     0.99876   0.08564   0.80131   0.00000  Uiso   1.00
N1316  N     0.67704   0.20961   0.87746   0.00000  Uiso   1.00
O1317  O     0.70066   0.20277   0.91775   0.00000  Uiso   1.00
O1318  O     0.66790   0.24769   0.86536   0.00000  Uiso   1.00
C1319  C     0.90673   0.22336   0.72180   0.00000  Uiso   1.00
C1320  C     0.89265   0.26813   0.70917   0.00000  Uiso   1.00
C1321  C     0.92683   0.30027   0.73951   0.00000  Uiso   1.00
H1322  H     0.92201   0.29519   0.77536   0.00000  Uiso   1.00
H1323  H     0.96876   0.29794   0.73553   0.00000  Uiso   1.00
H1324  H     0.91512   0.33219   0.73008   0.00000  Uiso   1.00
H1325  H     0.89799   0.27472   0.67382   0.00000  Uiso   1.00
H1326  H     0.85084   0.27196   0.71240   0.00000  Uiso   1.00
H1327  H     0.90528   0.22066   0.75766   0.00000  Uiso   1.00
H1328  H     0.94802   0.21870   0.71739   0.00000  Uiso   1.00
C1329  C     0.75993   0.10997   0.94487   0.00000  Uiso   1.00
C1330  C     0.77399   0.06520   0.95750   0.00000  Uiso   1.00
C1331  C     0.73982   0.03307   0.92715   0.00000  Uiso   1.00
H1332  H     0.69789   0.03542   0.93109   0.00000  Uiso   1.00
H1333  H     0.74468   0.03814   0.89130   0.00000  Uiso   1.00
H1334  H     0.75150   0.00114   0.93659   0.00000  Uiso   1.00
H1335  H     0.81581   0.06137   0.95429   0.00000  Uiso   1.00
H1336  H     0.76863   0.05861   0.99285   0.00000  Uiso   1.00
H1337  H     0.71865   0.11465   0.94927   0.00000  Uiso   1.00
H1338  H     0.76139   0.11267   0.90900   0.00000  Uiso   1.00
N1339  N     0.91674   0.20600   0.96298   0.00000  Uiso   1.00
O1340  O     0.96193   0.19074   0.97575   0.00000  Uiso   1.00
O1341  O     0.91404   0.23793   0.93650   0.00000  Uiso   1.00
N1342  N     0.74993   0.12733   0.70368   0.00000  Uiso   1.00
O1343  O     0.75262   0.09540   0.73017   0.00000  Uiso   1.00
O1344  O     0.70474   0.14259   0.69091   0.00000  Uiso   1.00
O1345  O     0.16666   0.43892   0.87154   0.00000  Uiso   1.00
O1346  O     0.16667   0.56108   0.79513   0.00000  Uiso   1.00
O1347  O     0.16666   0.43893   0.79510   0.00000  Uiso   1.00
O1348  O     0.16667   0.56107   0.87157   0.00000  Uiso   1.00
C1349  C     0.16693   0.42014   0.83324   0.00000  Uiso   1.00
C1350  C     0.16640   0.57986   0.83343   0.00000  Uiso   1.00
O1351  O     0.09058   0.50000   0.86261   0.00000  Uiso   1.00
O1352  O     0.24275   0.50000   0.80405   0.00000  Uiso   1.00
O1353  O     0.09058   0.50000   0.78617   0.00000  Uiso   1.00
O1354  O     0.24275   0.50000   0.88050   0.00000  Uiso   1.00
C1355  C     0.06735   0.49902   0.82185   0.00000  Uiso   1.00
C1356  C     0.26599   0.50098   0.84482   0.00000  Uiso   1.00
Zn1357 Zn    0.16667   0.49999   0.88437   0.00000  Uiso   1.00
Zn1358 Zn    0.16667   0.50001   0.78229   0.00000  Uiso   1.00
N1359  N     0.16665   0.49999   0.95240   0.00000  Uiso   1.00
N1360  N     0.16668   0.50001   0.71427   0.00000  Uiso   1.00
C1361  C     0.01262   0.49140   0.81768   0.00000  Uiso   1.00
C1362  C     0.32072   0.50860   0.84898   0.00000  Uiso   1.00
C1363  C     0.14760   0.35356   0.79376   0.00000  Uiso   1.00
C1364  C     0.18573   0.64644   0.87291   0.00000  Uiso   1.00
H1365  H     0.13268   0.36881   0.76299   0.00000  Uiso   1.00
H1366  H     0.20065   0.63119   0.90368   0.00000  Uiso   1.00
C1367  C     0.14624   0.64413   0.79420   0.00000  Uiso   1.00
C1368  C     0.18709   0.35587   0.87247   0.00000  Uiso   1.00
H1369  H     0.12957   0.62686   0.76400   0.00000  Uiso   1.00
H1370  H     0.20375   0.37314   0.90267   0.00000  Uiso   1.00
C1371  C     0.16586   0.62406   0.83362   0.00000  Uiso   1.00
C1372  C     0.16747   0.37594   0.83305   0.00000  Uiso   1.00
C1373  C     0.20319   0.52440   0.69460   0.00000  Uiso   1.00
C1374  C     0.13014   0.47560   0.97206   0.00000  Uiso   1.00
C1375  C     0.20473   0.52225   0.98046   0.00000  Uiso   1.00
C1376  C     0.12860   0.47775   0.68621   0.00000  Uiso   1.00
N1377  N     0.32296   0.45706   0.78921   0.00000  Uiso   1.00
O1378  O     0.29934   0.46390   0.74892   0.00000  Uiso   1.00
O1379  O     0.33210   0.41898   0.80131   0.00000  Uiso   1.00
N1380  N     0.01037   0.54294   0.87746   0.00000  Uiso   1.00
O1381  O     0.03399   0.53610   0.91775   0.00000  Uiso   1.00
O1382  O     0.00123   0.58102   0.86536   0.00000  Uiso   1.00
C1383  C     0.24007   0.55670   0.72180   0.00000  Uiso   1.00
C1384  C     0.22599   0.60147   0.70917   0.00000  Uiso   1.00
C1385  C     0.26017   0.63360   0.73951   0.00000  Uiso   1.00
H1386  H     0.25534   0.62852   0.77536   0.00000  Uiso   1.00
H1387  H     0.30209   0.63127   0.73553   0.00000  Uiso   1.00
H1388  H     0.24845   0.66553   0.73008   0.00000  Uiso   1.00
H1389  H     0.23133   0.60806   0.67382   0.00000  Uiso   1.00
H1390  H     0.18417   0.60529   0.71240   0.00000  Uiso   1.00
H1391  H     0.23861   0.55400   0.75766   0.00000  Uiso   1.00
H1392  H     0.28135   0.55203   0.71739   0.00000  Uiso   1.00
C1393  C     0.09326   0.44331   0.94487   0.00000  Uiso   1.00
C1394  C     0.10732   0.39853   0.95750   0.00000  Uiso   1.00
C1395  C     0.07315   0.36640   0.92715   0.00000  Uiso   1.00
H1396  H     0.03122   0.36876   0.93109   0.00000  Uiso   1.00
H1397  H     0.07802   0.37147   0.89130   0.00000  Uiso   1.00
H1398  H     0.08484   0.33448   0.93659   0.00000  Uiso   1.00
H1399  H     0.14914   0.39470   0.95429   0.00000  Uiso   1.00
H1400  H     0.10196   0.39194   0.99285   0.00000  Uiso   1.00
H1401  H     0.05198   0.44798   0.94927   0.00000  Uiso   1.00
H1402  H     0.09473   0.44600   0.90900   0.00000  Uiso   1.00
N1403  N     0.25007   0.53933   0.96298   0.00000  Uiso   1.00
O1404  O     0.29526   0.52408   0.97575   0.00000  Uiso   1.00
O1405  O     0.24738   0.57127   0.93650   0.00000  Uiso   1.00
N1406  N     0.08326   0.46067   0.70368   0.00000  Uiso   1.00
O1407  O     0.08596   0.42874   0.73017   0.00000  Uiso   1.00
O1408  O     0.03807   0.47592   0.69091   0.00000  Uiso   1.00
O1409  O     0.50000   0.43892   0.87154   0.00000  Uiso   1.00
O1410  O     0.50000   0.56108   0.79513   0.00000  Uiso   1.00
O1411  O     0.50000   0.43893   0.79510   0.00000  Uiso   1.00
O1412  O     0.50000   0.56107   0.87157   0.00000  Uiso   1.00
C1413  C     0.50026   0.42014   0.83324   0.00000  Uiso   1.00
C1414  C     0.49974   0.57986   0.83343   0.00000  Uiso   1.00
O1415  O     0.42392   0.50000   0.86261   0.00000  Uiso   1.00
O1416  O     0.57608   0.50000   0.80405   0.00000  Uiso   1.00
O1417  O     0.42392   0.50000   0.78617   0.00000  Uiso   1.00
O1418  O     0.57608   0.50000   0.88050   0.00000  Uiso   1.00
C1419  C     0.40068   0.49902   0.82185   0.00000  Uiso   1.00
C1420  C     0.59932   0.50098   0.84482   0.00000  Uiso   1.00
Zn1421 Zn    0.50000   0.49999   0.88437   0.00000  Uiso   1.00
Zn1422 Zn    0.50000   0.50001   0.78229   0.00000  Uiso   1.00
N1423  N     0.49999   0.49999   0.95240   0.00000  Uiso   1.00
N1424  N     0.50001   0.50001   0.71427   0.00000  Uiso   1.00
C1425  C     0.34595   0.49140   0.81768   0.00000  Uiso   1.00
C1426  C     0.65405   0.50860   0.84898   0.00000  Uiso   1.00
C1427  C     0.48094   0.35356   0.79376   0.00000  Uiso   1.00
C1428  C     0.51906   0.64644   0.87291   0.00000  Uiso   1.00
H1429  H     0.46601   0.36881   0.76299   0.00000  Uiso   1.00
H1430  H     0.53398   0.63119   0.90368   0.00000  Uiso   1.00
C1431  C     0.47957   0.64413   0.79420   0.00000  Uiso   1.00
C1432  C     0.52043   0.35587   0.87247   0.00000  Uiso   1.00
H1433  H     0.46290   0.62686   0.76400   0.00000  Uiso   1.00
H1434  H     0.53709   0.37314   0.90267   0.00000  Uiso   1.00
C1435  C     0.49920   0.62406   0.83362   0.00000  Uiso   1.00
C1436  C     0.50080   0.37594   0.83305   0.00000  Uiso   1.00
C1437  C     0.53652   0.52440   0.69460   0.00000  Uiso   1.00
C1438  C     0.46348   0.47560   0.97206   0.00000  Uiso   1.00
C1439  C     0.53807   0.52225   0.98046   0.00000  Uiso   1.00
C1440  C     0.46193   0.47775   0.68621   0.00000  Uiso   1.00
N1441  N     0.65629   0.45706   0.78921   0.00000  Uiso   1.00
O1442  O     0.63268   0.46390   0.74892   0.00000  Uiso   1.00
O1443  O     0.66543   0.41898   0.80131   0.00000  Uiso   1.00
N1444  N     0.34371   0.54294   0.87746   0.00000  Uiso   1.00
O1445  O     0.36733   0.53610   0.91775   0.00000  Uiso   1.00
O1446  O     0.33457   0.58102   0.86536   0.00000  Uiso   1.00
C1447  C     0.57340   0.55670   0.72180   0.00000  Uiso   1.00
C1448  C     0.55932   0.60147   0.70917   0.00000  Uiso   1.00
C1449  C     0.59350   0.63360   0.73951   0.00000  Uiso   1.00
H1450  H     0.58867   0.62852   0.77536   0.00000  Uiso   1.00
H1451  H     0.63542   0.63127   0.73553   0.00000  Uiso   1.00
H1452  H     0.58178   0.66553   0.73008   0.00000  Uiso   1.00
H1453  H     0.56466   0.60806   0.67382   0.00000  Uiso   1.00
H1454  H     0.51751   0.60529   0.71240   0.00000  Uiso   1.00
H1455  H     0.57194   0.55400   0.75766   0.00000  Uiso   1.00
H1456  H     0.61468   0.55203   0.71739   0.00000  Uiso   1.00
C1457  C     0.42660   0.44331   0.94487   0.00000  Uiso   1.00
C1458  C     0.44066   0.39853   0.95750   0.00000  Uiso   1.00
C1459  C     0.40648   0.36640   0.92715   0.00000  Uiso   1.00
H1460  H     0.36455   0.36876   0.93109   0.00000  Uiso   1.00
H1461  H     0.41135   0.37147   0.89130   0.00000  Uiso   1.00
H1462  H     0.41817   0.33448   0.93659   0.00000  Uiso   1.00
H1463  H     0.48248   0.39470   0.95429   0.00000  Uiso   1.00
H1464  H     0.43530   0.39194   0.99285   0.00000  Uiso   1.00
H1465  H     0.38531   0.44798   0.94927   0.00000  Uiso   1.00
H1466  H     0.42806   0.44600   0.90900   0.00000  Uiso   1.00
N1467  N     0.58340   0.53933   0.96298   0.00000  Uiso   1.00
O1468  O     0.62859   0.52408   0.97575   0.00000  Uiso   1.00
O1469  O     0.58071   0.57127   0.93650   0.00000  Uiso   1.00
N1470  N     0.41660   0.46067   0.70368   0.00000  Uiso   1.00
O1471  O     0.41929   0.42874   0.73017   0.00000  Uiso   1.00
O1472  O     0.37141   0.47592   0.69091   0.00000  Uiso   1.00
O1473  O     0.83333   0.43892   0.87154   0.00000  Uiso   1.00
O1474  O     0.83334   0.56108   0.79513   0.00000  Uiso   1.00
O1475  O     0.83333   0.43893   0.79510   0.00000  Uiso   1.00
O1476  O     0.83334   0.56107   0.87157   0.00000  Uiso   1.00
C1477  C     0.83360   0.42014   0.83324   0.00000  Uiso   1.00
C1478  C     0.83307   0.57986   0.83343   0.00000  Uiso   1.00
O1479  O     0.75725   0.50000   0.86261   0.00000  Uiso   1.00
O1480  O     0.90942   0.50000   0.80405   0.00000  Uiso   1.00
O1481  O     0.75725   0.50000   0.78617   0.00000  Uiso   1.00
O1482  O     0.90942   0.50000   0.88050   0.00000  Uiso   1.00
C1483  C     0.73401   0.49902   0.82185   0.00000  Uiso   1.00
C1484  C     0.93265   0.50098   0.84482   0.00000  Uiso   1.00
Zn1485 Zn    0.83333   0.49999   0.88437   0.00000  Uiso   1.00
Zn1486 Zn    0.83333   0.50001   0.78229   0.00000  Uiso   1.00
N1487  N     0.83332   0.49999   0.95240   0.00000  Uiso   1.00
N1488  N     0.83335   0.50001   0.71427   0.00000  Uiso   1.00
C1489  C     0.67928   0.49140   0.81768   0.00000  Uiso   1.00
C1490  C     0.98738   0.50860   0.84898   0.00000  Uiso   1.00
C1491  C     0.81427   0.35356   0.79376   0.00000  Uiso   1.00
C1492  C     0.85239   0.64644   0.87291   0.00000  Uiso   1.00
H1493  H     0.79935   0.36881   0.76299   0.00000  Uiso   1.00
H1494  H     0.86732   0.63119   0.90368   0.00000  Uiso   1.00
C1495  C     0.81290   0.64413   0.79420   0.00000  Uiso   1.00
C1496  C     0.85376   0.35587   0.87247   0.00000  Uiso   1.00
H1497  H     0.79624   0.62686   0.76400   0.00000  Uiso   1.00
H1498  H     0.87042   0.37314   0.90267   0.00000  Uiso   1.00
C1499  C     0.83253   0.62406   0.83362   0.00000  Uiso   1.00
C1500  C     0.83413   0.37594   0.83305   0.00000  Uiso   1.00
C1501  C     0.86986   0.52440   0.69460   0.00000  Uiso   1.00
C1502  C     0.79681   0.47560   0.97206   0.00000  Uiso   1.00
C1503  C     0.87140   0.52225   0.98046   0.00000  Uiso   1.00
C1504  C     0.79527   0.47775   0.68621   0.00000  Uiso   1.00
N1505  N     0.98963   0.45706   0.78921   0.00000  Uiso   1.00
O1506  O     0.96601   0.46390   0.74892   0.00000  Uiso   1.00
O1507  O     0.99876   0.41898   0.80131   0.00000  Uiso   1.00
N1508  N     0.67704   0.54294   0.87746   0.00000  Uiso   1.00
O1509  O     0.70066   0.53610   0.91775   0.00000  Uiso   1.00
O1510  O     0.66790   0.58102   0.86536   0.00000  Uiso   1.00
C1511  C     0.90673   0.55670   0.72180   0.00000  Uiso   1.00
C1512  C     0.89265   0.60147   0.70917   0.00000  Uiso   1.00
C1513  C     0.92683   0.63360   0.73951   0.00000  Uiso   1.00
H1514  H     0.92201   0.62852   0.77536   0.00000  Uiso   1.00
H1515  H     0.96876   0.63127   0.73553   0.00000  Uiso   1.00
H1516  H     0.91512   0.66553   0.73008   0.00000  Uiso   1.00
H1517  H     0.89799   0.60806   0.67382   0.00000  Uiso   1.00
H1518  H     0.85084   0.60529   0.71240   0.00000  Uiso   1.00
H1519  H     0.90528   0.55400   0.75766   0.00000  Uiso   1.00
H1520  H     0.94802   0.55203   0.71739   0.00000  Uiso   1.00
C1521  C     0.75993   0.44331   0.94487   0.00000  Uiso   1.00
C1522  C     0.77399   0.39853   0.95750   0.00000  Uiso   1.00
C1523  C     0.73982   0.36640   0.92715   0.00000  Uiso   1.00
H1524  H     0.69789   0.36876   0.93109   0.00000  Uiso   1.00
H1525  H     0.74468   0.37147   0.89130   0.00000  Uiso   1.00
H1526  H     0.75150   0.33448   0.93659   0.00000  Uiso   1.00
H1527  H     0.81581   0.39470   0.95429   0.00000  Uiso   1.00
H1528  H     0.76863   0.39194   0.99285   0.00000  Uiso   1.00
H1529  H     0.71865   0.44798   0.94927   0.00000  Uiso   1.00
H1530  H     0.76139   0.44600   0.90900   0.00000  Uiso   1.00
N1531  N     0.91674   0.53933   0.96298   0.00000  Uiso   1.00
O1532  O     0.96193   0.52408   0.97575   0.00000  Uiso   1.00
O1533  O     0.91404   0.57127   0.93650   0.00000  Uiso   1.00
N1534  N     0.74993   0.46067   0.70368   0.00000  Uiso   1.00
O1535  O     0.75262   0.42874   0.73017   0.00000  Uiso   1.00
O1536  O     0.70474   0.47592   0.69091   0.00000  Uiso   1.00
O1537  O     0.16666   0.77225   0.87154   0.00000  Uiso   1.00
O1538  O     0.16667   0.89442   0.79513   0.00000  Uiso   1.00
O1539  O     0.16666   0.77226   0.79510   0.00000  Uiso   1.00
O1540  O     0.16667   0.89441   0.87157   0.00000  Uiso   1.00
C1541  C     0.16693   0.75348   0.83324   0.00000  Uiso   1.00
C1542  C     0.16640   0.91319   0.83343   0.00000  Uiso   1.00
O1543  O     0.09058   0.83333   0.86261   0.00000  Uiso   1.00
O1544  O     0.24275   0.83334   0.80405   0.00000  Uiso   1.00
O1545  O     0.09058   0.83334   0.78617   0.00000  Uiso   1.00
O1546  O     0.24275   0.83333   0.88050   0.00000  Uiso   1.00
C1547  C     0.06735   0.83235   0.82185   0.00000  Uiso   1.00
C1548  C     0.26599   0.83431   0.84482   0.00000  Uiso   1.00
Zn1549 Zn    0.16667   0.83333   0.88437   0.00000  Uiso   1.00
Zn1550 Zn    0.16667   0.83334   0.78229   0.00000  Uiso   1.00
N1551  N     0.16665   0.83332   0.95240   0.00000  Uiso   1.00
N1552  N     0.16668   0.83334   0.71427   0.00000  Uiso   1.00
C1553  C     0.01262   0.82473   0.81768   0.00000  Uiso   1.00
C1554  C     0.32072   0.84194   0.84898   0.00000  Uiso   1.00
C1555  C     0.14760   0.68689   0.79376   0.00000  Uiso   1.00
C1556  C     0.18573   0.97978   0.87291   0.00000  Uiso   1.00
H1557  H     0.13268   0.70214   0.76299   0.00000  Uiso   1.00
H1558  H     0.20065   0.96453   0.90368   0.00000  Uiso   1.00
C1559  C     0.14624   0.97747   0.79420   0.00000  Uiso   1.00
C1560  C     0.18709   0.68920   0.87247   0.00000  Uiso   1.00
H1561  H     0.12957   0.96019   0.76400   0.00000  Uiso   1.00
H1562  H     0.20375   0.70647   0.90267   0.00000  Uiso   1.00
C1563  C     0.16586   0.95739   0.83362   0.00000  Uiso   1.00
C1564  C     0.16747   0.70927   0.83305   0.00000  Uiso   1.00
C1565  C     0.20319   0.85773   0.69460   0.00000  Uiso   1.00
C1566  C     0.13014   0.80893   0.97206   0.00000  Uiso   1.00
C1567  C     0.20473   0.85559   0.98046   0.00000  Uiso   1.00
C1568  C     0.12860   0.81108   0.68621   0.00000  Uiso   1.00
N1569  N     0.32296   0.79039   0.78921   0.00000  Uiso   1.00
O1570  O     0.29934   0.79723   0.74892   0.00000  Uiso   1.00
O1571  O     0.33210   0.75231   0.80131   0.00000  Uiso   1.00
N1572  N     0.01037   0.87627   0.87746   0.00000  Uiso   1.00
O1573  O     0.03399   0.86943   0.91775   0.00000  Uiso   1.00
O1574  O     0.00123   0.91436   0.86536   0.00000  Uiso   1.00
C1575  C     0.24007   0.89003   0.72180   0.00000  Uiso   1.00
C1576  C     0.22599   0.93480   0.70917   0.00000  Uiso   1.00
C1577  C     0.26017   0.96694   0.73951   0.00000  Uiso   1.00
H1578  H     0.25534   0.96186   0.77536   0.00000  Uiso   1.00
H1579  H     0.30209   0.96460   0.73553   0.00000  Uiso   1.00
H1580  H     0.24845   0.99886   0.73008   0.00000  Uiso   1.00
H1581  H     0.23133   0.94139   0.67382   0.00000  Uiso   1.00
H1582  H     0.18417   0.93862   0.71240   0.00000  Uiso   1.00
H1583  H     0.23861   0.88733   0.75766   0.00000  Uiso   1.00
H1584  H     0.28135   0.88537   0.71739   0.00000  Uiso   1.00
C1585  C     0.09326   0.77664   0.94487   0.00000  Uiso   1.00
C1586  C     0.10732   0.73187   0.95750   0.00000  Uiso   1.00
C1587  C     0.07315   0.69974   0.92715   0.00000  Uiso   1.00
H1588  H     0.03122   0.70209   0.93109   0.00000  Uiso   1.00
H1589  H     0.07802   0.70481   0.89130   0.00000  Uiso   1.00
H1590  H     0.08484   0.66781   0.93659   0.00000  Uiso   1.00
H1591  H     0.14914   0.72804   0.95429   0.00000  Uiso   1.00
H1592  H     0.10196   0.72528   0.99285   0.00000  Uiso   1.00
H1593  H     0.05198   0.78131   0.94927   0.00000  Uiso   1.00
H1594  H     0.09473   0.77934   0.90900   0.00000  Uiso   1.00
N1595  N     0.25007   0.87267   0.96298   0.00000  Uiso   1.00
O1596  O     0.29526   0.85741   0.97575   0.00000  Uiso   1.00
O1597  O     0.24738   0.90460   0.93650   0.00000  Uiso   1.00
N1598  N     0.08326   0.79400   0.70368   0.00000  Uiso   1.00
O1599  O     0.08596   0.76207   0.73017   0.00000  Uiso   1.00
O1600  O     0.03807   0.80926   0.69091   0.00000  Uiso   1.00
O1601  O     0.50000   0.77225   0.87154   0.00000  Uiso   1.00
O1602  O     0.50000   0.89442   0.79513   0.00000  Uiso   1.00
O1603  O     0.50000   0.77226   0.79510   0.00000  Uiso   1.00
O1604  O     0.50000   0.89441   0.87157   0.00000  Uiso   1.00
C1605  C     0.50026   0.75348   0.83324   0.00000  Uiso   1.00
C1606  C     0.49974   0.91319   0.83343   0.00000  Uiso   1.00
O1607  O     0.42392   0.83333   0.86261   0.00000  Uiso   1.00
O1608  O     0.57608   0.83334   0.80405   0.00000  Uiso   1.00
O1609  O     0.42392   0.83334   0.78617   0.00000  Uiso   1.00
O1610  O     0.57608   0.83333   0.88050   0.00000  Uiso   1.00
C1611  C     0.40068   0.83235   0.82185   0.00000  Uiso   1.00
C1612  C     0.59932   0.83431   0.84482   0.00000  Uiso   1.00
Zn1613 Zn    0.50000   0.83333   0.88437   0.00000  Uiso   1.00
Zn1614 Zn    0.50000   0.83334   0.78229   0.00000  Uiso   1.00
N1615  N     0.49999   0.83332   0.95240   0.00000  Uiso   1.00
N1616  N     0.50001   0.83334   0.71427   0.00000  Uiso   1.00
C1617  C     0.34595   0.82473   0.81768   0.00000  Uiso   1.00
C1618  C     0.65405   0.84194   0.84898   0.00000  Uiso   1.00
C1619  C     0.48094   0.68689   0.79376   0.00000  Uiso   1.00
C1620  C     0.51906   0.97978   0.87291   0.00000  Uiso   1.00
H1621  H     0.46601   0.70214   0.76299   0.00000  Uiso   1.00
H1622  H     0.53398   0.96453   0.90368   0.00000  Uiso   1.00
C1623  C     0.47957   0.97747   0.79420   0.00000  Uiso   1.00
C1624  C     0.52043   0.68920   0.87247   0.00000  Uiso   1.00
H1625  H     0.46290   0.96019   0.76400   0.00000  Uiso   1.00
H1626  H     0.53709   0.70647   0.90267   0.00000  Uiso   1.00
C1627  C     0.49920   0.95739   0.83362   0.00000  Uiso   1.00
C1628  C     0.50080   0.70927   0.83305   0.00000  Uiso   1.00
C1629  C     0.53652   0.85773   0.69460   0.00000  Uiso   1.00
C1630  C     0.46348   0.80893   0.97206   0.00000  Uiso   1.00
C1631  C     0.53807   0.85559   0.98046   0.00000  Uiso   1.00
C1632  C     0.46193   0.81108   0.68621   0.00000  Uiso   1.00
N1633  N     0.65629   0.79039   0.78921   0.00000  Uiso   1.00
O1634  O     0.63268   0.79723   0.74892   0.00000  Uiso   1.00
O1635  O     0.66543   0.75231   0.80131   0.00000  Uiso   1.00
N1636  N     0.34371   0.87627   0.87746   0.00000  Uiso   1.00
O1637  O     0.36733   0.86943   0.91775   0.00000  Uiso   1.00
O1638  O     0.33457   0.91436   0.86536   0.00000  Uiso   1.00
C1639  C     0.57340   0.89003   0.72180   0.00000  Uiso   1.00
C1640  C     0.55932   0.93480   0.70917   0.00000  Uiso   1.00
C1641  C     0.59350   0.96694   0.73951   0.00000  Uiso   1.00
H1642  H     0.58867   0.96186   0.77536   0.00000  Uiso   1.00
H1643  H     0.63542   0.96460   0.73553   0.00000  Uiso   1.00
H1644  H     0.58178   0.99886   0.73008   0.00000  Uiso   1.00
H1645  H     0.56466   0.94139   0.67382   0.00000  Uiso   1.00
H1646  H     0.51751   0.93862   0.71240   0.00000  Uiso   1.00
H1647  H     0.57194   0.88733   0.75766   0.00000  Uiso   1.00
H1648  H     0.61468   0.88537   0.71739   0.00000  Uiso   1.00
C1649  C     0.42660   0.77664   0.94487   0.00000  Uiso   1.00
C1650  C     0.44066   0.73187   0.95750   0.00000  Uiso   1.00
C1651  C     0.40648   0.69974   0.92715   0.00000  Uiso   1.00
H1652  H     0.36455   0.70209   0.93109   0.00000  Uiso   1.00
H1653  H     0.41135   0.70481   0.89130   0.00000  Uiso   1.00
H1654  H     0.41817   0.66781   0.93659   0.00000  Uiso   1.00
H1655  H     0.48248   0.72804   0.95429   0.00000  Uiso   1.00
H1656  H     0.43530   0.72528   0.99285   0.00000  Uiso   1.00
H1657  H     0.38531   0.78131   0.94927   0.00000  Uiso   1.00
H1658  H     0.42806   0.77934   0.90900   0.00000  Uiso   1.00
N1659  N     0.58340   0.87267   0.96298   0.00000  Uiso   1.00
O1660  O     0.62859   0.85741   0.97575   0.00000  Uiso   1.00
O1661  O     0.58071   0.90460   0.93650   0.00000  Uiso   1.00
N1662  N     0.41660   0.79400   0.70368   0.00000  Uiso   1.00
O1663  O     0.41929   0.76207   0.73017   0.00000  Uiso   1.00
O1664  O     0.37141   0.80926   0.69091   0.00000  Uiso   1.00
O1665  O     0.83333   0.77225   0.87154   0.00000  Uiso   1.00
O1666  O     0.83334   0.89442   0.79513   0.00000  Uiso   1.00
O1667  O     0.83333   0.77226   0.79510   0.00000  Uiso   1.00
O1668  O     0.83334   0.89441   0.87157   0.00000  Uiso   1.00
C1669  C     0.83360   0.75348   0.83324   0.00000  Uiso   1.00
C1670  C     0.83307   0.91319   0.83343   0.00000  Uiso   1.00
O1671  O     0.75725   0.83333   0.86261   0.00000  Uiso   1.00
O1672  O     0.90942   0.83334   0.80405   0.00000  Uiso   1.00
O1673  O     0.75725   0.83334   0.78617   0.00000  Uiso   1.00
O1674  O     0.90942   0.83333   0.88050   0.00000  Uiso   1.00
C1675  C     0.73401   0.83235   0.82185   0.00000  Uiso   1.00
C1676  C     0.93265   0.83431   0.84482   0.00000  Uiso   1.00
Zn1677 Zn    0.83333   0.83333   0.88437   0.00000  Uiso   1.00
Zn1678 Zn    0.83333   0.83334   0.78229   0.00000  Uiso   1.00
N1679  N     0.83332   0.83332   0.95240   0.00000  Uiso   1.00
N1680  N     0.83335   0.83334   0.71427   0.00000  Uiso   1.00
C1681  C     0.67928   0.82473   0.81768   0.00000  Uiso   1.00
C1682  C     0.98738   0.84194   0.84898   0.00000  Uiso   1.00
C1683  C     0.81427   0.68689   0.79376   0.00000  Uiso   1.00
C1684  C     0.85239   0.97978   0.87291   0.00000  Uiso   1.00
H1685  H     0.79935   0.70214   0.76299   0.00000  Uiso   1.00
H1686  H     0.86732   0.96453   0.90368   0.00000  Uiso   1.00
C1687  C     0.81290   0.97747   0.79420   0.00000  Uiso   1.00
C1688  C     0.85376   0.68920   0.87247   0.00000  Uiso   1.00
H1689  H     0.79624   0.96019   0.76400   0.00000  Uiso   1.00
H1690  H     0.87042   0.70647   0.90267   0.00000  Uiso   1.00
C1691  C     0.83253   0.95739   0.83362   0.00000  Uiso   1.00
C1692  C     0.83413   0.70927   0.83305   0.00000  Uiso   1.00
C1693  C     0.86986   0.85773   0.69460   0.00000  Uiso   1.00
C1694  C     0.79681   0.80893   0.97206   0.00000  Uiso   1.00
C1695  C     0.87140   0.85559   0.98046   0.00000  Uiso   1.00
C1696  C     0.79527   0.81108   0.68621   0.00000  Uiso   1.00
N1697  N     0.98963   0.79039   0.78921   0.00000  Uiso   1.00
O1698  O     0.96601   0.79723   0.74892   0.00000  Uiso   1.00
O1699  O     0.99876   0.75231   0.80131   0.00000  Uiso   1.00
N1700  N     0.67704   0.87627   0.87746   0.00000  Uiso   1.00
O1701  O     0.70066   0.86943   0.91775   0.00000  Uiso   1.00
O1702  O     0.66790   0.91436   0.86536   0.00000  Uiso   1.00
C1703  C     0.90673   0.89003   0.72180   0.00000  Uiso   1.00
C1704  C     0.89265   0.93480   0.70917   0.00000  Uiso   1.00
C1705  C     0.92683   0.96694   0.73951   0.00000  Uiso   1.00
H1706  H     0.92201   0.96186   0.77536   0.00000  Uiso   1.00
H1707  H     0.96876   0.96460   0.73553   0.00000  Uiso   1.00
H1708  H     0.91512   0.99886   0.73008   0.00000  Uiso   1.00
H1709  H     0.89799   0.94139   0.67382   0.00000  Uiso   1.00
H1710  H     0.85084   0.93862   0.71240   0.00000  Uiso   1.00
H1711  H     0.90528   0.88733   0.75766   0.00000  Uiso   1.00
H1712  H     0.94802   0.88537   0.71739   0.00000  Uiso   1.00
C1713  C     0.75993   0.77664   0.94487   0.00000  Uiso   1.00
C1714  C     0.77399   0.73187   0.95750   0.00000  Uiso   1.00
C1715  C     0.73982   0.69974   0.92715   0.00000  Uiso   1.00
H1716  H     0.69789   0.70209   0.93109   0.00000  Uiso   1.00
H1717  H     0.74468   0.70481   0.89130   0.00000  Uiso   1.00
H1718  H     0.75150   0.66781   0.93659   0.00000  Uiso   1.00
H1719  H     0.81581   0.72804   0.95429   0.00000  Uiso   1.00
H1720  H     0.76863   0.72528   0.99285   0.00000  Uiso   1.00
H1721  H     0.71865   0.78131   0.94927   0.00000  Uiso   1.00
H1722  H     0.76139   0.77934   0.90900   0.00000  Uiso   1.00
N1723  N     0.91674   0.87267   0.96298   0.00000  Uiso   1.00
O1724  O     0.96193   0.85741   0.97575   0.00000  Uiso   1.00
O1725  O     0.91404   0.90460   0.93650   0.00000  Uiso   1.00
N1726  N     0.74993   0.79400   0.70368   0.00000  Uiso   1.00
O1727  O     0.75262   0.76207   0.73017   0.00000  Uiso   1.00
O1728  O     0.70474   0.80926   0.69091   0.00000  Uiso   1.00
loop_
_geom_bond_atom_site_label_1
_geom_bond_atom_site_label_2
_geom_bond_distance
_geom_bond_site_symmetry_2
_ccdc_geom_bond_type
O1     C5      1.296   .     A
O1     Zn13    1.995   .     S
O2     C6      1.296   .     A
O2     Zn14    1.995   .     S
O3     C5      1.294   .     A
O3     Zn14    1.998   .     S
O4     C6      1.294   .     A
O4     Zn13    1.998   .     S
C5     C28     1.419   .     S
C6     C27     1.419   .     S
O7     C11     1.284   .     A
O7     Zn13    1.980   .     S
O8     C12     1.284   .     A
O8     Zn14    1.980   .     S
O9     Zn14    1.982   .     S
O9     C11     1.296   .     A
O10    C12     1.296   .     A
O10    Zn13    1.982   .     S
C11    C17     1.407   .     S
C12    C18     1.407   .     S
Zn13   N15     2.039   .     S
Zn14   N16     2.039   .     S
N15    C31     1.367   .     A
N15    C30     1.386   .     A
N16    C32     1.367   .     A
N16    C29     1.386   .     A
C17    C146    1.348   1_455 S
C17    N161    1.439   1_455 S
C18    C81     1.348   .     S
C18    N100    1.439   .     S
C19    C28     1.396   .     A
C19    H21     1.079   .     S
C19    C407    1.370   1_545 S
C20    C27     1.396   .     A
C20    H22     1.079   .     S
C20    C216    1.370   .     S
C23    C27     1.394   .     A
C23    H25     1.083   .     S
C23    C211    1.370   .     S
C24    C28     1.394   .     A
C24    H26     1.083   .     S
C24    C404    1.370   1_545 S
C29    C39     1.519   .     S
C29    C1183   1.431   1_554 S
C30    C49     1.519   .     S
C30    C608    1.431   .     S
C31    N59     1.429   .     S
C31    C605    1.431   .     S
C32    N62     1.429   .     S
C32    C1182   1.431   1_554 S
N33    O34     1.300   .     A
N33    O35     1.301   .     A
N33    C81     1.439   .     S
N36    O38     1.301   .     A
N36    O37     1.300   .     A
N36    C146    1.439   1_455 S
C39    H47     1.085   .     S
C39    C40     1.537   .     S
C39    H48     1.109   .     S
C40    H45     1.107   .     S
C40    H46     1.110   .     S
C40    C41     1.528   .     S
C41    H43     1.111   .     S
C41    H42     1.111   .     S
C41    H44     1.111   .     S
C49    H57     1.109   .     S
C49    C50     1.537   .     S
C49    H58     1.085   .     S
C50    H55     1.110   .     S
C50    C51     1.528   .     S
C50    H56     1.107   .     S
C51    H54     1.111   .     S
C51    H52     1.111   .     S
C51    H53     1.111   .     S
N59    O60     1.299   .     A
N59    O61     1.297   .     A
N62    O63     1.297   .     A
N62    O64     1.299   .     A
O65    C69     1.296   .     A
O65    Zn77    1.995   .     S
O66    C70     1.296   .     A
O66    Zn78    1.995   .     S
O67    C69     1.294   .     A
O67    Zn78    1.998   .     S
O68    C70     1.294   .     A
O68    Zn77    1.998   .     S
C69    C92     1.419   .     S
C70    C91     1.419   .     S
O71    C75     1.284   .     A
O71    Zn77    1.980   .     S
O72    C76     1.284   .     A
O72    Zn78    1.980   .     S
O73    Zn78    1.982   .     S
O73    C75     1.296   .     A
O74    C76     1.296   .     A
O74    Zn77    1.982   .     S
C75    C81     1.407   .     S
C76    C82     1.407   .     S
Zn77   N79     2.039   .     S
Zn78   N80     2.039   .     S
N79    C95     1.367   .     A
N79    C94     1.386   .     A
N80    C96     1.367   .     A
N80    C93     1.386   .     A
C82    C145    1.348   .     S
C82    N164    1.439   .     S
C83    C92     1.396   .     A
C83    H85     1.079   .     S
C83    C471    1.370   1_545 S
C84    C91     1.396   .     A
C84    H86     1.079   .     S
C84    C280    1.370   .     S
C87    C91     1.394   .     A
C87    H89     1.083   .     S
C87    C275    1.370   .     S
C88    C92     1.394   .     A
C88    H90     1.083   .     S
C88    C468    1.370   1_545 S
C93    C103    1.519   .     S
C93    C1247   1.431   1_554 S
C94    C113    1.519   .     S
C94    C672    1.431   .     S
C95    N123    1.429   .     S
C95    C669    1.431   .     S
C96    N126    1.429   .     S
C96    C1246   1.431   1_554 S
N97    O98     1.300   .     A
N97    O99     1.301   .     A
N97    C145    1.439   .     S
N100   O102    1.301   .     A
N100   O101    1.300   .     A
C103   H111    1.085   .     S
C103   C104    1.537   .     S
C103   H112    1.109   .     S
C104   H109    1.107   .     S
C104   H110    1.110   .     S
C104   C105    1.528   .     S
C105   H107    1.111   .     S
C105   H106    1.111   .     S
C105   H108    1.111   .     S
C113   H121    1.109   .     S
C113   C114    1.537   .     S
C113   H122    1.085   .     S
C114   H119    1.110   .     S
C114   C115    1.528   .     S
C114   H120    1.107   .     S
C115   H118    1.111   .     S
C115   H116    1.111   .     S
C115   H117    1.111   .     S
N123   O124    1.299   .     A
N123   O125    1.297   .     A
N126   O127    1.297   .     A
N126   O128    1.299   .     A
O129   C133    1.296   .     A
O129   Zn141   1.995   .     S
O130   C134    1.296   .     A
O130   Zn142   1.995   .     S
O131   C133    1.294   .     A
O131   Zn142   1.998   .     S
O132   C134    1.294   .     A
O132   Zn141   1.998   .     S
C133   C156    1.419   .     S
C134   C155    1.419   .     S
O135   C139    1.284   .     A
O135   Zn141   1.980   .     S
O136   C140    1.284   .     A
O136   Zn142   1.980   .     S
O137   Zn142   1.982   .     S
O137   C139    1.296   .     A
O138   C140    1.296   .     A
O138   Zn141   1.982   .     S
C139   C145    1.407   .     S
C140   C146    1.407   .     S
Zn141  N143    2.039   .     S
Zn142  N144    2.039   .     S
N143   C159    1.367   .     A
N143   C158    1.386   .     A
N144   C160    1.367   .     A
N144   C157    1.386   .     A
C146   C17     1.348   1_655 S
C146   N36     1.439   1_655 S
C147   C156    1.396   .     A
C147   H149    1.079   .     S
C147   C535    1.370   1_545 S
C148   C155    1.396   .     A
C148   H150    1.079   .     S
C148   C344    1.370   .     S
C151   C155    1.394   .     A
C151   H153    1.083   .     S
C151   C339    1.370   .     S
C152   C156    1.394   .     A
C152   H154    1.083   .     S
C152   C532    1.370   1_545 S
C157   C167    1.519   .     S
C157   C1311   1.431   1_554 S
C158   C177    1.519   .     S
C158   C736    1.431   .     S
C159   N187    1.429   .     S
C159   C733    1.431   .     S
C160   N190    1.429   .     S
C160   C1310   1.431   1_554 S
N161   O162    1.300   .     A
N161   O163    1.301   .     A
N161   C17     1.439   1_655 S
N164   O166    1.301   .     A
N164   O165    1.300   .     A
C167   H175    1.085   .     S
C167   C168    1.537   .     S
C167   H176    1.109   .     S
C168   H173    1.107   .     S
C168   H174    1.110   .     S
C168   C169    1.528   .     S
C169   H171    1.111   .     S
C169   H170    1.111   .     S
C169   H172    1.111   .     S
C177   H185    1.109   .     S
C177   C178    1.537   .     S
C177   H186    1.085   .     S
C178   H183    1.110   .     S
C178   C179    1.528   .     S
C178   H184    1.107   .     S
C179   H182    1.111   .     S
C179   H180    1.111   .     S
C179   H181    1.111   .     S
N187   O188    1.299   .     A
N187   O189    1.297   .     A
N190   O191    1.297   .     A
N190   O192    1.299   .     A
O193   C197    1.296   .     A
O193   Zn205   1.995   .     S
O194   C198    1.296   .     A
O194   Zn206   1.995   .     S
O195   C197    1.294   .     A
O195   Zn206   1.998   .     S
O196   C198    1.294   .     A
O196   Zn205   1.998   .     S
C197   C220    1.419   .     S
C198   C219    1.419   .     S
O199   C203    1.284   .     A
O199   Zn205   1.980   .     S
O200   C204    1.284   .     A
O200   Zn206   1.980   .     S
O201   Zn206   1.982   .     S
O201   C203    1.296   .     A
O202   C204    1.296   .     A
O202   Zn205   1.982   .     S
C203   C209    1.407   .     S
C204   C210    1.407   .     S
Zn205  N207    2.039   .     S
Zn206  N208    2.039   .     S
N207   C223    1.367   .     A
N207   C222    1.386   .     A
N208   C224    1.367   .     A
N208   C221    1.386   .     A
C209   C338    1.348   1_455 S
C209   N353    1.439   1_455 S
C210   C273    1.348   .     S
C210   N292    1.439   .     S
C211   C220    1.396   .     A
C211   H213    1.079   .     S
C212   C219    1.396   .     A
C212   H214    1.079   .     S
C212   C408    1.370   .     S
C215   C219    1.394   .     A
C215   H217    1.083   .     S
C215   C403    1.370   .     S
C216   C220    1.394   .     A
C216   H218    1.083   .     S
C221   C231    1.519   .     S
C221   C1375   1.431   1_554 S
C222   C241    1.519   .     S
C222   C800    1.431   .     S
C223   N251    1.429   .     S
C223   C797    1.431   .     S
C224   N254    1.429   .     S
C224   C1374   1.431   1_554 S
N225   O226    1.300   .     A
N225   O227    1.301   .     A
N225   C273    1.439   .     S
N228   O230    1.301   .     A
N228   O229    1.300   .     A
N228   C338    1.439   1_455 S
C231   H239    1.085   .     S
C231   C232    1.537   .     S
C231   H240    1.109   .     S
C232   H237    1.107   .     S
C232   H238    1.110   .     S
C232   C233    1.528   .     S
C233   H235    1.111   .     S
C233   H234    1.111   .     S
C233   H236    1.111   .     S
C241   H249    1.109   .     S
C241   C242    1.537   .     S
C241   H250    1.085   .     S
C242   H247    1.110   .     S
C242   C243    1.528   .     S
C242   H248    1.107   .     S
C243   H246    1.111   .     S
C243   H244    1.111   .     S
C243   H245    1.111   .     S
N251   O252    1.299   .     A
N251   O253    1.297   .     A
N254   O255    1.297   .     A
N254   O256    1.299   .     A
O257   C261    1.296   .     A
O257   Zn269   1.995   .     S
O258   C262    1.296   .     A
O258   Zn270   1.995   .     S
O259   C261    1.294   .     A
O259   Zn270   1.998   .     S
O260   C262    1.294   .     A
O260   Zn269   1.998   .     S
C261   C284    1.419   .     S
C262   C283    1.419   .     S
O263   C267    1.284   .     A
O263   Zn269   1.980   .     S
O264   C268    1.284   .     A
O264   Zn270   1.980   .     S
O265   Zn270   1.982   .     S
O265   C267    1.296   .     A
O266   C268    1.296   .     A
O266   Zn269   1.982   .     S
C267   C273    1.407   .     S
C268   C274    1.407   .     S
Zn269  N271    2.039   .     S
Zn270  N272    2.039   .     S
N271   C287    1.367   .     A
N271   C286    1.386   .     A
N272   C288    1.367   .     A
N272   C285    1.386   .     A
C274   C337    1.348   .     S
C274   N356    1.439   .     S
C275   C284    1.396   .     A
C275   H277    1.079   .     S
C276   C283    1.396   .     A
C276   H278    1.079   .     S
C276   C472    1.370   .     S
C279   C283    1.394   .     A
C279   H281    1.083   .     S
C279   C467    1.370   .     S
C280   C284    1.394   .     A
C280   H282    1.083   .     S
C285   C295    1.519   .     S
C285   C1439   1.431   1_554 S
C286   C305    1.519   .     S
C286   C864    1.431   .     S
C287   N315    1.429   .     S
C287   C861    1.431   .     S
C288   N318    1.429   .     S
C288   C1438   1.431   1_554 S
N289   O290    1.300   .     A
N289   O291    1.301   .     A
N289   C337    1.439   .     S
N292   O294    1.301   .     A
N292   O293    1.300   .     A
C295   H303    1.085   .     S
C295   C296    1.537   .     S
C295   H304    1.109   .     S
C296   H301    1.107   .     S
C296   H302    1.110   .     S
C296   C297    1.528   .     S
C297   H299    1.111   .     S
C297   H298    1.111   .     S
C297   H300    1.111   .     S
C305   H313    1.109   .     S
C305   C306    1.537   .     S
C305   H314    1.085   .     S
C306   H311    1.110   .     S
C306   C307    1.528   .     S
C306   H312    1.107   .     S
C307   H310    1.111   .     S
C307   H308    1.111   .     S
C307   H309    1.111   .     S
N315   O316    1.299   .     A
N315   O317    1.297   .     A
N318   O319    1.297   .     A
N318   O320    1.299   .     A
O321   C325    1.296   .     A
O321   Zn333   1.995   .     S
O322   C326    1.296   .     A
O322   Zn334   1.995   .     S
O323   C325    1.294   .     A
O323   Zn334   1.998   .     S
O324   C326    1.294   .     A
O324   Zn333   1.998   .     S
C325   C348    1.419   .     S
C326   C347    1.419   .     S
O327   C331    1.284   .     A
O327   Zn333   1.980   .     S
O328   C332    1.284   .     A
O328   Zn334   1.980   .     S
O329   Zn334   1.982   .     S
O329   C331    1.296   .     A
O330   C332    1.296   .     A
O330   Zn333   1.982   .     S
C331   C337    1.407   .     S
C332   C338    1.407   .     S
Zn333  N335    2.039   .     S
Zn334  N336    2.039   .     S
N335   C351    1.367   .     A
N335   C350    1.386   .     A
N336   C352    1.367   .     A
N336   C349    1.386   .     A
C338   C209    1.348   1_655 S
C338   N228    1.439   1_655 S
C339   C348    1.396   .     A
C339   H341    1.079   .     S
C340   C347    1.396   .     A
C340   H342    1.079   .     S
C340   C536    1.370   .     S
C343   C347    1.394   .     A
C343   H345    1.083   .     S
C343   C531    1.370   .     S
C344   C348    1.394   .     A
C344   H346    1.083   .     S
C349   C359    1.519   .     S
C349   C1503   1.431   1_554 S
C350   C369    1.519   .     S
C350   C928    1.431   .     S
C351   N379    1.429   .     S
C351   C925    1.431   .     S
C352   N382    1.429   .     S
C352   C1502   1.431   1_554 S
N353   O354    1.300   .     A
N353   O355    1.301   .     A
N353   C209    1.439   1_655 S
N356   O358    1.301   .     A
N356   O357    1.300   .     A
C359   H367    1.085   .     S
C359   C360    1.537   .     S
C359   H368    1.109   .     S
C360   H365    1.107   .     S
C360   H366    1.110   .     S
C360   C361    1.528   .     S
C361   H363    1.111   .     S
C361   H362    1.111   .     S
C361   H364    1.111   .     S
C369   H377    1.109   .     S
C369   C370    1.537   .     S
C369   H378    1.085   .     S
C370   H375    1.110   .     S
C370   C371    1.528   .     S
C370   H376    1.107   .     S
C371   H374    1.111   .     S
C371   H372    1.111   .     S
C371   H373    1.111   .     S
N379   O380    1.299   .     A
N379   O381    1.297   .     A
N382   O383    1.297   .     A
N382   O384    1.299   .     A
O385   C389    1.296   .     A
O385   Zn397   1.995   .     S
O386   C390    1.296   .     A
O386   Zn398   1.995   .     S
O387   C389    1.294   .     A
O387   Zn398   1.998   .     S
O388   C390    1.294   .     A
O388   Zn397   1.998   .     S
C389   C412    1.419   .     S
C390   C411    1.419   .     S
O391   C395    1.284   .     A
O391   Zn397   1.980   .     S
O392   C396    1.284   .     A
O392   Zn398   1.980   .     S
O393   Zn398   1.982   .     S
O393   C395    1.296   .     A
O394   C396    1.296   .     A
O394   Zn397   1.982   .     S
C395   C401    1.407   .     S
C396   C402    1.407   .     S
Zn397  N399    2.039   .     S
Zn398  N400    2.039   .     S
N399   C415    1.367   .     A
N399   C414    1.386   .     A
N400   C416    1.367   .     A
N400   C413    1.386   .     A
C401   C530    1.348   1_455 S
C401   N545    1.439   1_455 S
C402   C465    1.348   .     S
C402   N484    1.439   .     S
C403   C412    1.396   .     A
C403   H405    1.079   .     S
C404   C411    1.396   .     A
C404   H406    1.079   .     S
C404   C24     1.370   1_565 S
C407   C411    1.394   .     A
C407   H409    1.083   .     S
C407   C19     1.370   1_565 S
C408   C412    1.394   .     A
C408   H410    1.083   .     S
C413   C423    1.519   .     S
C413   C1567   1.431   1_554 S
C414   C433    1.519   .     S
C414   C992    1.431   .     S
C415   N443    1.429   .     S
C415   C989    1.431   .     S
C416   N446    1.429   .     S
C416   C1566   1.431   1_554 S
N417   O418    1.300   .     A
N417   O419    1.301   .     A
N417   C465    1.439   .     S
N420   O422    1.301   .     A
N420   O421    1.300   .     A
N420   C530    1.439   1_455 S
C423   H431    1.085   .     S
C423   C424    1.537   .     S
C423   H432    1.109   .     S
C424   H429    1.107   .     S
C424   H430    1.110   .     S
C424   C425    1.528   .     S
C425   H427    1.111   .     S
C425   H426    1.111   .     S
C425   H428    1.111   .     S
C433   H441    1.109   .     S
C433   C434    1.537   .     S
C433   H442    1.085   .     S
C434   H439    1.110   .     S
C434   C435    1.528   .     S
C434   H440    1.107   .     S
C435   H438    1.111   .     S
C435   H436    1.111   .     S
C435   H437    1.111   .     S
N443   O444    1.299   .     A
N443   O445    1.297   .     A
N446   O447    1.297   .     A
N446   O448    1.299   .     A
O449   C453    1.296   .     A
O449   Zn461   1.995   .     S
O450   C454    1.296   .     A
O450   Zn462   1.995   .     S
O451   C453    1.294   .     A
O451   Zn462   1.998   .     S
O452   C454    1.294   .     A
O452   Zn461   1.998   .     S
C453   C476    1.419   .     S
C454   C475    1.419   .     S
O455   C459    1.284   .     A
O455   Zn461   1.980   .     S
O456   C460    1.284   .     A
O456   Zn462   1.980   .     S
O457   Zn462   1.982   .     S
O457   C459    1.296   .     A
O458   C460    1.296   .     A
O458   Zn461   1.982   .     S
C459   C465    1.407   .     S
C460   C466    1.407   .     S
Zn461  N463    2.039   .     S
Zn462  N464    2.039   .     S
N463   C479    1.367   .     A
N463   C478    1.386   .     A
N464   C480    1.367   .     A
N464   C477    1.386   .     A
C466   C529    1.348   .     S
C466   N548    1.439   .     S
C467   C476    1.396   .     A
C467   H469    1.079   .     S
C468   C475    1.396   .     A
C468   H470    1.079   .     S
C468   C88     1.370   1_565 S
C471   C475    1.394   .     A
C471   H473    1.083   .     S
C471   C83     1.370   1_565 S
C472   C476    1.394   .     A
C472   H474    1.083   .     S
C477   C487    1.519   .     S
C477   C1631   1.431   1_554 S
C478   C497    1.519   .     S
C478   C1056   1.431   .     S
C479   N507    1.429   .     S
C479   C1053   1.431   .     S
C480   N510    1.429   .     S
C480   C1630   1.431   1_554 S
N481   O482    1.300   .     A
N481   O483    1.301   .     A
N481   C529    1.439   .     S
N484   O486    1.301   .     A
N484   O485    1.300   .     A
C487   H495    1.085   .     S
C487   C488    1.537   .     S
C487   H496    1.109   .     S
C488   H493    1.107   .     S
C488   H494    1.110   .     S
C488   C489    1.528   .     S
C489   H491    1.111   .     S
C489   H490    1.111   .     S
C489   H492    1.111   .     S
C497   H505    1.109   .     S
C497   C498    1.537   .     S
C497   H506    1.085   .     S
C498   H503    1.110   .     S
C498   C499    1.528   .     S
C498   H504    1.107   .     S
C499   H502    1.111   .     S
C499   H500    1.111   .     S
C499   H501    1.111   .     S
N507   O508    1.299   .     A
N507   O509    1.297   .     A
N510   O511    1.297   .     A
N510   O512    1.299   .     A
O513   C517    1.296   .     A
O513   Zn525   1.995   .     S
O514   C518    1.296   .     A
O514   Zn526   1.995   .     S
O515   C517    1.294   .     A
O515   Zn526   1.998   .     S
O516   C518    1.294   .     A
O516   Zn525   1.998   .     S
C517   C540    1.419   .     S
C518   C539    1.419   .     S
O519   C523    1.284   .     A
O519   Zn525   1.980   .     S
O520   C524    1.284   .     A
O520   Zn526   1.980   .     S
O521   Zn526   1.982   .     S
O521   C523    1.296   .     A
O522   C524    1.296   .     A
O522   Zn525   1.982   .     S
C523   C529    1.407   .     S
C524   C530    1.407   .     S
Zn525  N527    2.039   .     S
Zn526  N528    2.039   .     S
N527   C543    1.367   .     A
N527   C542    1.386   .     A
N528   C544    1.367   .     A
N528   C541    1.386   .     A
C530   C401    1.348   1_655 S
C530   N420    1.439   1_655 S
C531   C540    1.396   .     A
C531   H533    1.079   .     S
C532   C539    1.396   .     A
C532   H534    1.079   .     S
C532   C152    1.370   1_565 S
C535   C539    1.394   .     A
C535   H537    1.083   .     S
C535   C147    1.370   1_565 S
C536   C540    1.394   .     A
C536   H538    1.083   .     S
C541   C551    1.519   .     S
C541   C1695   1.431   1_554 S
C542   C561    1.519   .     S
C542   C1120   1.431   .     S
C543   N571    1.429   .     S
C543   C1117   1.431   .     S
C544   N574    1.429   .     S
C544   C1694   1.431   1_554 S
N545   O546    1.300   .     A
N545   O547    1.301   .     A
N545   C401    1.439   1_655 S
N548   O550    1.301   .     A
N548   O549    1.300   .     A
C551   H559    1.085   .     S
C551   C552    1.537   .     S
C551   H560    1.109   .     S
C552   H557    1.107   .     S
C552   H558    1.110   .     S
C552   C553    1.528   .     S
C553   H555    1.111   .     S
C553   H554    1.111   .     S
C553   H556    1.111   .     S
C561   H569    1.109   .     S
C561   C562    1.537   .     S
C561   H570    1.085   .     S
C562   H567    1.110   .     S
C562   C563    1.528   .     S
C562   H568    1.107   .     S
C563   H566    1.111   .     S
C563   H564    1.111   .     S
C563   H565    1.111   .     S
N571   O572    1.299   .     A
N571   O573    1.297   .     A
N574   O575    1.297   .     A
N574   O576    1.299   .     A
O577   C581    1.296   .     A
O577   Zn589   1.995   .     S
O578   C582    1.296   .     A
O578   Zn590   1.995   .     S
O579   C581    1.294   .     A
O579   Zn590   1.998   .     S
O580   C582    1.294   .     A
O580   Zn589   1.998   .     S
C581   C604    1.419   .     S
C582   C603    1.419   .     S
O583   C587    1.284   .     A
O583   Zn589   1.980   .     S
O584   C588    1.284   .     A
O584   Zn590   1.980   .     S
O585   Zn590   1.982   .     S
O585   C587    1.296   .     A
O586   C588    1.296   .     A
O586   Zn589   1.982   .     S
C587   C593    1.407   .     S
C588   C594    1.407   .     S
Zn589  N591    2.039   .     S
Zn590  N592    2.039   .     S
N591   C607    1.367   .     A
N591   C606    1.386   .     A
N592   C608    1.367   .     A
N592   C605    1.386   .     A
C593   C722    1.348   1_455 S
C593   N737    1.439   1_455 S
C594   C657    1.348   .     S
C594   N676    1.439   .     S
C595   C604    1.396   .     A
C595   H597    1.079   .     S
C595   C983    1.370   1_545 S
C596   C603    1.396   .     A
C596   H598    1.079   .     S
C596   C792    1.370   .     S
C599   C603    1.394   .     A
C599   H601    1.083   .     S
C599   C787    1.370   .     S
C600   C604    1.394   .     A
C600   H602    1.083   .     S
C600   C980    1.370   1_545 S
C605   C615    1.519   .     S
C606   C625    1.519   .     S
C606   C1184   1.431   .     S
C607   N635    1.429   .     S
C607   C1181   1.431   .     S
C608   N638    1.429   .     S
N609   O610    1.300   .     A
N609   O611    1.301   .     A
N609   C657    1.439   .     S
N612   O614    1.301   .     A
N612   O613    1.300   .     A
N612   C722    1.439   1_455 S
C615   H623    1.085   .     S
C615   C616    1.537   .     S
C615   H624    1.109   .     S
C616   H621    1.107   .     S
C616   H622    1.110   .     S
C616   C617    1.528   .     S
C617   H619    1.111   .     S
C617   H618    1.111   .     S
C617   H620    1.111   .     S
C625   H633    1.109   .     S
C625   C626    1.537   .     S
C625   H634    1.085   .     S
C626   H631    1.110   .     S
C626   C627    1.528   .     S
C626   H632    1.107   .     S
C627   H630    1.111   .     S
C627   H628    1.111   .     S
C627   H629    1.111   .     S
N635   O636    1.299   .     A
N635   O637    1.297   .     A
N638   O639    1.297   .     A
N638   O640    1.299   .     A
O641   C645    1.296   .     A
O641   Zn653   1.995   .     S
O642   C646    1.296   .     A
O642   Zn654   1.995   .     S
O643   C645    1.294   .     A
O643   Zn654   1.998   .     S
O644   C646    1.294   .     A
O644   Zn653   1.998   .     S
C645   C668    1.419   .     S
C646   C667    1.419   .     S
O647   C651    1.284   .     A
O647   Zn653   1.980   .     S
O648   C652    1.284   .     A
O648   Zn654   1.980   .     S
O649   Zn654   1.982   .     S
O649   C651    1.296   .     A
O650   C652    1.296   .     A
O650   Zn653   1.982   .     S
C651   C657    1.407   .     S
C652   C658    1.407   .     S
Zn653  N655    2.039   .     S
Zn654  N656    2.039   .     S
N655   C671    1.367   .     A
N655   C670    1.386   .     A
N656   C672    1.367   .     A
N656   C669    1.386   .     A
C658   C721    1.348   .     S
C658   N740    1.439   .     S
C659   C668    1.396   .     A
C659   H661    1.079   .     S
C659   C1047   1.370   1_545 S
C660   C667    1.396   .     A
C660   H662    1.079   .     S
C660   C856    1.370   .     S
C663   C667    1.394   .     A
C663   H665    1.083   .     S
C663   C851    1.370   .     S
C664   C668    1.394   .     A
C664   H666    1.083   .     S
C664   C1044   1.370   1_545 S
C669   C679    1.519   .     S
C670   C689    1.519   .     S
C670   C1248   1.431   .     S
C671   N699    1.429   .     S
C671   C1245   1.431   .     S
C672   N702    1.429   .     S
N673   O674    1.300   .     A
N673   O675    1.301   .     A
N673   C721    1.439   .     S
N676   O678    1.301   .     A
N676   O677    1.300   .     A
C679   H687    1.085   .     S
C679   C680    1.537   .     S
C679   H688    1.109   .     S
C680   H685    1.107   .     S
C680   H686    1.110   .     S
C680   C681    1.528   .     S
C681   H683    1.111   .     S
C681   H682    1.111   .     S
C681   H684    1.111   .     S
C689   H697    1.109   .     S
C689   C690    1.537   .     S
C689   H698    1.085   .     S
C690   H695    1.110   .     S
C690   C691    1.528   .     S
C690   H696    1.107   .     S
C691   H694    1.111   .     S
C691   H692    1.111   .     S
C691   H693    1.111   .     S
N699   O700    1.299   .     A
N699   O701    1.297   .     A
N702   O703    1.297   .     A
N702   O704    1.299   .     A
O705   C709    1.296   .     A
O705   Zn717   1.995   .     S
O706   C710    1.296   .     A
O706   Zn718   1.995   .     S
O707   C709    1.294   .     A
O707   Zn718   1.998   .     S
O708   C710    1.294   .     A
O708   Zn717   1.998   .     S
C709   C732    1.419   .     S
C710   C731    1.419   .     S
O711   C715    1.284   .     A
O711   Zn717   1.980   .     S
O712   C716    1.284   .     A
O712   Zn718   1.980   .     S
O713   Zn718   1.982   .     S
O713   C715    1.296   .     A
O714   C716    1.296   .     A
O714   Zn717   1.982   .     S
C715   C721    1.407   .     S
C716   C722    1.407   .     S
Zn717  N719    2.039   .     S
Zn718  N720    2.039   .     S
N719   C735    1.367   .     A
N719   C734    1.386   .     A
N720   C736    1.367   .     A
N720   C733    1.386   .     A
C722   C593    1.348   1_655 S
C722   N612    1.439   1_655 S
C723   C732    1.396   .     A
C723   H725    1.079   .     S
C723   C1111   1.370   1_545 S
C724   C731    1.396   .     A
C724   H726    1.079   .     S
C724   C920    1.370   .     S
C727   C731    1.394   .     A
C727   H729    1.083   .     S
C727   C915    1.370   .     S
C728   C732    1.394   .     A
C728   H730    1.083   .     S
C728   C1108   1.370   1_545 S
C733   C743    1.519   .     S
C734   C753    1.519   .     S
C734   C1312   1.431   .     S
C735   N763    1.429   .     S
C735   C1309   1.431   .     S
C736   N766    1.429   .     S
N737   O738    1.300   .     A
N737   O739    1.301   .     A
N737   C593    1.439   1_655 S
N740   O742    1.301   .     A
N740   O741    1.300   .     A
C743   H751    1.085   .     S
C743   C744    1.537   .     S
C743   H752    1.109   .     S
C744   H749    1.107   .     S
C744   H750    1.110   .     S
C744   C745    1.528   .     S
C745   H747    1.111   .     S
C745   H746    1.111   .     S
C745   H748    1.111   .     S
C753   H761    1.109   .     S
C753   C754    1.537   .     S
C753   H762    1.085   .     S
C754   H759    1.110   .     S
C754   C755    1.528   .     S
C754   H760    1.107   .     S
C755   H758    1.111   .     S
C755   H756    1.111   .     S
C755   H757    1.111   .     S
N763   O764    1.299   .     A
N763   O765    1.297   .     A
N766   O767    1.297   .     A
N766   O768    1.299   .     A
O769   C773    1.296   .     A
O769   Zn781   1.995   .     S
O770   C774    1.296   .     A
O770   Zn782   1.995   .     S
O771   C773    1.294   .     A
O771   Zn782   1.998   .     S
O772   C774    1.294   .     A
O772   Zn781   1.998   .     S
C773   C796    1.419   .     S
C774   C795    1.419   .     S
O775   C779    1.284   .     A
O775   Zn781   1.980   .     S
O776   C780    1.284   .     A
O776   Zn782   1.980   .     S
O777   Zn782   1.982   .     S
O777   C779    1.296   .     A
O778   C780    1.296   .     A
O778   Zn781   1.982   .     S
C779   C785    1.407   .     S
C780   C786    1.407   .     S
Zn781  N783    2.039   .     S
Zn782  N784    2.039   .     S
N783   C799    1.367   .     A
N783   C798    1.386   .     A
N784   C800    1.367   .     A
N784   C797    1.386   .     A
C785   C914    1.348   1_455 S
C785   N929    1.439   1_455 S
C786   C849    1.348   .     S
C786   N868    1.439   .     S
C787   C796    1.396   .     A
C787   H789    1.079   .     S
C788   C795    1.396   .     A
C788   H790    1.079   .     S
C788   C984    1.370   .     S
C791   C795    1.394   .     A
C791   H793    1.083   .     S
C791   C979    1.370   .     S
C792   C796    1.394   .     A
C792   H794    1.083   .     S
C797   C807    1.519   .     S
C798   C817    1.519   .     S
C798   C1376   1.431   .     S
C799   N827    1.429   .     S
C799   C1373   1.431   .     S
C800   N830    1.429   .     S
N801   O802    1.300   .     A
N801   O803    1.301   .     A
N801   C849    1.439   .     S
N804   O806    1.301   .     A
N804   O805    1.300   .     A
N804   C914    1.439   1_455 S
C807   H815    1.085   .     S
C807   C808    1.537   .     S
C807   H816    1.109   .     S
C808   H813    1.107   .     S
C808   H814    1.110   .     S
C808   C809    1.528   .     S
C809   H811    1.111   .     S
C809   H810    1.111   .     S
C809   H812    1.111   .     S
C817   H825    1.109   .     S
C817   C818    1.537   .     S
C817   H826    1.085   .     S
C818   H823    1.110   .     S
C818   C819    1.528   .     S
C818   H824    1.107   .     S
C819   H822    1.111   .     S
C819   H820    1.111   .     S
C819   H821    1.111   .     S
N827   O828    1.299   .     A
N827   O829    1.297   .     A
N830   O831    1.297   .     A
N830   O832    1.299   .     A
O833   C837    1.296   .     A
O833   Zn845   1.995   .     S
O834   C838    1.296   .     A
O834   Zn846   1.995   .     S
O835   C837    1.294   .     A
O835   Zn846   1.998   .     S
O836   C838    1.294   .     A
O836   Zn845   1.998   .     S
C837   C860    1.419   .     S
C838   C859    1.419   .     S
O839   C843    1.284   .     A
O839   Zn845   1.980   .     S
O840   C844    1.284   .     A
O840   Zn846   1.980   .     S
O841   Zn846   1.982   .     S
O841   C843    1.296   .     A
O842   C844    1.296   .     A
O842   Zn845   1.982   .     S
C843   C849    1.407   .     S
C844   C850    1.407   .     S
Zn845  N847    2.039   .     S
Zn846  N848    2.039   .     S
N847   C863    1.367   .     A
N847   C862    1.386   .     A
N848   C864    1.367   .     A
N848   C861    1.386   .     A
C850   C913    1.348   .     S
C850   N932    1.439   .     S
C851   C860    1.396   .     A
C851   H853    1.079   .     S
C852   C859    1.396   .     A
C852   H854    1.079   .     S
C852   C1048   1.370   .     S
C855   C859    1.394   .     A
C855   H857    1.083   .     S
C855   C1043   1.370   .     S
C856   C860    1.394   .     A
C856   H858    1.083   .     S
C861   C871    1.519   .     S
C862   C881    1.519   .     S
C862   C1440   1.431   .     S
C863   N891    1.429   .     S
C863   C1437   1.431   .     S
C864   N894    1.429   .     S
N865   O866    1.300   .     A
N865   O867    1.301   .     A
N865   C913    1.439   .     S
N868   O870    1.301   .     A
N868   O869    1.300   .     A
C871   H879    1.085   .     S
C871   C872    1.537   .     S
C871   H880    1.109   .     S
C872   H877    1.107   .     S
C872   H878    1.110   .     S
C872   C873    1.528   .     S
C873   H875    1.111   .     S
C873   H874    1.111   .     S
C873   H876    1.111   .     S
C881   H889    1.109   .     S
C881   C882    1.537   .     S
C881   H890    1.085   .     S
C882   H887    1.110   .     S
C882   C883    1.528   .     S
C882   H888    1.107   .     S
C883   H886    1.111   .     S
C883   H884    1.111   .     S
C883   H885    1.111   .     S
N891   O892    1.299   .     A
N891   O893    1.297   .     A
N894   O895    1.297   .     A
N894   O896    1.299   .     A
O897   C901    1.296   .     A
O897   Zn909   1.995   .     S
O898   C902    1.296   .     A
O898   Zn910   1.995   .     S
O899   C901    1.294   .     A
O899   Zn910   1.998   .     S
O900   C902    1.294   .     A
O900   Zn909   1.998   .     S
C901   C924    1.419   .     S
C902   C923    1.419   .     S
O903   C907    1.284   .     A
O903   Zn909   1.980   .     S
O904   C908    1.284   .     A
O904   Zn910   1.980   .     S
O905   Zn910   1.982   .     S
O905   C907    1.296   .     A
O906   C908    1.296   .     A
O906   Zn909   1.982   .     S
C907   C913    1.407   .     S
C908   C914    1.407   .     S
Zn909  N911    2.039   .     S
Zn910  N912    2.039   .     S
N911   C927    1.367   .     A
N911   C926    1.386   .     A
N912   C928    1.367   .     A
N912   C925    1.386   .     A
C914   C785    1.348   1_655 S
C914   N804    1.439   1_655 S
C915   C924    1.396   .     A
C915   H917    1.079   .     S
C916   C923    1.396   .     A
C916   H918    1.079   .     S
C916   C1112   1.370   .     S
C919   C923    1.394   .     A
C919   H921    1.083   .     S
C919   C1107   1.370   .     S
C920   C924    1.394   .     A
C920   H922    1.083   .     S
C925   C935    1.519   .     S
C926   C945    1.519   .     S
C926   C1504   1.431   .     S
C927   N955    1.429   .     S
C927   C1501   1.431   .     S
C928   N958    1.429   .     S
N929   O930    1.300   .     A
N929   O931    1.301   .     A
N929   C785    1.439   1_655 S
N932   O934    1.301   .     A
N932   O933    1.300   .     A
C935   H943    1.085   .     S
C935   C936    1.537   .     S
C935   H944    1.109   .     S
C936   H941    1.107   .     S
C936   H942    1.110   .     S
C936   C937    1.528   .     S
C937   H939    1.111   .     S
C937   H938    1.111   .     S
C937   H940    1.111   .     S
C945   H953    1.109   .     S
C945   C946    1.537   .     S
C945   H954    1.085   .     S
C946   H951    1.110   .     S
C946   C947    1.528   .     S
C946   H952    1.107   .     S
C947   H950    1.111   .     S
C947   H948    1.111   .     S
C947   H949    1.111   .     S
N955   O956    1.299   .     A
N955   O957    1.297   .     A
N958   O959    1.297   .     A
N958   O960    1.299   .     A
O961   C965    1.296   .     A
O961   Zn973   1.995   .     S
O962   C966    1.296   .     A
O962   Zn974   1.995   .     S
O963   C965    1.294   .     A
O963   Zn974   1.998   .     S
O964   C966    1.294   .     A
O964   Zn973   1.998   .     S
C965   C988    1.419   .     S
C966   C987    1.419   .     S
O967   C971    1.284   .     A
O967   Zn973   1.980   .     S
O968   C972    1.284   .     A
O968   Zn974   1.980   .     S
O969   Zn974   1.982   .     S
O969   C971    1.296   .     A
O970   C972    1.296   .     A
O970   Zn973   1.982   .     S
C971   C977    1.407   .     S
C972   C978    1.407   .     S
Zn973  N975    2.039   .     S
Zn974  N976    2.039   .     S
N975   C991    1.367   .     A
N975   C990    1.386   .     A
N976   C992    1.367   .     A
N976   C989    1.386   .     A
C977   C1106   1.348   1_455 S
C977   N1121   1.439   1_455 S
C978   C1041   1.348   .     S
C978   N1060   1.439   .     S
C979   C988    1.396   .     A
C979   H981    1.079   .     S
C980   C987    1.396   .     A
C980   H982    1.079   .     S
C980   C600    1.370   1_565 S
C983   C987    1.394   .     A
C983   H985    1.083   .     S
C983   C595    1.370   1_565 S
C984   C988    1.394   .     A
C984   H986    1.083   .     S
C989   C999    1.519   .     S
C990   C1009   1.519   .     S
C990   C1568   1.431   .     S
C991   N1019   1.429   .     S
C991   C1565   1.431   .     S
C992   N1022   1.429   .     S
N993   O994    1.300   .     A
N993   O995    1.301   .     A
N993   C1041   1.439   .     S
N996   O998    1.301   .     A
N996   O997    1.300   .     A
N996   C1106   1.439   1_455 S
C999   H1007   1.085   .     S
C999   C1000   1.537   .     S
C999   H1008   1.109   .     S
C1000  H1005   1.107   .     S
C1000  H1006   1.110   .     S
C1000  C1001   1.528   .     S
C1001  H1003   1.111   .     S
C1001  H1002   1.111   .     S
C1001  H1004   1.111   .     S
C1009  H1017   1.109   .     S
C1009  C1010   1.537   .     S
C1009  H1018   1.085   .     S
C1010  H1015   1.110   .     S
C1010  C1011   1.528   .     S
C1010  H1016   1.107   .     S
C1011  H1014   1.111   .     S
C1011  H1012   1.111   .     S
C1011  H1013   1.111   .     S
N1019  O1020   1.299   .     A
N1019  O1021   1.297   .     A
N1022  O1023   1.297   .     A
N1022  O1024   1.299   .     A
O1025  C1029   1.296   .     A
O1025  Zn1037  1.995   .     S
O1026  C1030   1.296   .     A
O1026  Zn1038  1.995   .     S
O1027  C1029   1.294   .     A
O1027  Zn1038  1.998   .     S
O1028  C1030   1.294   .     A
O1028  Zn1037  1.998   .     S
C1029  C1052   1.419   .     S
C1030  C1051   1.419   .     S
O1031  C1035   1.284   .     A
O1031  Zn1037  1.980   .     S
O1032  C1036   1.284   .     A
O1032  Zn1038  1.980   .     S
O1033  Zn1038  1.982   .     S
O1033  C1035   1.296   .     A
O1034  C1036   1.296   .     A
O1034  Zn1037  1.982   .     S
C1035  C1041   1.407   .     S
C1036  C1042   1.407   .     S
Zn1037 N1039   2.039   .     S
Zn1038 N1040   2.039   .     S
N1039  C1055   1.367   .     A
N1039  C1054   1.386   .     A
N1040  C1056   1.367   .     A
N1040  C1053   1.386   .     A
C1042  C1105   1.348   .     S
C1042  N1124   1.439   .     S
C1043  C1052   1.396   .     A
C1043  H1045   1.079   .     S
C1044  C1051   1.396   .     A
C1044  H1046   1.079   .     S
C1044  C664    1.370   1_565 S
C1047  C1051   1.394   .     A
C1047  H1049   1.083   .     S
C1047  C659    1.370   1_565 S
C1048  C1052   1.394   .     A
C1048  H1050   1.083   .     S
C1053  C1063   1.519   .     S
C1054  C1073   1.519   .     S
C1054  C1632   1.431   .     S
C1055  N1083   1.429   .     S
C1055  C1629   1.431   .     S
C1056  N1086   1.429   .     S
N1057  O1058   1.300   .     A
N1057  O1059   1.301   .     A
N1057  C1105   1.439   .     S
N1060  O1062   1.301   .     A
N1060  O1061   1.300   .     A
C1063  H1071   1.085   .     S
C1063  C1064   1.537   .     S
C1063  H1072   1.109   .     S
C1064  H1069   1.107   .     S
C1064  H1070   1.110   .     S
C1064  C1065   1.528   .     S
C1065  H1067   1.111   .     S
C1065  H1066   1.111   .     S
C1065  H1068   1.111   .     S
C1073  H1081   1.109   .     S
C1073  C1074   1.537   .     S
C1073  H1082   1.085   .     S
C1074  H1079   1.110   .     S
C1074  C1075   1.528   .     S
C1074  H1080   1.107   .     S
C1075  H1078   1.111   .     S
C1075  H1076   1.111   .     S
C1075  H1077   1.111   .     S
N1083  O1084   1.299   .     A
N1083  O1085   1.297   .     A
N1086  O1087   1.297   .     A
N1086  O1088   1.299   .     A
O1089  C1093   1.296   .     A
O1089  Zn1101  1.995   .     S
O1090  C1094   1.296   .     A
O1090  Zn1102  1.995   .     S
O1091  C1093   1.294   .     A
O1091  Zn1102  1.998   .     S
O1092  C1094   1.294   .     A
O1092  Zn1101  1.998   .     S
C1093  C1116   1.419   .     S
C1094  C1115   1.419   .     S
O1095  C1099   1.284   .     A
O1095  Zn1101  1.980   .     S
O1096  C1100   1.284   .     A
O1096  Zn1102  1.980   .     S
O1097  Zn1102  1.982   .     S
O1097  C1099   1.296   .     A
O1098  C1100   1.296   .     A
O1098  Zn1101  1.982   .     S
C1099  C1105   1.407   .     S
C1100  C1106   1.407   .     S
Zn1101 N1103   2.039   .     S
Zn1102 N1104   2.039   .     S
N1103  C1119   1.367   .     A
N1103  C1118   1.386   .     A
N1104  C1120   1.367   .     A
N1104  C1117   1.386   .     A
C1106  C977    1.348   1_655 S
C1106  N996    1.439   1_655 S
C1107  C1116   1.396   .     A
C1107  H1109   1.079   .     S
C1108  C1115   1.396   .     A
C1108  H1110   1.079   .     S
C1108  C728    1.370   1_565 S
C1111  C1115   1.394   .     A
C1111  H1113   1.083   .     S
C1111  C723    1.370   1_565 S
C1112  C1116   1.394   .     A
C1112  H1114   1.083   .     S
C1117  C1127   1.519   .     S
C1118  C1137   1.519   .     S
C1118  C1696   1.431   .     S
C1119  N1147   1.429   .     S
C1119  C1693   1.431   .     S
C1120  N1150   1.429   .     S
N1121  O1122   1.300   .     A
N1121  O1123   1.301   .     A
N1121  C977    1.439   1_655 S
N1124  O1126   1.301   .     A
N1124  O1125   1.300   .     A
C1127  H1135   1.085   .     S
C1127  C1128   1.537   .     S
C1127  H1136   1.109   .     S
C1128  H1133   1.107   .     S
C1128  H1134   1.110   .     S
C1128  C1129   1.528   .     S
C1129  H1131   1.111   .     S
C1129  H1130   1.111   .     S
C1129  H1132   1.111   .     S
C1137  H1145   1.109   .     S
C1137  C1138   1.537   .     S
C1137  H1146   1.085   .     S
C1138  H1143   1.110   .     S
C1138  C1139   1.528   .     S
C1138  H1144   1.107   .     S
C1139  H1142   1.111   .     S
C1139  H1140   1.111   .     S
C1139  H1141   1.111   .     S
N1147  O1148   1.299   .     A
N1147  O1149   1.297   .     A
N1150  O1151   1.297   .     A
N1150  O1152   1.299   .     A
O1153  C1157   1.296   .     A
O1153  Zn1165  1.995   .     S
O1154  C1158   1.296   .     A
O1154  Zn1166  1.995   .     S
O1155  C1157   1.294   .     A
O1155  Zn1166  1.998   .     S
O1156  C1158   1.294   .     A
O1156  Zn1165  1.998   .     S
C1157  C1180   1.419   .     S
C1158  C1179   1.419   .     S
O1159  C1163   1.284   .     A
O1159  Zn1165  1.980   .     S
O1160  C1164   1.284   .     A
O1160  Zn1166  1.980   .     S
O1161  Zn1166  1.982   .     S
O1161  C1163   1.296   .     A
O1162  C1164   1.296   .     A
O1162  Zn1165  1.982   .     S
C1163  C1169   1.407   .     S
C1164  C1170   1.407   .     S
Zn1165 N1167   2.039   .     S
Zn1166 N1168   2.039   .     S
N1167  C1183   1.367   .     A
N1167  C1182   1.386   .     A
N1168  C1184   1.367   .     A
N1168  C1181   1.386   .     A
C1169  C1298   1.348   1_455 S
C1169  N1313   1.439   1_455 S
C1170  C1233   1.348   .     S
C1170  N1252   1.439   .     S
C1171  C1180   1.396   .     A
C1171  H1173   1.079   .     S
C1171  C1559   1.370   1_545 S
C1172  C1179   1.396   .     A
C1172  H1174   1.079   .     S
C1172  C1368   1.370   .     S
C1175  C1179   1.394   .     A
C1175  H1177   1.083   .     S
C1175  C1363   1.370   .     S
C1176  C1180   1.394   .     A
C1176  H1178   1.083   .     S
C1176  C1556   1.370   1_545 S
C1181  C1191   1.519   .     S
C1182  C1201   1.519   .     S
C1182  C32     1.431   1_556 S
C1183  N1211   1.429   .     S
C1183  C29     1.431   1_556 S
C1184  N1214   1.429   .     S
N1185  O1186   1.300   .     A
N1185  O1187   1.301   .     A
N1185  C1233   1.439   .     S
N1188  O1190   1.301   .     A
N1188  O1189   1.300   .     A
N1188  C1298   1.439   1_455 S
C1191  H1199   1.085   .     S
C1191  C1192   1.537   .     S
C1191  H1200   1.109   .     S
C1192  H1197   1.107   .     S
C1192  H1198   1.110   .     S
C1192  C1193   1.528   .     S
C1193  H1195   1.111   .     S
C1193  H1194   1.111   .     S
C1193  H1196   1.111   .     S
C1201  H1209   1.109   .     S
C1201  C1202   1.537   .     S
C1201  H1210   1.085   .     S
C1202  H1207   1.110   .     S
C1202  C1203   1.528   .     S
C1202  H1208   1.107   .     S
C1203  H1206   1.111   .     S
C1203  H1204   1.111   .     S
C1203  H1205   1.111   .     S
N1211  O1212   1.299   .     A
N1211  O1213   1.297   .     A
N1214  O1215   1.297   .     A
N1214  O1216   1.299   .     A
O1217  C1221   1.296   .     A
O1217  Zn1229  1.995   .     S
O1218  C1222   1.296   .     A
O1218  Zn1230  1.995   .     S
O1219  C1221   1.294   .     A
O1219  Zn1230  1.998   .     S
O1220  C1222   1.294   .     A
O1220  Zn1229  1.998   .     S
C1221  C1244   1.419   .     S
C1222  C1243   1.419   .     S
O1223  C1227   1.284   .     A
O1223  Zn1229  1.980   .     S
O1224  C1228   1.284   .     A
O1224  Zn1230  1.980   .     S
O1225  Zn1230  1.982   .     S
O1225  C1227   1.296   .     A
O1226  C1228   1.296   .     A
O1226  Zn1229  1.982   .     S
C1227  C1233   1.407   .     S
C1228  C1234   1.407   .     S
Zn1229 N1231   2.039   .     S
Zn1230 N1232   2.039   .     S
N1231  C1247   1.367   .     A
N1231  C1246   1.386   .     A
N1232  C1248   1.367   .     A
N1232  C1245   1.386   .     A
C1234  C1297   1.348   .     S
C1234  N1316   1.439   .     S
C1235  C1244   1.396   .     A
C1235  H1237   1.079   .     S
C1235  C1623   1.370   1_545 S
C1236  C1243   1.396   .     A
C1236  H1238   1.079   .     S
C1236  C1432   1.370   .     S
C1239  C1243   1.394   .     A
C1239  H1241   1.083   .     S
C1239  C1427   1.370   .     S
C1240  C1244   1.394   .     A
C1240  H1242   1.083   .     S
C1240  C1620   1.370   1_545 S
C1245  C1255   1.519   .     S
C1246  C1265   1.519   .     S
C1246  C96     1.431   1_556 S
C1247  N1275   1.429   .     S
C1247  C93     1.431   1_556 S
C1248  N1278   1.429   .     S
N1249  O1250   1.300   .     A
N1249  O1251   1.301   .     A
N1249  C1297   1.439   .     S
N1252  O1254   1.301   .     A
N1252  O1253   1.300   .     A
C1255  H1263   1.085   .     S
C1255  C1256   1.537   .     S
C1255  H1264   1.109   .     S
C1256  H1261   1.107   .     S
C1256  H1262   1.110   .     S
C1256  C1257   1.528   .     S
C1257  H1259   1.111   .     S
C1257  H1258   1.111   .     S
C1257  H1260   1.111   .     S
C1265  H1273   1.109   .     S
C1265  C1266   1.537   .     S
C1265  H1274   1.085   .     S
C1266  H1271   1.110   .     S
C1266  C1267   1.528   .     S
C1266  H1272   1.107   .     S
C1267  H1270   1.111   .     S
C1267  H1268   1.111   .     S
C1267  H1269   1.111   .     S
N1275  O1276   1.299   .     A
N1275  O1277   1.297   .     A
N1278  O1279   1.297   .     A
N1278  O1280   1.299   .     A
O1281  C1285   1.296   .     A
O1281  Zn1293  1.995   .     S
O1282  C1286   1.296   .     A
O1282  Zn1294  1.995   .     S
O1283  C1285   1.294   .     A
O1283  Zn1294  1.998   .     S
O1284  C1286   1.294   .     A
O1284  Zn1293  1.998   .     S
C1285  C1308   1.419   .     S
C1286  C1307   1.419   .     S
O1287  C1291   1.284   .     A
O1287  Zn1293  1.980   .     S
O1288  C1292   1.284   .     A
O1288  Zn1294  1.980   .     S
O1289  Zn1294  1.982   .     S
O1289  C1291   1.296   .     A
O1290  C1292   1.296   .     A
O1290  Zn1293  1.982   .     S
C1291  C1297   1.407   .     S
C1292  C1298   1.407   .     S
Zn1293 N1295   2.039   .     S
Zn1294 N1296   2.039   .     S
N1295  C1311   1.367   .     A
N1295  C1310   1.386   .     A
N1296  C1312   1.367   .     A
N1296  C1309   1.386   .     A
C1298  C1169   1.348   1_655 S
C1298  N1188   1.439   1_655 S
C1299  C1308   1.396   .     A
C1299  H1301   1.079   .     S
C1299  C1687   1.370   1_545 S
C1300  C1307   1.396   .     A
C1300  H1302   1.079   .     S
C1300  C1496   1.370   .     S
C1303  C1307   1.394   .     A
C1303  H1305   1.083   .     S
C1303  C1491   1.370   .     S
C1304  C1308   1.394   .     A
C1304  H1306   1.083   .     S
C1304  C1684   1.370   1_545 S
C1309  C1319   1.519   .     S
C1310  C1329   1.519   .     S
C1310  C160    1.431   1_556 S
C1311  N1339   1.429   .     S
C1311  C157    1.431   1_556 S
C1312  N1342   1.429   .     S
N1313  O1314   1.300   .     A
N1313  O1315   1.301   .     A
N1313  C1169   1.439   1_655 S
N1316  O1318   1.301   .     A
N1316  O1317   1.300   .     A
C1319  H1327   1.085   .     S
C1319  C1320   1.537   .     S
C1319  H1328   1.109   .     S
C1320  H1325   1.107   .     S
C1320  H1326   1.110   .     S
C1320  C1321   1.528   .     S
C1321  H1323   1.111   .     S
C1321  H1322   1.111   .     S
C1321  H1324   1.111   .     S
C1329  H1337   1.109   .     S
C1329  C1330   1.537   .     S
C1329  H1338   1.085   .     S
C1330  H1335   1.110   .     S
C1330  C1331   1.528   .     S
C1330  H1336   1.107   .     S
C1331  H1334   1.111   .     S
C1331  H1332   1.111   .     S
C1331  H1333   1.111   .     S
N1339  O1340   1.299   .     A
N1339  O1341   1.297   .     A
N1342  O1343   1.297   .     A
N1342  O1344   1.299   .     A
O1345  C1349   1.296   .     A
O1345  Zn1357  1.995   .     S
O1346  C1350   1.296   .     A
O1346  Zn1358  1.995   .     S
O1347  C1349   1.294   .     A
O1347  Zn1358  1.998   .     S
O1348  C1350   1.294   .     A
O1348  Zn1357  1.998   .     S
C1349  C1372   1.419   .     S
C1350  C1371   1.419   .     S
O1351  C1355   1.284   .     A
O1351  Zn1357  1.980   .     S
O1352  C1356   1.284   .     A
O1352  Zn1358  1.980   .     S
O1353  Zn1358  1.982   .     S
O1353  C1355   1.296   .     A
O1354  C1356   1.296   .     A
O1354  Zn1357  1.982   .     S
C1355  C1361   1.407   .     S
C1356  C1362   1.407   .     S
Zn1357 N1359   2.039   .     S
Zn1358 N1360   2.039   .     S
N1359  C1375   1.367   .     A
N1359  C1374   1.386   .     A
N1360  C1376   1.367   .     A
N1360  C1373   1.386   .     A
C1361  C1490   1.348   1_455 S
C1361  N1505   1.439   1_455 S
C1362  C1425   1.348   .     S
C1362  N1444   1.439   .     S
C1363  C1372   1.396   .     A
C1363  H1365   1.079   .     S
C1364  C1371   1.396   .     A
C1364  H1366   1.079   .     S
C1364  C1560   1.370   .     S
C1367  C1371   1.394   .     A
C1367  H1369   1.083   .     S
C1367  C1555   1.370   .     S
C1368  C1372   1.394   .     A
C1368  H1370   1.083   .     S
C1373  C1383   1.519   .     S
C1374  C1393   1.519   .     S
C1374  C224    1.431   1_556 S
C1375  N1403   1.429   .     S
C1375  C221    1.431   1_556 S
C1376  N1406   1.429   .     S
N1377  O1378   1.300   .     A
N1377  O1379   1.301   .     A
N1377  C1425   1.439   .     S
N1380  O1382   1.301   .     A
N1380  O1381   1.300   .     A
N1380  C1490   1.439   1_455 S
C1383  H1391   1.085   .     S
C1383  C1384   1.537   .     S
C1383  H1392   1.109   .     S
C1384  H1389   1.107   .     S
C1384  H1390   1.110   .     S
C1384  C1385   1.528   .     S
C1385  H1387   1.111   .     S
C1385  H1386   1.111   .     S
C1385  H1388   1.111   .     S
C1393  H1401   1.109   .     S
C1393  C1394   1.537   .     S
C1393  H1402   1.085   .     S
C1394  H1399   1.110   .     S
C1394  C1395   1.528   .     S
C1394  H1400   1.107   .     S
C1395  H1398   1.111   .     S
C1395  H1396   1.111   .     S
C1395  H1397   1.111   .     S
N1403  O1404   1.299   .     A
N1403  O1405   1.297   .     A
N1406  O1407   1.297   .     A
N1406  O1408   1.299   .     A
O1409  C1413   1.296   .     A
O1409  Zn1421  1.995   .     S
O1410  C1414   1.296   .     A
O1410  Zn1422  1.995   .     S
O1411  C1413   1.294   .     A
O1411  Zn1422  1.998   .     S
O1412  C1414   1.294   .     A
O1412  Zn1421  1.998   .     S
C1413  C1436   1.419   .     S
C1414  C1435   1.419   .     S
O1415  C1419   1.284   .     A
O1415  Zn1421  1.980   .     S
O1416  C1420   1.284   .     A
O1416  Zn1422  1.980   .     S
O1417  Zn1422  1.982   .     S
O1417  C1419   1.296   .     A
O1418  C1420   1.296   .     A
O1418  Zn1421  1.982   .     S
C1419  C1425   1.407   .     S
C1420  C1426   1.407   .     S
Zn1421 N1423   2.039   .     S
Zn1422 N1424   2.039   .     S
N1423  C1439   1.367   .     A
N1423  C1438   1.386   .     A
N1424  C1440   1.367   .     A
N1424  C1437   1.386   .     A
C1426  C1489   1.348   .     S
C1426  N1508   1.439   .     S
C1427  C1436   1.396   .     A
C1427  H1429   1.079   .     S
C1428  C1435   1.396   .     A
C1428  H1430   1.079   .     S
C1428  C1624   1.370   .     S
C1431  C1435   1.394   .     A
C1431  H1433   1.083   .     S
C1431  C1619   1.370   .     S
C1432  C1436   1.394   .     A
C1432  H1434   1.083   .     S
C1437  C1447   1.519   .     S
C1438  C1457   1.519   .     S
C1438  C288    1.431   1_556 S
C1439  N1467   1.429   .     S
C1439  C285    1.431   1_556 S
C1440  N1470   1.429   .     S
N1441  O1442   1.300   .     A
N1441  O1443   1.301   .     A
N1441  C1489   1.439   .     S
N1444  O1446   1.301   .     A
N1444  O1445   1.300   .     A
C1447  H1455   1.085   .     S
C1447  C1448   1.537   .     S
C1447  H1456   1.109   .     S
C1448  H1453   1.107   .     S
C1448  H1454   1.110   .     S
C1448  C1449   1.528   .     S
C1449  H1451   1.111   .     S
C1449  H1450   1.111   .     S
C1449  H1452   1.111   .     S
C1457  H1465   1.109   .     S
C1457  C1458   1.537   .     S
C1457  H1466   1.085   .     S
C1458  H1463   1.110   .     S
C1458  C1459   1.528   .     S
C1458  H1464   1.107   .     S
C1459  H1462   1.111   .     S
C1459  H1460   1.111   .     S
C1459  H1461   1.111   .     S
N1467  O1468   1.299   .     A
N1467  O1469   1.297   .     A
N1470  O1471   1.297   .     A
N1470  O1472   1.299   .     A
O1473  C1477   1.296   .     A
O1473  Zn1485  1.995   .     S
O1474  C1478   1.296   .     A
O1474  Zn1486  1.995   .     S
O1475  C1477   1.294   .     A
O1475  Zn1486  1.998   .     S
O1476  C1478   1.294   .     A
O1476  Zn1485  1.998   .     S
C1477  C1500   1.419   .     S
C1478  C1499   1.419   .     S
O1479  C1483   1.284   .     A
O1479  Zn1485  1.980   .     S
O1480  C1484   1.284   .     A
O1480  Zn1486  1.980   .     S
O1481  Zn1486  1.982   .     S
O1481  C1483   1.296   .     A
O1482  C1484   1.296   .     A
O1482  Zn1485  1.982   .     S
C1483  C1489   1.407   .     S
C1484  C1490   1.407   .     S
Zn1485 N1487   2.039   .     S
Zn1486 N1488   2.039   .     S
N1487  C1503   1.367   .     A
N1487  C1502   1.386   .     A
N1488  C1504   1.367   .     A
N1488  C1501   1.386   .     A
C1490  C1361   1.348   1_655 S
C1490  N1380   1.439   1_655 S
C1491  C1500   1.396   .     A
C1491  H1493   1.079   .     S
C1492  C1499   1.396   .     A
C1492  H1494   1.079   .     S
C1492  C1688   1.370   .     S
C1495  C1499   1.394   .     A
C1495  H1497   1.083   .     S
C1495  C1683   1.370   .     S
C1496  C1500   1.394   .     A
C1496  H1498   1.083   .     S
C1501  C1511   1.519   .     S
C1502  C1521   1.519   .     S
C1502  C352    1.431   1_556 S
C1503  N1531   1.429   .     S
C1503  C349    1.431   1_556 S
C1504  N1534   1.429   .     S
N1505  O1506   1.300   .     A
N1505  O1507   1.301   .     A
N1505  C1361   1.439   1_655 S
N1508  O1510   1.301   .     A
N1508  O1509   1.300   .     A
C1511  H1519   1.085   .     S
C1511  C1512   1.537   .     S
C1511  H1520   1.109   .     S
C1512  H1517   1.107   .     S
C1512  H1518   1.110   .     S
C1512  C1513   1.528   .     S
C1513  H1515   1.111   .     S
C1513  H1514   1.111   .     S
C1513  H1516   1.111   .     S
C1521  H1529   1.109   .     S
C1521  C1522   1.537   .     S
C1521  H1530   1.085   .     S
C1522  H1527   1.110   .     S
C1522  C1523   1.528   .     S
C1522  H1528   1.107   .     S
C1523  H1526   1.111   .     S
C1523  H1524   1.111   .     S
C1523  H1525   1.111   .     S
N1531  O1532   1.299   .     A
N1531  O1533   1.297   .     A
N1534  O1535   1.297   .     A
N1534  O1536   1.299   .     A
O1537  C1541   1.296   .     A
O1537  Zn1549  1.995   .     S
O1538  C1542   1.296   .     A
O1538  Zn1550  1.995   .     S
O1539  C1541   1.294   .     A
O1539  Zn1550  1.998   .     S
O1540  C1542   1.294   .     A
O1540  Zn1549  1.998   .     S
C1541  C1564   1.419   .     S
C1542  C1563   1.419   .     S
O1543  C1547   1.284   .     A
O1543  Zn1549  1.980   .     S
O1544  C1548   1.284   .     A
O1544  Zn1550  1.980   .     S
O1545  Zn1550  1.982   .     S
O1545  C1547   1.296   .     A
O1546  C1548   1.296   .     A
O1546  Zn1549  1.982   .     S
C1547  C1553   1.407   .     S
C1548  C1554   1.407   .     S
Zn1549 N1551   2.039   .     S
Zn1550 N1552   2.039   .     S
N1551  C1567   1.367   .     A
N1551  C1566   1.386   .     A
N1552  C1568   1.367   .     A
N1552  C1565   1.386   .     A
C1553  C1682   1.348   1_455 S
C1553  N1697   1.439   1_455 S
C1554  C1617   1.348   .     S
C1554  N1636   1.439   .     S
C1555  C1564   1.396   .     A
C1555  H1557   1.079   .     S
C1556  C1563   1.396   .     A
C1556  H1558   1.079   .     S
C1556  C1176   1.370   1_565 S
C1559  C1563   1.394   .     A
C1559  H1561   1.083   .     S
C1559  C1171   1.370   1_565 S
C1560  C1564   1.394   .     A
C1560  H1562   1.083   .     S
C1565  C1575   1.519   .     S
C1566  C1585   1.519   .     S
C1566  C416    1.431   1_556 S
C1567  N1595   1.429   .     S
C1567  C413    1.431   1_556 S
C1568  N1598   1.429   .     S
N1569  O1570   1.300   .     A
N1569  O1571   1.301   .     A
N1569  C1617   1.439   .     S
N1572  O1574   1.301   .     A
N1572  O1573   1.300   .     A
N1572  C1682   1.439   1_455 S
C1575  H1583   1.085   .     S
C1575  C1576   1.537   .     S
C1575  H1584   1.109   .     S
C1576  H1581   1.107   .     S
C1576  H1582   1.110   .     S
C1576  C1577   1.528   .     S
C1577  H1579   1.111   .     S
C1577  H1578   1.111   .     S
C1577  H1580   1.111   .     S
C1585  H1593   1.109   .     S
C1585  C1586   1.537   .     S
C1585  H1594   1.085   .     S
C1586  H1591   1.110   .     S
C1586  C1587   1.528   .     S
C1586  H1592   1.107   .     S
C1587  H1590   1.111   .     S
C1587  H1588   1.111   .     S
C1587  H1589   1.111   .     S
N1595  O1596   1.299   .     A
N1595  O1597   1.297   .     A
N1598  O1599   1.297   .     A
N1598  O1600   1.299   .     A
O1601  C1605   1.296   .     A
O1601  Zn1613  1.995   .     S
O1602  C1606   1.296   .     A
O1602  Zn1614  1.995   .     S
O1603  C1605   1.294   .     A
O1603  Zn1614  1.998   .     S
O1604  C1606   1.294   .     A
O1604  Zn1613  1.998   .     S
C1605  C1628   1.419   .     S
C1606  C1627   1.419   .     S
O1607  C1611   1.284   .     A
O1607  Zn1613  1.980   .     S
O1608  C1612   1.284   .     A
O1608  Zn1614  1.980   .     S
O1609  Zn1614  1.982   .     S
O1609  C1611   1.296   .     A
O1610  C1612   1.296   .     A
O1610  Zn1613  1.982   .     S
C1611  C1617   1.407   .     S
C1612  C1618   1.407   .     S
Zn1613 N1615   2.039   .     S
Zn1614 N1616   2.039   .     S
N1615  C1631   1.367   .     A
N1615  C1630   1.386   .     A
N1616  C1632   1.367   .     A
N1616  C1629   1.386   .     A
C1618  C1681   1.348   .     S
C1618  N1700   1.439   .     S
C1619  C1628   1.396   .     A
C1619  H1621   1.079   .     S
C1620  C1627   1.396   .     A
C1620  H1622   1.079   .     S
C1620  C1240   1.370   1_565 S
C1623  C1627   1.394   .     A
C1623  H1625   1.083   .     S
C1623  C1235   1.370   1_565 S
C1624  C1628   1.394   .     A
C1624  H1626   1.083   .     S
C1629  C1639   1.519   .     S
C1630  C1649   1.519   .     S
C1630  C480    1.431   1_556 S
C1631  N1659   1.429   .     S
C1631  C477    1.431   1_556 S
C1632  N1662   1.429   .     S
N1633  O1634   1.300   .     A
N1633  O1635   1.301   .     A
N1633  C1681   1.439   .     S
N1636  O1638   1.301   .     A
N1636  O1637   1.300   .     A
C1639  H1647   1.085   .     S
C1639  C1640   1.537   .     S
C1639  H1648   1.109   .     S
C1640  H1645   1.107   .     S
C1640  H1646   1.110   .     S
C1640  C1641   1.528   .     S
C1641  H1643   1.111   .     S
C1641  H1642   1.111   .     S
C1641  H1644   1.111   .     S
C1649  H1657   1.109   .     S
C1649  C1650   1.537   .     S
C1649  H1658   1.085   .     S
C1650  H1655   1.110   .     S
C1650  C1651   1.528   .     S
C1650  H1656   1.107   .     S
C1651  H1654   1.111   .     S
C1651  H1652   1.111   .     S
C1651  H1653   1.111   .     S
N1659  O1660   1.299   .     A
N1659  O1661   1.297   .     A
N1662  O1663   1.297   .     A
N1662  O1664   1.299   .     A
O1665  C1669   1.296   .     A
O1665  Zn1677  1.995   .     S
O1666  C1670   1.296   .     A
O1666  Zn1678  1.995   .     S
O1667  C1669   1.294   .     A
O1667  Zn1678  1.998   .     S
O1668  C1670   1.294   .     A
O1668  Zn1677  1.998   .     S
C1669  C1692   1.419   .     S
C1670  C1691   1.419   .     S
O1671  C1675   1.284   .     A
O1671  Zn1677  1.980   .     S
O1672  C1676   1.284   .     A
O1672  Zn1678  1.980   .     S
O1673  Zn1678  1.982   .     S
O1673  C1675   1.296   .     A
O1674  C1676   1.296   .     A
O1674  Zn1677  1.982   .     S
C1675  C1681   1.407   .     S
C1676  C1682   1.407   .     S
Zn1677 N1679   2.039   .     S
Zn1678 N1680   2.039   .     S
N1679  C1695   1.367   .     A
N1679  C1694   1.386   .     A
N1680  C1696   1.367   .     A
N1680  C1693   1.386   .     A
C1682  C1553   1.348   1_655 S
C1682  N1572   1.439   1_655 S
C1683  C1692   1.396   .     A
C1683  H1685   1.079   .     S
C1684  C1691   1.396   .     A
C1684  H1686   1.079   .     S
C1684  C1304   1.370   1_565 S
C1687  C1691   1.394   .     A
C1687  H1689   1.083   .     S
C1687  C1299   1.370   1_565 S
C1688  C1692   1.394   .     A
C1688  H1690   1.083   .     S
C1693  C1703   1.519   .     S
C1694  C1713   1.519   .     S
C1694  C544    1.431   1_556 S
C1695  N1723   1.429   .     S
C1695  C541    1.431   1_556 S
C1696  N1726   1.429   .     S
N1697  O1698   1.300   .     A
N1697  O1699   1.301   .     A
N1697  C1553   1.439   1_655 S
N1700  O1702   1.301   .     A
N1700  O1701   1.300   .     A
C1703  H1711   1.085   .     S
C1703  C1704   1.537   .     S
C1703  H1712   1.109   .     S
C1704  H1709   1.107   .     S
C1704  H1710   1.110   .     S
C1704  C1705   1.528   .     S
C1705  H1707   1.111   .     S
C1705  H1706   1.111   .     S
C1705  H1708   1.111   .     S
C1713  H1721   1.109   .     S
C1713  C1714   1.537   .     S
C1713  H1722   1.085   .     S
C1714  H1719   1.110   .     S
C1714  C1715   1.528   .     S
C1714  H1720   1.107   .     S
C1715  H1718   1.111   .     S
C1715  H1716   1.111   .     S
C1715  H1717   1.111   .     S
N1723  O1724   1.299   .     A
N1723  O1725   1.297   .     A
N1726  O1727   1.297   .     A
N1726  O1728   1.299   .     A
