data_str_m3_o10_o16_pcu_sym.44
_audit_creation_date              2020-01-03
_audit_creation_method            'Materials Studio'
_symmetry_space_group_name_H-M    'P1'
_symmetry_Int_Tables_number       1
_symmetry_cell_setting            triclinic
loop_
_symmetry_equiv_pos_as_xyz
  x,y,z
_cell_length_a                    23.4535
_cell_length_b                    25.8258
_cell_length_c                    24.1098
_cell_angle_alpha                 92.6204
_cell_angle_beta                  100.9388
_cell_angle_gamma                 94.3594
loop_
_atom_site_label
_atom_site_type_symbol
_atom_site_fract_x
_atom_site_fract_y
_atom_site_fract_z
_atom_site_U_iso_or_equiv
_atom_site_adp_type
_atom_site_occupancy
C1     C     0.01475   0.26476   0.24788   0.00000  Uiso   1.00
C2     C     0.05683   0.18680   0.41458   0.00000  Uiso   1.00
C3     C     0.02253   0.31886   0.24493   0.00000  Uiso   1.00
C4     C     0.03587   0.17156   0.35521   0.00000  Uiso   1.00
C5     C     0.31067   0.01365   0.24929   0.00000  Uiso   1.00
C6     C     0.31814   0.06833   0.24990   0.00000  Uiso   1.00
C7     C     0.29773   0.16357   0.14453   0.00000  Uiso   1.00
C8     C     0.25658   0.09239   0.00526   0.00000  Uiso   1.00
C9     C     0.27844   0.15692   0.08351   0.00000  Uiso   1.00
C10    C     0.05089   0.23880   0.42991   0.00000  Uiso   1.00
C11    C     0.09898   0.26924   0.46046   0.00000  Uiso   1.00
C12    C     0.15125   0.19224   0.47724   0.00000  Uiso   1.00
C13    C     0.15083   0.24687   0.47826   0.00000  Uiso   1.00
C14    C     0.10381   0.16169   0.44290   0.00000  Uiso   1.00
C15    C     0.19889   0.16709   0.00521   0.00000  Uiso   1.00
C16    C     0.20629   0.11617   0.48443   0.00000  Uiso   1.00
C17    C     0.16060   0.08715   0.44792   0.00000  Uiso   1.00
C18    C     0.10752   0.10793   0.43219   0.00000  Uiso   1.00
C19    C     0.23401   0.18683   0.05750   0.00000  Uiso   1.00
C20    C     0.29374   0.11303   0.05420   0.00000  Uiso   1.00
F21    F     0.20118   0.27843   0.49000   0.00000  Uiso   1.00
F22    F     0.07601   0.00596   0.23820   0.00000  Uiso   1.00
H23    H     0.26818   0.32982   0.25401   0.00000  Uiso   1.00
H24    H     0.15656   0.12494   0.20812   0.00000  Uiso   1.00
H25    H     0.17676   0.20840   0.29187   0.00000  Uiso   1.00
H26    H     0.16428   0.04670   0.43621   0.00000  Uiso   1.00
H27    H     0.26411   0.05510   0.48670   0.00000  Uiso   1.00
H28    H     0.01393   0.25813   0.40916   0.00000  Uiso   1.00
H29    H     0.09806   0.31087   0.46547   0.00000  Uiso   1.00
I30    I     0.03033   0.06771   0.08590   0.00000  Uiso   1.00
I31    I     0.21235   0.25302   0.10701   0.00000  Uiso   1.00
I32    I     0.03390   0.05484   0.39818   0.00000  Uiso   1.00
N33    N     0.14493   0.15223   0.23542   0.00000  Uiso   1.00
N34    N     0.18840   0.18110   0.26457   0.00000  Uiso   1.00
O35    O     0.29769   0.24629   0.25357   0.00000  Uiso   1.00
O36    O     0.05742   0.23704   0.24423   0.00000  Uiso   1.00
O37    O     0.31490   0.17358   0.33380   0.00000  Uiso   1.00
O38    O     0.07463   0.16433   0.32446   0.00000  Uiso   1.00
O39    O     0.27592   0.09629   0.25577   0.00000  Uiso   1.00
O40    O     0.03565   0.08704   0.24642   0.00000  Uiso   1.00
O41    O     0.25870   0.16901   0.17554   0.00000  Uiso   1.00
O42    O     0.01843   0.15976   0.16620   0.00000  Uiso   1.00
Zn43   Zn    0.27119   0.17284   0.25624   0.00000  Uiso   1.00
Zn44   Zn    0.06214   0.16049   0.24376   0.00000  Uiso   1.00
C45    C     0.34808   0.26476   0.24788   0.00000  Uiso   1.00
C46    C     0.39016   0.18680   0.41458   0.00000  Uiso   1.00
C47    C     0.35586   0.31886   0.24493   0.00000  Uiso   1.00
C48    C     0.36920   0.17156   0.35521   0.00000  Uiso   1.00
C49    C     0.64400   0.01365   0.24929   0.00000  Uiso   1.00
C50    C     0.65147   0.06833   0.24990   0.00000  Uiso   1.00
C51    C     0.63106   0.16357   0.14453   0.00000  Uiso   1.00
C52    C     0.58992   0.09239   0.00526   0.00000  Uiso   1.00
C53    C     0.61177   0.15692   0.08351   0.00000  Uiso   1.00
C54    C     0.38422   0.23880   0.42991   0.00000  Uiso   1.00
C55    C     0.43232   0.26924   0.46046   0.00000  Uiso   1.00
C56    C     0.48458   0.19224   0.47724   0.00000  Uiso   1.00
C57    C     0.48417   0.24687   0.47826   0.00000  Uiso   1.00
C58    C     0.43714   0.16169   0.44290   0.00000  Uiso   1.00
C59    C     0.53222   0.16709   0.00521   0.00000  Uiso   1.00
C60    C     0.53962   0.11617   0.48443   0.00000  Uiso   1.00
C61    C     0.49393   0.08715   0.44792   0.00000  Uiso   1.00
C62    C     0.44086   0.10793   0.43219   0.00000  Uiso   1.00
C63    C     0.56735   0.18683   0.05750   0.00000  Uiso   1.00
C64    C     0.62707   0.11303   0.05420   0.00000  Uiso   1.00
F65    F     0.53452   0.27843   0.49000   0.00000  Uiso   1.00
F66    F     0.40934   0.00596   0.23820   0.00000  Uiso   1.00
H67    H     0.60152   0.32982   0.25401   0.00000  Uiso   1.00
H68    H     0.48990   0.12494   0.20812   0.00000  Uiso   1.00
H69    H     0.51009   0.20840   0.29187   0.00000  Uiso   1.00
H70    H     0.49762   0.04670   0.43621   0.00000  Uiso   1.00
H71    H     0.59745   0.05510   0.48670   0.00000  Uiso   1.00
H72    H     0.34726   0.25813   0.40916   0.00000  Uiso   1.00
H73    H     0.43139   0.31087   0.46547   0.00000  Uiso   1.00
I74    I     0.36367   0.06771   0.08590   0.00000  Uiso   1.00
I75    I     0.54568   0.25302   0.10701   0.00000  Uiso   1.00
I76    I     0.36724   0.05484   0.39818   0.00000  Uiso   1.00
N77    N     0.47827   0.15223   0.23542   0.00000  Uiso   1.00
N78    N     0.52173   0.18110   0.26457   0.00000  Uiso   1.00
O79    O     0.63102   0.24629   0.25357   0.00000  Uiso   1.00
O80    O     0.39075   0.23704   0.24423   0.00000  Uiso   1.00
O81    O     0.64823   0.17358   0.33380   0.00000  Uiso   1.00
O82    O     0.40796   0.16433   0.32446   0.00000  Uiso   1.00
O83    O     0.60925   0.09629   0.25577   0.00000  Uiso   1.00
O84    O     0.36898   0.08704   0.24642   0.00000  Uiso   1.00
O85    O     0.59204   0.16901   0.17554   0.00000  Uiso   1.00
O86    O     0.35177   0.15976   0.16620   0.00000  Uiso   1.00
Zn87   Zn    0.60453   0.17284   0.25624   0.00000  Uiso   1.00
Zn88   Zn    0.39547   0.16049   0.24376   0.00000  Uiso   1.00
C89    C     0.68142   0.26476   0.24788   0.00000  Uiso   1.00
C90    C     0.72350   0.18680   0.41458   0.00000  Uiso   1.00
C91    C     0.68919   0.31886   0.24493   0.00000  Uiso   1.00
C92    C     0.70254   0.17156   0.35521   0.00000  Uiso   1.00
C93    C     0.97733   0.01365   0.24929   0.00000  Uiso   1.00
C94    C     0.98480   0.06833   0.24990   0.00000  Uiso   1.00
C95    C     0.96439   0.16357   0.14453   0.00000  Uiso   1.00
C96    C     0.92325   0.09239   0.00526   0.00000  Uiso   1.00
C97    C     0.94511   0.15692   0.08351   0.00000  Uiso   1.00
C98    C     0.71756   0.23880   0.42991   0.00000  Uiso   1.00
C99    C     0.76565   0.26924   0.46046   0.00000  Uiso   1.00
C100   C     0.81791   0.19224   0.47724   0.00000  Uiso   1.00
C101   C     0.81750   0.24687   0.47826   0.00000  Uiso   1.00
C102   C     0.77048   0.16169   0.44290   0.00000  Uiso   1.00
C103   C     0.86555   0.16709   0.00521   0.00000  Uiso   1.00
C104   C     0.87295   0.11617   0.48443   0.00000  Uiso   1.00
C105   C     0.82726   0.08715   0.44792   0.00000  Uiso   1.00
C106   C     0.77419   0.10793   0.43219   0.00000  Uiso   1.00
C107   C     0.90068   0.18683   0.05750   0.00000  Uiso   1.00
C108   C     0.96041   0.11303   0.05420   0.00000  Uiso   1.00
F109   F     0.86785   0.27843   0.49000   0.00000  Uiso   1.00
F110   F     0.74268   0.00596   0.23820   0.00000  Uiso   1.00
H111   H     0.93485   0.32982   0.25401   0.00000  Uiso   1.00
H112   H     0.82323   0.12494   0.20812   0.00000  Uiso   1.00
H113   H     0.84343   0.20840   0.29187   0.00000  Uiso   1.00
H114   H     0.83095   0.04670   0.43621   0.00000  Uiso   1.00
H115   H     0.93078   0.05510   0.48670   0.00000  Uiso   1.00
H116   H     0.68060   0.25813   0.40916   0.00000  Uiso   1.00
H117   H     0.76472   0.31087   0.46547   0.00000  Uiso   1.00
I118   I     0.69700   0.06771   0.08590   0.00000  Uiso   1.00
I119   I     0.87902   0.25302   0.10701   0.00000  Uiso   1.00
I120   I     0.70057   0.05484   0.39818   0.00000  Uiso   1.00
N121   N     0.81160   0.15223   0.23542   0.00000  Uiso   1.00
N122   N     0.85507   0.18110   0.26457   0.00000  Uiso   1.00
O123   O     0.96435   0.24629   0.25357   0.00000  Uiso   1.00
O124   O     0.72408   0.23704   0.24423   0.00000  Uiso   1.00
O125   O     0.98157   0.17358   0.33380   0.00000  Uiso   1.00
O126   O     0.74130   0.16433   0.32446   0.00000  Uiso   1.00
O127   O     0.94258   0.09629   0.25577   0.00000  Uiso   1.00
O128   O     0.70231   0.08704   0.24642   0.00000  Uiso   1.00
O129   O     0.92537   0.16901   0.17554   0.00000  Uiso   1.00
O130   O     0.68510   0.15976   0.16620   0.00000  Uiso   1.00
Zn131  Zn    0.93786   0.17284   0.25624   0.00000  Uiso   1.00
Zn132  Zn    0.72881   0.16049   0.24376   0.00000  Uiso   1.00
C133   C     0.01475   0.59810   0.24788   0.00000  Uiso   1.00
C134   C     0.05683   0.52013   0.41458   0.00000  Uiso   1.00
C135   C     0.02253   0.65219   0.24493   0.00000  Uiso   1.00
C136   C     0.03587   0.50490   0.35521   0.00000  Uiso   1.00
C137   C     0.31067   0.34698   0.24929   0.00000  Uiso   1.00
C138   C     0.31814   0.40166   0.24990   0.00000  Uiso   1.00
C139   C     0.29773   0.49690   0.14453   0.00000  Uiso   1.00
C140   C     0.25658   0.42572   0.00526   0.00000  Uiso   1.00
C141   C     0.27844   0.49025   0.08351   0.00000  Uiso   1.00
C142   C     0.05089   0.57213   0.42991   0.00000  Uiso   1.00
C143   C     0.09898   0.60258   0.46046   0.00000  Uiso   1.00
C144   C     0.15125   0.52557   0.47724   0.00000  Uiso   1.00
C145   C     0.15083   0.58020   0.47826   0.00000  Uiso   1.00
C146   C     0.10381   0.49502   0.44290   0.00000  Uiso   1.00
C147   C     0.19889   0.50042   0.00521   0.00000  Uiso   1.00
C148   C     0.20629   0.44950   0.48443   0.00000  Uiso   1.00
C149   C     0.16060   0.42048   0.44792   0.00000  Uiso   1.00
C150   C     0.10752   0.44126   0.43219   0.00000  Uiso   1.00
C151   C     0.23401   0.52017   0.05750   0.00000  Uiso   1.00
C152   C     0.29374   0.44636   0.05420   0.00000  Uiso   1.00
F153   F     0.20118   0.61176   0.49000   0.00000  Uiso   1.00
F154   F     0.07601   0.33929   0.23820   0.00000  Uiso   1.00
H155   H     0.26818   0.66315   0.25401   0.00000  Uiso   1.00
H156   H     0.15656   0.45827   0.20812   0.00000  Uiso   1.00
H157   H     0.17676   0.54173   0.29187   0.00000  Uiso   1.00
H158   H     0.16428   0.38004   0.43621   0.00000  Uiso   1.00
H159   H     0.26411   0.38843   0.48670   0.00000  Uiso   1.00
H160   H     0.01393   0.59146   0.40916   0.00000  Uiso   1.00
H161   H     0.09806   0.64420   0.46547   0.00000  Uiso   1.00
I162   I     0.03033   0.40105   0.08590   0.00000  Uiso   1.00
I163   I     0.21235   0.58635   0.10701   0.00000  Uiso   1.00
I164   I     0.03390   0.38818   0.39818   0.00000  Uiso   1.00
N165   N     0.14493   0.48556   0.23542   0.00000  Uiso   1.00
N166   N     0.18840   0.51444   0.26457   0.00000  Uiso   1.00
O167   O     0.29769   0.57963   0.25357   0.00000  Uiso   1.00
O168   O     0.05742   0.57038   0.24423   0.00000  Uiso   1.00
O169   O     0.31490   0.50691   0.33380   0.00000  Uiso   1.00
O170   O     0.07463   0.49766   0.32446   0.00000  Uiso   1.00
O171   O     0.27592   0.42962   0.25577   0.00000  Uiso   1.00
O172   O     0.03565   0.42037   0.24642   0.00000  Uiso   1.00
O173   O     0.25870   0.50234   0.17554   0.00000  Uiso   1.00
O174   O     0.01843   0.49309   0.16620   0.00000  Uiso   1.00
Zn175  Zn    0.27119   0.50618   0.25624   0.00000  Uiso   1.00
Zn176  Zn    0.06214   0.49382   0.24376   0.00000  Uiso   1.00
C177   C     0.34808   0.59810   0.24788   0.00000  Uiso   1.00
C178   C     0.39016   0.52013   0.41458   0.00000  Uiso   1.00
C179   C     0.35586   0.65219   0.24493   0.00000  Uiso   1.00
C180   C     0.36920   0.50490   0.35521   0.00000  Uiso   1.00
C181   C     0.64400   0.34698   0.24929   0.00000  Uiso   1.00
C182   C     0.65147   0.40166   0.24990   0.00000  Uiso   1.00
C183   C     0.63106   0.49690   0.14453   0.00000  Uiso   1.00
C184   C     0.58992   0.42572   0.00526   0.00000  Uiso   1.00
C185   C     0.61177   0.49025   0.08351   0.00000  Uiso   1.00
C186   C     0.38422   0.57213   0.42991   0.00000  Uiso   1.00
C187   C     0.43232   0.60258   0.46046   0.00000  Uiso   1.00
C188   C     0.48458   0.52557   0.47724   0.00000  Uiso   1.00
C189   C     0.48417   0.58020   0.47826   0.00000  Uiso   1.00
C190   C     0.43714   0.49502   0.44290   0.00000  Uiso   1.00
C191   C     0.53222   0.50042   0.00521   0.00000  Uiso   1.00
C192   C     0.53962   0.44950   0.48443   0.00000  Uiso   1.00
C193   C     0.49393   0.42048   0.44792   0.00000  Uiso   1.00
C194   C     0.44086   0.44126   0.43219   0.00000  Uiso   1.00
C195   C     0.56735   0.52017   0.05750   0.00000  Uiso   1.00
C196   C     0.62707   0.44636   0.05420   0.00000  Uiso   1.00
F197   F     0.53452   0.61176   0.49000   0.00000  Uiso   1.00
F198   F     0.40934   0.33929   0.23820   0.00000  Uiso   1.00
H199   H     0.60152   0.66315   0.25401   0.00000  Uiso   1.00
H200   H     0.48990   0.45827   0.20812   0.00000  Uiso   1.00
H201   H     0.51009   0.54173   0.29187   0.00000  Uiso   1.00
H202   H     0.49762   0.38004   0.43621   0.00000  Uiso   1.00
H203   H     0.59745   0.38843   0.48670   0.00000  Uiso   1.00
H204   H     0.34726   0.59146   0.40916   0.00000  Uiso   1.00
H205   H     0.43139   0.64420   0.46547   0.00000  Uiso   1.00
I206   I     0.36367   0.40105   0.08590   0.00000  Uiso   1.00
I207   I     0.54568   0.58635   0.10701   0.00000  Uiso   1.00
I208   I     0.36724   0.38818   0.39818   0.00000  Uiso   1.00
N209   N     0.47827   0.48556   0.23542   0.00000  Uiso   1.00
N210   N     0.52173   0.51444   0.26457   0.00000  Uiso   1.00
O211   O     0.63102   0.57963   0.25357   0.00000  Uiso   1.00
O212   O     0.39075   0.57038   0.24423   0.00000  Uiso   1.00
O213   O     0.64823   0.50691   0.33380   0.00000  Uiso   1.00
O214   O     0.40796   0.49766   0.32446   0.00000  Uiso   1.00
O215   O     0.60925   0.42962   0.25577   0.00000  Uiso   1.00
O216   O     0.36898   0.42037   0.24642   0.00000  Uiso   1.00
O217   O     0.59204   0.50234   0.17554   0.00000  Uiso   1.00
O218   O     0.35177   0.49309   0.16620   0.00000  Uiso   1.00
Zn219  Zn    0.60453   0.50618   0.25624   0.00000  Uiso   1.00
Zn220  Zn    0.39547   0.49382   0.24376   0.00000  Uiso   1.00
C221   C     0.68142   0.59810   0.24788   0.00000  Uiso   1.00
C222   C     0.72350   0.52013   0.41458   0.00000  Uiso   1.00
C223   C     0.68919   0.65219   0.24493   0.00000  Uiso   1.00
C224   C     0.70254   0.50490   0.35521   0.00000  Uiso   1.00
C225   C     0.97733   0.34698   0.24929   0.00000  Uiso   1.00
C226   C     0.98480   0.40166   0.24990   0.00000  Uiso   1.00
C227   C     0.96439   0.49690   0.14453   0.00000  Uiso   1.00
C228   C     0.92325   0.42572   0.00526   0.00000  Uiso   1.00
C229   C     0.94511   0.49025   0.08351   0.00000  Uiso   1.00
C230   C     0.71756   0.57213   0.42991   0.00000  Uiso   1.00
C231   C     0.76565   0.60258   0.46046   0.00000  Uiso   1.00
C232   C     0.81791   0.52557   0.47724   0.00000  Uiso   1.00
C233   C     0.81750   0.58020   0.47826   0.00000  Uiso   1.00
C234   C     0.77048   0.49502   0.44290   0.00000  Uiso   1.00
C235   C     0.86555   0.50042   0.00521   0.00000  Uiso   1.00
C236   C     0.87295   0.44950   0.48443   0.00000  Uiso   1.00
C237   C     0.82726   0.42048   0.44792   0.00000  Uiso   1.00
C238   C     0.77419   0.44126   0.43219   0.00000  Uiso   1.00
C239   C     0.90068   0.52017   0.05750   0.00000  Uiso   1.00
C240   C     0.96041   0.44636   0.05420   0.00000  Uiso   1.00
F241   F     0.86785   0.61176   0.49000   0.00000  Uiso   1.00
F242   F     0.74268   0.33929   0.23820   0.00000  Uiso   1.00
H243   H     0.93485   0.66315   0.25401   0.00000  Uiso   1.00
H244   H     0.82323   0.45827   0.20812   0.00000  Uiso   1.00
H245   H     0.84343   0.54173   0.29187   0.00000  Uiso   1.00
H246   H     0.83095   0.38004   0.43621   0.00000  Uiso   1.00
H247   H     0.93078   0.38843   0.48670   0.00000  Uiso   1.00
H248   H     0.68060   0.59146   0.40916   0.00000  Uiso   1.00
H249   H     0.76472   0.64420   0.46547   0.00000  Uiso   1.00
I250   I     0.69700   0.40105   0.08590   0.00000  Uiso   1.00
I251   I     0.87902   0.58635   0.10701   0.00000  Uiso   1.00
I252   I     0.70057   0.38818   0.39818   0.00000  Uiso   1.00
N253   N     0.81160   0.48556   0.23542   0.00000  Uiso   1.00
N254   N     0.85507   0.51444   0.26457   0.00000  Uiso   1.00
O255   O     0.96435   0.57963   0.25357   0.00000  Uiso   1.00
O256   O     0.72408   0.57038   0.24423   0.00000  Uiso   1.00
O257   O     0.98157   0.50691   0.33380   0.00000  Uiso   1.00
O258   O     0.74130   0.49766   0.32446   0.00000  Uiso   1.00
O259   O     0.94258   0.42962   0.25577   0.00000  Uiso   1.00
O260   O     0.70231   0.42037   0.24642   0.00000  Uiso   1.00
O261   O     0.92537   0.50234   0.17554   0.00000  Uiso   1.00
O262   O     0.68510   0.49309   0.16620   0.00000  Uiso   1.00
Zn263  Zn    0.93786   0.50618   0.25624   0.00000  Uiso   1.00
Zn264  Zn    0.72881   0.49382   0.24376   0.00000  Uiso   1.00
C265   C     0.01475   0.93143   0.24788   0.00000  Uiso   1.00
C266   C     0.05683   0.85347   0.41458   0.00000  Uiso   1.00
C267   C     0.02253   0.98552   0.24493   0.00000  Uiso   1.00
C268   C     0.03587   0.83823   0.35521   0.00000  Uiso   1.00
C269   C     0.31067   0.68031   0.24929   0.00000  Uiso   1.00
C270   C     0.31814   0.73499   0.24990   0.00000  Uiso   1.00
C271   C     0.29773   0.83024   0.14453   0.00000  Uiso   1.00
C272   C     0.25658   0.75906   0.00526   0.00000  Uiso   1.00
C273   C     0.27844   0.82358   0.08351   0.00000  Uiso   1.00
C274   C     0.05089   0.90547   0.42991   0.00000  Uiso   1.00
C275   C     0.09898   0.93591   0.46046   0.00000  Uiso   1.00
C276   C     0.15125   0.85890   0.47724   0.00000  Uiso   1.00
C277   C     0.15083   0.91354   0.47826   0.00000  Uiso   1.00
C278   C     0.10381   0.82836   0.44290   0.00000  Uiso   1.00
C279   C     0.19889   0.83375   0.00521   0.00000  Uiso   1.00
C280   C     0.20629   0.78284   0.48443   0.00000  Uiso   1.00
C281   C     0.16060   0.75382   0.44792   0.00000  Uiso   1.00
C282   C     0.10752   0.77460   0.43219   0.00000  Uiso   1.00
C283   C     0.23401   0.85350   0.05750   0.00000  Uiso   1.00
C284   C     0.29374   0.77970   0.05420   0.00000  Uiso   1.00
F285   F     0.20118   0.94509   0.49000   0.00000  Uiso   1.00
F286   F     0.07601   0.67262   0.23820   0.00000  Uiso   1.00
H287   H     0.26818   0.99648   0.25401   0.00000  Uiso   1.00
H288   H     0.15656   0.79161   0.20812   0.00000  Uiso   1.00
H289   H     0.17676   0.87506   0.29187   0.00000  Uiso   1.00
H290   H     0.16428   0.71337   0.43621   0.00000  Uiso   1.00
H291   H     0.26411   0.72176   0.48670   0.00000  Uiso   1.00
H292   H     0.01393   0.92479   0.40916   0.00000  Uiso   1.00
H293   H     0.09806   0.97753   0.46547   0.00000  Uiso   1.00
I294   I     0.03033   0.73438   0.08590   0.00000  Uiso   1.00
I295   I     0.21235   0.91969   0.10701   0.00000  Uiso   1.00
I296   I     0.03390   0.72151   0.39818   0.00000  Uiso   1.00
N297   N     0.14493   0.81890   0.23542   0.00000  Uiso   1.00
N298   N     0.18840   0.84777   0.26457   0.00000  Uiso   1.00
O299   O     0.29769   0.91296   0.25357   0.00000  Uiso   1.00
O300   O     0.05742   0.90371   0.24423   0.00000  Uiso   1.00
O301   O     0.31490   0.84024   0.33380   0.00000  Uiso   1.00
O302   O     0.07463   0.83099   0.32446   0.00000  Uiso   1.00
O303   O     0.27592   0.76296   0.25577   0.00000  Uiso   1.00
O304   O     0.03565   0.75371   0.24642   0.00000  Uiso   1.00
O305   O     0.25870   0.83567   0.17554   0.00000  Uiso   1.00
O306   O     0.01843   0.82642   0.16620   0.00000  Uiso   1.00
Zn307  Zn    0.27119   0.83951   0.25624   0.00000  Uiso   1.00
Zn308  Zn    0.06214   0.82716   0.24376   0.00000  Uiso   1.00
C309   C     0.34808   0.93143   0.24788   0.00000  Uiso   1.00
C310   C     0.39016   0.85347   0.41458   0.00000  Uiso   1.00
C311   C     0.35586   0.98552   0.24493   0.00000  Uiso   1.00
C312   C     0.36920   0.83823   0.35521   0.00000  Uiso   1.00
C313   C     0.64400   0.68031   0.24929   0.00000  Uiso   1.00
C314   C     0.65147   0.73499   0.24990   0.00000  Uiso   1.00
C315   C     0.63106   0.83024   0.14453   0.00000  Uiso   1.00
C316   C     0.58992   0.75906   0.00526   0.00000  Uiso   1.00
C317   C     0.61177   0.82358   0.08351   0.00000  Uiso   1.00
C318   C     0.38422   0.90547   0.42991   0.00000  Uiso   1.00
C319   C     0.43232   0.93591   0.46046   0.00000  Uiso   1.00
C320   C     0.48458   0.85890   0.47724   0.00000  Uiso   1.00
C321   C     0.48417   0.91354   0.47826   0.00000  Uiso   1.00
C322   C     0.43714   0.82836   0.44290   0.00000  Uiso   1.00
C323   C     0.53222   0.83375   0.00521   0.00000  Uiso   1.00
C324   C     0.53962   0.78284   0.48443   0.00000  Uiso   1.00
C325   C     0.49393   0.75382   0.44792   0.00000  Uiso   1.00
C326   C     0.44086   0.77460   0.43219   0.00000  Uiso   1.00
C327   C     0.56735   0.85350   0.05750   0.00000  Uiso   1.00
C328   C     0.62707   0.77970   0.05420   0.00000  Uiso   1.00
F329   F     0.53452   0.94509   0.49000   0.00000  Uiso   1.00
F330   F     0.40934   0.67262   0.23820   0.00000  Uiso   1.00
H331   H     0.60152   0.99648   0.25401   0.00000  Uiso   1.00
H332   H     0.48990   0.79161   0.20812   0.00000  Uiso   1.00
H333   H     0.51009   0.87506   0.29187   0.00000  Uiso   1.00
H334   H     0.49762   0.71337   0.43621   0.00000  Uiso   1.00
H335   H     0.59745   0.72176   0.48670   0.00000  Uiso   1.00
H336   H     0.34726   0.92479   0.40916   0.00000  Uiso   1.00
H337   H     0.43139   0.97753   0.46547   0.00000  Uiso   1.00
I338   I     0.36367   0.73438   0.08590   0.00000  Uiso   1.00
I339   I     0.54568   0.91969   0.10701   0.00000  Uiso   1.00
I340   I     0.36724   0.72151   0.39818   0.00000  Uiso   1.00
N341   N     0.47827   0.81890   0.23542   0.00000  Uiso   1.00
N342   N     0.52173   0.84777   0.26457   0.00000  Uiso   1.00
O343   O     0.63102   0.91296   0.25357   0.00000  Uiso   1.00
O344   O     0.39075   0.90371   0.24423   0.00000  Uiso   1.00
O345   O     0.64823   0.84024   0.33380   0.00000  Uiso   1.00
O346   O     0.40796   0.83099   0.32446   0.00000  Uiso   1.00
O347   O     0.60925   0.76296   0.25577   0.00000  Uiso   1.00
O348   O     0.36898   0.75371   0.24642   0.00000  Uiso   1.00
O349   O     0.59204   0.83567   0.17554   0.00000  Uiso   1.00
O350   O     0.35177   0.82642   0.16620   0.00000  Uiso   1.00
Zn351  Zn    0.60453   0.83951   0.25624   0.00000  Uiso   1.00
Zn352  Zn    0.39547   0.82716   0.24376   0.00000  Uiso   1.00
C353   C     0.68142   0.93143   0.24788   0.00000  Uiso   1.00
C354   C     0.72350   0.85347   0.41458   0.00000  Uiso   1.00
C355   C     0.68919   0.98552   0.24493   0.00000  Uiso   1.00
C356   C     0.70254   0.83823   0.35521   0.00000  Uiso   1.00
C357   C     0.97733   0.68031   0.24929   0.00000  Uiso   1.00
C358   C     0.98480   0.73499   0.24990   0.00000  Uiso   1.00
C359   C     0.96439   0.83024   0.14453   0.00000  Uiso   1.00
C360   C     0.92325   0.75906   0.00526   0.00000  Uiso   1.00
C361   C     0.94511   0.82358   0.08351   0.00000  Uiso   1.00
C362   C     0.71756   0.90547   0.42991   0.00000  Uiso   1.00
C363   C     0.76565   0.93591   0.46046   0.00000  Uiso   1.00
C364   C     0.81791   0.85890   0.47724   0.00000  Uiso   1.00
C365   C     0.81750   0.91354   0.47826   0.00000  Uiso   1.00
C366   C     0.77048   0.82836   0.44290   0.00000  Uiso   1.00
C367   C     0.86555   0.83375   0.00521   0.00000  Uiso   1.00
C368   C     0.87295   0.78284   0.48443   0.00000  Uiso   1.00
C369   C     0.82726   0.75382   0.44792   0.00000  Uiso   1.00
C370   C     0.77419   0.77460   0.43219   0.00000  Uiso   1.00
C371   C     0.90068   0.85350   0.05750   0.00000  Uiso   1.00
C372   C     0.96041   0.77970   0.05420   0.00000  Uiso   1.00
F373   F     0.86785   0.94509   0.49000   0.00000  Uiso   1.00
F374   F     0.74268   0.67262   0.23820   0.00000  Uiso   1.00
H375   H     0.93485   0.99648   0.25401   0.00000  Uiso   1.00
H376   H     0.82323   0.79161   0.20812   0.00000  Uiso   1.00
H377   H     0.84343   0.87506   0.29187   0.00000  Uiso   1.00
H378   H     0.83095   0.71337   0.43621   0.00000  Uiso   1.00
H379   H     0.93078   0.72176   0.48670   0.00000  Uiso   1.00
H380   H     0.68060   0.92479   0.40916   0.00000  Uiso   1.00
H381   H     0.76472   0.97753   0.46547   0.00000  Uiso   1.00
I382   I     0.69700   0.73438   0.08590   0.00000  Uiso   1.00
I383   I     0.87902   0.91969   0.10701   0.00000  Uiso   1.00
I384   I     0.70057   0.72151   0.39818   0.00000  Uiso   1.00
N385   N     0.81160   0.81890   0.23542   0.00000  Uiso   1.00
N386   N     0.85507   0.84777   0.26457   0.00000  Uiso   1.00
O387   O     0.96435   0.91296   0.25357   0.00000  Uiso   1.00
O388   O     0.72408   0.90371   0.24423   0.00000  Uiso   1.00
O389   O     0.98157   0.84024   0.33380   0.00000  Uiso   1.00
O390   O     0.74130   0.83099   0.32446   0.00000  Uiso   1.00
O391   O     0.94258   0.76296   0.25577   0.00000  Uiso   1.00
O392   O     0.70231   0.75371   0.24642   0.00000  Uiso   1.00
O393   O     0.92537   0.83567   0.17554   0.00000  Uiso   1.00
O394   O     0.68510   0.82642   0.16620   0.00000  Uiso   1.00
Zn395  Zn    0.93786   0.83951   0.25624   0.00000  Uiso   1.00
Zn396  Zn    0.72881   0.82716   0.24376   0.00000  Uiso   1.00
C397   C     0.01475   0.26476   0.74788   0.00000  Uiso   1.00
C398   C     0.05683   0.18680   0.91458   0.00000  Uiso   1.00
C399   C     0.02253   0.31886   0.74493   0.00000  Uiso   1.00
C400   C     0.03587   0.17156   0.85521   0.00000  Uiso   1.00
C401   C     0.31067   0.01365   0.74929   0.00000  Uiso   1.00
C402   C     0.31814   0.06833   0.74990   0.00000  Uiso   1.00
C403   C     0.29773   0.16357   0.64453   0.00000  Uiso   1.00
C404   C     0.25658   0.09239   0.50526   0.00000  Uiso   1.00
C405   C     0.27844   0.15692   0.58351   0.00000  Uiso   1.00
C406   C     0.05089   0.23880   0.92991   0.00000  Uiso   1.00
C407   C     0.09898   0.26924   0.96046   0.00000  Uiso   1.00
C408   C     0.15125   0.19224   0.97724   0.00000  Uiso   1.00
C409   C     0.15083   0.24687   0.97826   0.00000  Uiso   1.00
C410   C     0.10381   0.16169   0.94290   0.00000  Uiso   1.00
C411   C     0.19889   0.16709   0.50521   0.00000  Uiso   1.00
C412   C     0.20629   0.11617   0.98443   0.00000  Uiso   1.00
C413   C     0.16060   0.08715   0.94792   0.00000  Uiso   1.00
C414   C     0.10752   0.10793   0.93219   0.00000  Uiso   1.00
C415   C     0.23401   0.18683   0.55750   0.00000  Uiso   1.00
C416   C     0.29374   0.11303   0.55420   0.00000  Uiso   1.00
F417   F     0.20118   0.27843   0.99000   0.00000  Uiso   1.00
F418   F     0.07601   0.00596   0.73820   0.00000  Uiso   1.00
H419   H     0.26818   0.32982   0.75401   0.00000  Uiso   1.00
H420   H     0.15656   0.12494   0.70812   0.00000  Uiso   1.00
H421   H     0.17676   0.20840   0.79187   0.00000  Uiso   1.00
H422   H     0.16428   0.04670   0.93621   0.00000  Uiso   1.00
H423   H     0.26411   0.05510   0.98670   0.00000  Uiso   1.00
H424   H     0.01393   0.25813   0.90916   0.00000  Uiso   1.00
H425   H     0.09806   0.31087   0.96547   0.00000  Uiso   1.00
I426   I     0.03033   0.06771   0.58590   0.00000  Uiso   1.00
I427   I     0.21235   0.25302   0.60701   0.00000  Uiso   1.00
I428   I     0.03390   0.05484   0.89818   0.00000  Uiso   1.00
N429   N     0.14493   0.15223   0.73542   0.00000  Uiso   1.00
N430   N     0.18840   0.18110   0.76457   0.00000  Uiso   1.00
O431   O     0.29769   0.24629   0.75357   0.00000  Uiso   1.00
O432   O     0.05742   0.23704   0.74423   0.00000  Uiso   1.00
O433   O     0.31490   0.17358   0.83380   0.00000  Uiso   1.00
O434   O     0.07463   0.16433   0.82446   0.00000  Uiso   1.00
O435   O     0.27592   0.09629   0.75577   0.00000  Uiso   1.00
O436   O     0.03565   0.08704   0.74642   0.00000  Uiso   1.00
O437   O     0.25870   0.16901   0.67554   0.00000  Uiso   1.00
O438   O     0.01843   0.15976   0.66620   0.00000  Uiso   1.00
Zn439  Zn    0.27119   0.17284   0.75624   0.00000  Uiso   1.00
Zn440  Zn    0.06214   0.16049   0.74376   0.00000  Uiso   1.00
C441   C     0.34808   0.26476   0.74788   0.00000  Uiso   1.00
C442   C     0.39016   0.18680   0.91458   0.00000  Uiso   1.00
C443   C     0.35586   0.31886   0.74493   0.00000  Uiso   1.00
C444   C     0.36920   0.17156   0.85521   0.00000  Uiso   1.00
C445   C     0.64400   0.01365   0.74929   0.00000  Uiso   1.00
C446   C     0.65147   0.06833   0.74990   0.00000  Uiso   1.00
C447   C     0.63106   0.16357   0.64453   0.00000  Uiso   1.00
C448   C     0.58992   0.09239   0.50526   0.00000  Uiso   1.00
C449   C     0.61177   0.15692   0.58351   0.00000  Uiso   1.00
C450   C     0.38422   0.23880   0.92991   0.00000  Uiso   1.00
C451   C     0.43232   0.26924   0.96046   0.00000  Uiso   1.00
C452   C     0.48458   0.19224   0.97724   0.00000  Uiso   1.00
C453   C     0.48417   0.24687   0.97826   0.00000  Uiso   1.00
C454   C     0.43714   0.16169   0.94290   0.00000  Uiso   1.00
C455   C     0.53222   0.16709   0.50521   0.00000  Uiso   1.00
C456   C     0.53962   0.11617   0.98443   0.00000  Uiso   1.00
C457   C     0.49393   0.08715   0.94792   0.00000  Uiso   1.00
C458   C     0.44086   0.10793   0.93219   0.00000  Uiso   1.00
C459   C     0.56735   0.18683   0.55750   0.00000  Uiso   1.00
C460   C     0.62707   0.11303   0.55420   0.00000  Uiso   1.00
F461   F     0.53452   0.27843   0.99000   0.00000  Uiso   1.00
F462   F     0.40934   0.00596   0.73820   0.00000  Uiso   1.00
H463   H     0.60152   0.32982   0.75401   0.00000  Uiso   1.00
H464   H     0.48990   0.12494   0.70812   0.00000  Uiso   1.00
H465   H     0.51009   0.20840   0.79187   0.00000  Uiso   1.00
H466   H     0.49762   0.04670   0.93621   0.00000  Uiso   1.00
H467   H     0.59745   0.05510   0.98670   0.00000  Uiso   1.00
H468   H     0.34726   0.25813   0.90916   0.00000  Uiso   1.00
H469   H     0.43139   0.31087   0.96547   0.00000  Uiso   1.00
I470   I     0.36367   0.06771   0.58590   0.00000  Uiso   1.00
I471   I     0.54568   0.25302   0.60701   0.00000  Uiso   1.00
I472   I     0.36724   0.05484   0.89818   0.00000  Uiso   1.00
N473   N     0.47827   0.15223   0.73542   0.00000  Uiso   1.00
N474   N     0.52173   0.18110   0.76457   0.00000  Uiso   1.00
O475   O     0.63102   0.24629   0.75357   0.00000  Uiso   1.00
O476   O     0.39075   0.23704   0.74423   0.00000  Uiso   1.00
O477   O     0.64823   0.17358   0.83380   0.00000  Uiso   1.00
O478   O     0.40796   0.16433   0.82446   0.00000  Uiso   1.00
O479   O     0.60925   0.09629   0.75577   0.00000  Uiso   1.00
O480   O     0.36898   0.08704   0.74642   0.00000  Uiso   1.00
O481   O     0.59204   0.16901   0.67554   0.00000  Uiso   1.00
O482   O     0.35177   0.15976   0.66620   0.00000  Uiso   1.00
Zn483  Zn    0.60453   0.17284   0.75624   0.00000  Uiso   1.00
Zn484  Zn    0.39547   0.16049   0.74376   0.00000  Uiso   1.00
C485   C     0.68142   0.26476   0.74788   0.00000  Uiso   1.00
C486   C     0.72350   0.18680   0.91458   0.00000  Uiso   1.00
C487   C     0.68919   0.31886   0.74493   0.00000  Uiso   1.00
C488   C     0.70254   0.17156   0.85521   0.00000  Uiso   1.00
C489   C     0.97733   0.01365   0.74929   0.00000  Uiso   1.00
C490   C     0.98480   0.06833   0.74990   0.00000  Uiso   1.00
C491   C     0.96439   0.16357   0.64453   0.00000  Uiso   1.00
C492   C     0.92325   0.09239   0.50526   0.00000  Uiso   1.00
C493   C     0.94511   0.15692   0.58351   0.00000  Uiso   1.00
C494   C     0.71756   0.23880   0.92991   0.00000  Uiso   1.00
C495   C     0.76565   0.26924   0.96046   0.00000  Uiso   1.00
C496   C     0.81791   0.19224   0.97724   0.00000  Uiso   1.00
C497   C     0.81750   0.24687   0.97826   0.00000  Uiso   1.00
C498   C     0.77048   0.16169   0.94290   0.00000  Uiso   1.00
C499   C     0.86555   0.16709   0.50521   0.00000  Uiso   1.00
C500   C     0.87295   0.11617   0.98443   0.00000  Uiso   1.00
C501   C     0.82726   0.08715   0.94792   0.00000  Uiso   1.00
C502   C     0.77419   0.10793   0.93219   0.00000  Uiso   1.00
C503   C     0.90068   0.18683   0.55750   0.00000  Uiso   1.00
C504   C     0.96041   0.11303   0.55420   0.00000  Uiso   1.00
F505   F     0.86785   0.27843   0.99000   0.00000  Uiso   1.00
F506   F     0.74268   0.00596   0.73820   0.00000  Uiso   1.00
H507   H     0.93485   0.32982   0.75401   0.00000  Uiso   1.00
H508   H     0.82323   0.12494   0.70812   0.00000  Uiso   1.00
H509   H     0.84343   0.20840   0.79187   0.00000  Uiso   1.00
H510   H     0.83095   0.04670   0.93621   0.00000  Uiso   1.00
H511   H     0.93078   0.05510   0.98670   0.00000  Uiso   1.00
H512   H     0.68060   0.25813   0.90916   0.00000  Uiso   1.00
H513   H     0.76472   0.31087   0.96547   0.00000  Uiso   1.00
I514   I     0.69700   0.06771   0.58590   0.00000  Uiso   1.00
I515   I     0.87902   0.25302   0.60701   0.00000  Uiso   1.00
I516   I     0.70057   0.05484   0.89818   0.00000  Uiso   1.00
N517   N     0.81160   0.15223   0.73542   0.00000  Uiso   1.00
N518   N     0.85507   0.18110   0.76457   0.00000  Uiso   1.00
O519   O     0.96435   0.24629   0.75357   0.00000  Uiso   1.00
O520   O     0.72408   0.23704   0.74423   0.00000  Uiso   1.00
O521   O     0.98157   0.17358   0.83380   0.00000  Uiso   1.00
O522   O     0.74130   0.16433   0.82446   0.00000  Uiso   1.00
O523   O     0.94258   0.09629   0.75577   0.00000  Uiso   1.00
O524   O     0.70231   0.08704   0.74642   0.00000  Uiso   1.00
O525   O     0.92537   0.16901   0.67554   0.00000  Uiso   1.00
O526   O     0.68510   0.15976   0.66620   0.00000  Uiso   1.00
Zn527  Zn    0.93786   0.17284   0.75624   0.00000  Uiso   1.00
Zn528  Zn    0.72881   0.16049   0.74376   0.00000  Uiso   1.00
C529   C     0.01475   0.59810   0.74788   0.00000  Uiso   1.00
C530   C     0.05683   0.52013   0.91458   0.00000  Uiso   1.00
C531   C     0.02253   0.65219   0.74493   0.00000  Uiso   1.00
C532   C     0.03587   0.50490   0.85521   0.00000  Uiso   1.00
C533   C     0.31067   0.34698   0.74929   0.00000  Uiso   1.00
C534   C     0.31814   0.40166   0.74990   0.00000  Uiso   1.00
C535   C     0.29773   0.49690   0.64453   0.00000  Uiso   1.00
C536   C     0.25658   0.42572   0.50526   0.00000  Uiso   1.00
C537   C     0.27844   0.49025   0.58351   0.00000  Uiso   1.00
C538   C     0.05089   0.57213   0.92991   0.00000  Uiso   1.00
C539   C     0.09898   0.60258   0.96046   0.00000  Uiso   1.00
C540   C     0.15125   0.52557   0.97724   0.00000  Uiso   1.00
C541   C     0.15083   0.58020   0.97826   0.00000  Uiso   1.00
C542   C     0.10381   0.49502   0.94290   0.00000  Uiso   1.00
C543   C     0.19889   0.50042   0.50521   0.00000  Uiso   1.00
C544   C     0.20629   0.44950   0.98443   0.00000  Uiso   1.00
C545   C     0.16060   0.42048   0.94792   0.00000  Uiso   1.00
C546   C     0.10752   0.44126   0.93219   0.00000  Uiso   1.00
C547   C     0.23401   0.52017   0.55750   0.00000  Uiso   1.00
C548   C     0.29374   0.44636   0.55420   0.00000  Uiso   1.00
F549   F     0.20118   0.61176   0.99000   0.00000  Uiso   1.00
F550   F     0.07601   0.33929   0.73820   0.00000  Uiso   1.00
H551   H     0.26818   0.66315   0.75401   0.00000  Uiso   1.00
H552   H     0.15656   0.45827   0.70812   0.00000  Uiso   1.00
H553   H     0.17676   0.54173   0.79187   0.00000  Uiso   1.00
H554   H     0.16428   0.38004   0.93621   0.00000  Uiso   1.00
H555   H     0.26411   0.38843   0.98670   0.00000  Uiso   1.00
H556   H     0.01393   0.59146   0.90916   0.00000  Uiso   1.00
H557   H     0.09806   0.64420   0.96547   0.00000  Uiso   1.00
I558   I     0.03033   0.40105   0.58590   0.00000  Uiso   1.00
I559   I     0.21235   0.58635   0.60701   0.00000  Uiso   1.00
I560   I     0.03390   0.38818   0.89818   0.00000  Uiso   1.00
N561   N     0.14493   0.48556   0.73542   0.00000  Uiso   1.00
N562   N     0.18840   0.51444   0.76457   0.00000  Uiso   1.00
O563   O     0.29769   0.57963   0.75357   0.00000  Uiso   1.00
O564   O     0.05742   0.57038   0.74423   0.00000  Uiso   1.00
O565   O     0.31490   0.50691   0.83380   0.00000  Uiso   1.00
O566   O     0.07463   0.49766   0.82446   0.00000  Uiso   1.00
O567   O     0.27592   0.42962   0.75577   0.00000  Uiso   1.00
O568   O     0.03565   0.42037   0.74642   0.00000  Uiso   1.00
O569   O     0.25870   0.50234   0.67554   0.00000  Uiso   1.00
O570   O     0.01843   0.49309   0.66620   0.00000  Uiso   1.00
Zn571  Zn    0.27119   0.50618   0.75624   0.00000  Uiso   1.00
Zn572  Zn    0.06214   0.49382   0.74376   0.00000  Uiso   1.00
C573   C     0.34808   0.59810   0.74788   0.00000  Uiso   1.00
C574   C     0.39016   0.52013   0.91458   0.00000  Uiso   1.00
C575   C     0.35586   0.65219   0.74493   0.00000  Uiso   1.00
C576   C     0.36920   0.50490   0.85521   0.00000  Uiso   1.00
C577   C     0.64400   0.34698   0.74929   0.00000  Uiso   1.00
C578   C     0.65147   0.40166   0.74990   0.00000  Uiso   1.00
C579   C     0.63106   0.49690   0.64453   0.00000  Uiso   1.00
C580   C     0.58992   0.42572   0.50526   0.00000  Uiso   1.00
C581   C     0.61177   0.49025   0.58351   0.00000  Uiso   1.00
C582   C     0.38422   0.57213   0.92991   0.00000  Uiso   1.00
C583   C     0.43232   0.60258   0.96046   0.00000  Uiso   1.00
C584   C     0.48458   0.52557   0.97724   0.00000  Uiso   1.00
C585   C     0.48417   0.58020   0.97826   0.00000  Uiso   1.00
C586   C     0.43714   0.49502   0.94290   0.00000  Uiso   1.00
C587   C     0.53222   0.50042   0.50521   0.00000  Uiso   1.00
C588   C     0.53962   0.44950   0.98443   0.00000  Uiso   1.00
C589   C     0.49393   0.42048   0.94792   0.00000  Uiso   1.00
C590   C     0.44086   0.44126   0.93219   0.00000  Uiso   1.00
C591   C     0.56735   0.52017   0.55750   0.00000  Uiso   1.00
C592   C     0.62707   0.44636   0.55420   0.00000  Uiso   1.00
F593   F     0.53452   0.61176   0.99000   0.00000  Uiso   1.00
F594   F     0.40934   0.33929   0.73820   0.00000  Uiso   1.00
H595   H     0.60152   0.66315   0.75401   0.00000  Uiso   1.00
H596   H     0.48990   0.45827   0.70812   0.00000  Uiso   1.00
H597   H     0.51009   0.54173   0.79187   0.00000  Uiso   1.00
H598   H     0.49762   0.38004   0.93621   0.00000  Uiso   1.00
H599   H     0.59745   0.38843   0.98670   0.00000  Uiso   1.00
H600   H     0.34726   0.59146   0.90916   0.00000  Uiso   1.00
H601   H     0.43139   0.64420   0.96547   0.00000  Uiso   1.00
I602   I     0.36367   0.40105   0.58590   0.00000  Uiso   1.00
I603   I     0.54568   0.58635   0.60701   0.00000  Uiso   1.00
I604   I     0.36724   0.38818   0.89818   0.00000  Uiso   1.00
N605   N     0.47827   0.48556   0.73542   0.00000  Uiso   1.00
N606   N     0.52173   0.51444   0.76457   0.00000  Uiso   1.00
O607   O     0.63102   0.57963   0.75357   0.00000  Uiso   1.00
O608   O     0.39075   0.57038   0.74423   0.00000  Uiso   1.00
O609   O     0.64823   0.50691   0.83380   0.00000  Uiso   1.00
O610   O     0.40796   0.49766   0.82446   0.00000  Uiso   1.00
O611   O     0.60925   0.42962   0.75577   0.00000  Uiso   1.00
O612   O     0.36898   0.42037   0.74642   0.00000  Uiso   1.00
O613   O     0.59204   0.50234   0.67554   0.00000  Uiso   1.00
O614   O     0.35177   0.49309   0.66620   0.00000  Uiso   1.00
Zn615  Zn    0.60453   0.50618   0.75624   0.00000  Uiso   1.00
Zn616  Zn    0.39547   0.49382   0.74376   0.00000  Uiso   1.00
C617   C     0.68142   0.59810   0.74788   0.00000  Uiso   1.00
C618   C     0.72350   0.52013   0.91458   0.00000  Uiso   1.00
C619   C     0.68919   0.65219   0.74493   0.00000  Uiso   1.00
C620   C     0.70254   0.50490   0.85521   0.00000  Uiso   1.00
C621   C     0.97733   0.34698   0.74929   0.00000  Uiso   1.00
C622   C     0.98480   0.40166   0.74990   0.00000  Uiso   1.00
C623   C     0.96439   0.49690   0.64453   0.00000  Uiso   1.00
C624   C     0.92325   0.42572   0.50526   0.00000  Uiso   1.00
C625   C     0.94511   0.49025   0.58351   0.00000  Uiso   1.00
C626   C     0.71756   0.57213   0.92991   0.00000  Uiso   1.00
C627   C     0.76565   0.60258   0.96046   0.00000  Uiso   1.00
C628   C     0.81791   0.52557   0.97724   0.00000  Uiso   1.00
C629   C     0.81750   0.58020   0.97826   0.00000  Uiso   1.00
C630   C     0.77048   0.49502   0.94290   0.00000  Uiso   1.00
C631   C     0.86555   0.50042   0.50521   0.00000  Uiso   1.00
C632   C     0.87295   0.44950   0.98443   0.00000  Uiso   1.00
C633   C     0.82726   0.42048   0.94792   0.00000  Uiso   1.00
C634   C     0.77419   0.44126   0.93219   0.00000  Uiso   1.00
C635   C     0.90068   0.52017   0.55750   0.00000  Uiso   1.00
C636   C     0.96041   0.44636   0.55420   0.00000  Uiso   1.00
F637   F     0.86785   0.61176   0.99000   0.00000  Uiso   1.00
F638   F     0.74268   0.33929   0.73820   0.00000  Uiso   1.00
H639   H     0.93485   0.66315   0.75401   0.00000  Uiso   1.00
H640   H     0.82323   0.45827   0.70812   0.00000  Uiso   1.00
H641   H     0.84343   0.54173   0.79187   0.00000  Uiso   1.00
H642   H     0.83095   0.38004   0.93621   0.00000  Uiso   1.00
H643   H     0.93078   0.38843   0.98670   0.00000  Uiso   1.00
H644   H     0.68060   0.59146   0.90916   0.00000  Uiso   1.00
H645   H     0.76472   0.64420   0.96547   0.00000  Uiso   1.00
I646   I     0.69700   0.40105   0.58590   0.00000  Uiso   1.00
I647   I     0.87902   0.58635   0.60701   0.00000  Uiso   1.00
I648   I     0.70057   0.38818   0.89818   0.00000  Uiso   1.00
N649   N     0.81160   0.48556   0.73542   0.00000  Uiso   1.00
N650   N     0.85507   0.51444   0.76457   0.00000  Uiso   1.00
O651   O     0.96435   0.57963   0.75357   0.00000  Uiso   1.00
O652   O     0.72408   0.57038   0.74423   0.00000  Uiso   1.00
O653   O     0.98157   0.50691   0.83380   0.00000  Uiso   1.00
O654   O     0.74130   0.49766   0.82446   0.00000  Uiso   1.00
O655   O     0.94258   0.42962   0.75577   0.00000  Uiso   1.00
O656   O     0.70231   0.42037   0.74642   0.00000  Uiso   1.00
O657   O     0.92537   0.50234   0.67554   0.00000  Uiso   1.00
O658   O     0.68510   0.49309   0.66620   0.00000  Uiso   1.00
Zn659  Zn    0.93786   0.50618   0.75624   0.00000  Uiso   1.00
Zn660  Zn    0.72881   0.49382   0.74376   0.00000  Uiso   1.00
C661   C     0.01475   0.93143   0.74788   0.00000  Uiso   1.00
C662   C     0.05683   0.85347   0.91458   0.00000  Uiso   1.00
C663   C     0.02253   0.98552   0.74493   0.00000  Uiso   1.00
C664   C     0.03587   0.83823   0.85521   0.00000  Uiso   1.00
C665   C     0.31067   0.68031   0.74929   0.00000  Uiso   1.00
C666   C     0.31814   0.73499   0.74990   0.00000  Uiso   1.00
C667   C     0.29773   0.83024   0.64453   0.00000  Uiso   1.00
C668   C     0.25658   0.75906   0.50526   0.00000  Uiso   1.00
C669   C     0.27844   0.82358   0.58351   0.00000  Uiso   1.00
C670   C     0.05089   0.90547   0.92991   0.00000  Uiso   1.00
C671   C     0.09898   0.93591   0.96046   0.00000  Uiso   1.00
C672   C     0.15125   0.85890   0.97724   0.00000  Uiso   1.00
C673   C     0.15083   0.91354   0.97826   0.00000  Uiso   1.00
C674   C     0.10381   0.82836   0.94290   0.00000  Uiso   1.00
C675   C     0.19889   0.83375   0.50521   0.00000  Uiso   1.00
C676   C     0.20629   0.78284   0.98443   0.00000  Uiso   1.00
C677   C     0.16060   0.75382   0.94792   0.00000  Uiso   1.00
C678   C     0.10752   0.77460   0.93219   0.00000  Uiso   1.00
C679   C     0.23401   0.85350   0.55750   0.00000  Uiso   1.00
C680   C     0.29374   0.77970   0.55420   0.00000  Uiso   1.00
F681   F     0.20118   0.94509   0.99000   0.00000  Uiso   1.00
F682   F     0.07601   0.67262   0.73820   0.00000  Uiso   1.00
H683   H     0.26818   0.99648   0.75401   0.00000  Uiso   1.00
H684   H     0.15656   0.79161   0.70812   0.00000  Uiso   1.00
H685   H     0.17676   0.87506   0.79187   0.00000  Uiso   1.00
H686   H     0.16428   0.71337   0.93621   0.00000  Uiso   1.00
H687   H     0.26411   0.72176   0.98670   0.00000  Uiso   1.00
H688   H     0.01393   0.92479   0.90916   0.00000  Uiso   1.00
H689   H     0.09806   0.97753   0.96547   0.00000  Uiso   1.00
I690   I     0.03033   0.73438   0.58590   0.00000  Uiso   1.00
I691   I     0.21235   0.91969   0.60701   0.00000  Uiso   1.00
I692   I     0.03390   0.72151   0.89818   0.00000  Uiso   1.00
N693   N     0.14493   0.81890   0.73542   0.00000  Uiso   1.00
N694   N     0.18840   0.84777   0.76457   0.00000  Uiso   1.00
O695   O     0.29769   0.91296   0.75357   0.00000  Uiso   1.00
O696   O     0.05742   0.90371   0.74423   0.00000  Uiso   1.00
O697   O     0.31490   0.84024   0.83380   0.00000  Uiso   1.00
O698   O     0.07463   0.83099   0.82446   0.00000  Uiso   1.00
O699   O     0.27592   0.76296   0.75577   0.00000  Uiso   1.00
O700   O     0.03565   0.75371   0.74642   0.00000  Uiso   1.00
O701   O     0.25870   0.83567   0.67554   0.00000  Uiso   1.00
O702   O     0.01843   0.82642   0.66620   0.00000  Uiso   1.00
Zn703  Zn    0.27119   0.83951   0.75624   0.00000  Uiso   1.00
Zn704  Zn    0.06214   0.82716   0.74376   0.00000  Uiso   1.00
C705   C     0.34808   0.93143   0.74788   0.00000  Uiso   1.00
C706   C     0.39016   0.85347   0.91458   0.00000  Uiso   1.00
C707   C     0.35586   0.98552   0.74493   0.00000  Uiso   1.00
C708   C     0.36920   0.83823   0.85521   0.00000  Uiso   1.00
C709   C     0.64400   0.68031   0.74929   0.00000  Uiso   1.00
C710   C     0.65147   0.73499   0.74990   0.00000  Uiso   1.00
C711   C     0.63106   0.83024   0.64453   0.00000  Uiso   1.00
C712   C     0.58992   0.75906   0.50526   0.00000  Uiso   1.00
C713   C     0.61177   0.82358   0.58351   0.00000  Uiso   1.00
C714   C     0.38422   0.90547   0.92991   0.00000  Uiso   1.00
C715   C     0.43232   0.93591   0.96046   0.00000  Uiso   1.00
C716   C     0.48458   0.85890   0.97724   0.00000  Uiso   1.00
C717   C     0.48417   0.91354   0.97826   0.00000  Uiso   1.00
C718   C     0.43714   0.82836   0.94290   0.00000  Uiso   1.00
C719   C     0.53222   0.83375   0.50521   0.00000  Uiso   1.00
C720   C     0.53962   0.78284   0.98443   0.00000  Uiso   1.00
C721   C     0.49393   0.75382   0.94792   0.00000  Uiso   1.00
C722   C     0.44086   0.77460   0.93219   0.00000  Uiso   1.00
C723   C     0.56735   0.85350   0.55750   0.00000  Uiso   1.00
C724   C     0.62707   0.77970   0.55420   0.00000  Uiso   1.00
F725   F     0.53452   0.94509   0.99000   0.00000  Uiso   1.00
F726   F     0.40934   0.67262   0.73820   0.00000  Uiso   1.00
H727   H     0.60152   0.99648   0.75401   0.00000  Uiso   1.00
H728   H     0.48990   0.79161   0.70812   0.00000  Uiso   1.00
H729   H     0.51009   0.87506   0.79187   0.00000  Uiso   1.00
H730   H     0.49762   0.71337   0.93621   0.00000  Uiso   1.00
H731   H     0.59745   0.72176   0.98670   0.00000  Uiso   1.00
H732   H     0.34726   0.92479   0.90916   0.00000  Uiso   1.00
H733   H     0.43139   0.97753   0.96547   0.00000  Uiso   1.00
I734   I     0.36367   0.73438   0.58590   0.00000  Uiso   1.00
I735   I     0.54568   0.91969   0.60701   0.00000  Uiso   1.00
I736   I     0.36724   0.72151   0.89818   0.00000  Uiso   1.00
N737   N     0.47827   0.81890   0.73542   0.00000  Uiso   1.00
N738   N     0.52173   0.84777   0.76457   0.00000  Uiso   1.00
O739   O     0.63102   0.91296   0.75357   0.00000  Uiso   1.00
O740   O     0.39075   0.90371   0.74423   0.00000  Uiso   1.00
O741   O     0.64823   0.84024   0.83380   0.00000  Uiso   1.00
O742   O     0.40796   0.83099   0.82446   0.00000  Uiso   1.00
O743   O     0.60925   0.76296   0.75577   0.00000  Uiso   1.00
O744   O     0.36898   0.75371   0.74642   0.00000  Uiso   1.00
O745   O     0.59204   0.83567   0.67554   0.00000  Uiso   1.00
O746   O     0.35177   0.82642   0.66620   0.00000  Uiso   1.00
Zn747  Zn    0.60453   0.83951   0.75624   0.00000  Uiso   1.00
Zn748  Zn    0.39547   0.82716   0.74376   0.00000  Uiso   1.00
C749   C     0.68142   0.93143   0.74788   0.00000  Uiso   1.00
C750   C     0.72350   0.85347   0.91458   0.00000  Uiso   1.00
C751   C     0.68919   0.98552   0.74493   0.00000  Uiso   1.00
C752   C     0.70254   0.83823   0.85521   0.00000  Uiso   1.00
C753   C     0.97733   0.68031   0.74929   0.00000  Uiso   1.00
C754   C     0.98480   0.73499   0.74990   0.00000  Uiso   1.00
C755   C     0.96439   0.83024   0.64453   0.00000  Uiso   1.00
C756   C     0.92325   0.75906   0.50526   0.00000  Uiso   1.00
C757   C     0.94511   0.82358   0.58351   0.00000  Uiso   1.00
C758   C     0.71756   0.90547   0.92991   0.00000  Uiso   1.00
C759   C     0.76565   0.93591   0.96046   0.00000  Uiso   1.00
C760   C     0.81791   0.85890   0.97724   0.00000  Uiso   1.00
C761   C     0.81750   0.91354   0.97826   0.00000  Uiso   1.00
C762   C     0.77048   0.82836   0.94290   0.00000  Uiso   1.00
C763   C     0.86555   0.83375   0.50521   0.00000  Uiso   1.00
C764   C     0.87295   0.78284   0.98443   0.00000  Uiso   1.00
C765   C     0.82726   0.75382   0.94792   0.00000  Uiso   1.00
C766   C     0.77419   0.77460   0.93219   0.00000  Uiso   1.00
C767   C     0.90068   0.85350   0.55750   0.00000  Uiso   1.00
C768   C     0.96041   0.77970   0.55420   0.00000  Uiso   1.00
F769   F     0.86785   0.94509   0.99000   0.00000  Uiso   1.00
F770   F     0.74268   0.67262   0.73820   0.00000  Uiso   1.00
H771   H     0.93485   0.99648   0.75401   0.00000  Uiso   1.00
H772   H     0.82323   0.79161   0.70812   0.00000  Uiso   1.00
H773   H     0.84343   0.87506   0.79187   0.00000  Uiso   1.00
H774   H     0.83095   0.71337   0.93621   0.00000  Uiso   1.00
H775   H     0.93078   0.72176   0.98670   0.00000  Uiso   1.00
H776   H     0.68060   0.92479   0.90916   0.00000  Uiso   1.00
H777   H     0.76472   0.97753   0.96547   0.00000  Uiso   1.00
I778   I     0.69700   0.73438   0.58590   0.00000  Uiso   1.00
I779   I     0.87902   0.91969   0.60701   0.00000  Uiso   1.00
I780   I     0.70057   0.72151   0.89818   0.00000  Uiso   1.00
N781   N     0.81160   0.81890   0.73542   0.00000  Uiso   1.00
N782   N     0.85507   0.84777   0.76457   0.00000  Uiso   1.00
O783   O     0.96435   0.91296   0.75357   0.00000  Uiso   1.00
O784   O     0.72408   0.90371   0.74423   0.00000  Uiso   1.00
O785   O     0.98157   0.84024   0.83380   0.00000  Uiso   1.00
O786   O     0.74130   0.83099   0.82446   0.00000  Uiso   1.00
O787   O     0.94258   0.76296   0.75577   0.00000  Uiso   1.00
O788   O     0.70231   0.75371   0.74642   0.00000  Uiso   1.00
O789   O     0.92537   0.83567   0.67554   0.00000  Uiso   1.00
O790   O     0.68510   0.82642   0.66620   0.00000  Uiso   1.00
Zn791  Zn    0.93786   0.83951   0.75624   0.00000  Uiso   1.00
Zn792  Zn    0.72881   0.82716   0.74376   0.00000  Uiso   1.00
loop_
_geom_bond_atom_site_label_1
_geom_bond_atom_site_label_2
_geom_bond_distance
_geom_bond_site_symmetry_2
_ccdc_geom_bond_type
C1     O36     1.288   .     A
C1     C3      1.402   .     S
C1     O123    1.275   1_455 S
C2     C4      1.448   .     S
C2     C14     1.402   .     A
C2     C10     1.401   .     A
C3     C225    1.347   1_455 S
C3     F154    1.365   .     S
C4     O38     1.296   .     A
C4     O125    1.286   1_455 S
C5     C6      1.409   .     S
C5     C311    1.347   1_545 S
C5     H287    1.087   1_545 S
C6     O39     1.294   .     A
C6     O84     1.271   .     S
C7     O41     1.298   .     A
C7     C9      1.453   .     S
C7     O86     1.289   .     S
C8     C20     1.385   .     A
C8     C412    1.391   1_554 S
C8     H423    1.084   1_554 S
C9     C20     1.413   .     A
C9     C19     1.412   .     A
C10    C11     1.389   .     A
C10    H28     1.084   .     S
C11    C13     1.389   .     A
C11    H29     1.079   .     S
C12    C13     1.411   .     A
C12    C14     1.415   .     A
C12    C411    1.411   .     S
C13    F21     1.358   .     S
C14    C18     1.413   .     A
C15    C19     1.418   .     A
C15    C408    1.411   1_554 S
C15    C412    1.420   1_554 S
C16    C17     1.394   .     A
C16    C404    1.391   .     S
C16    C411    1.420   .     S
C17    H26     1.084   .     S
C17    C18     1.386   .     A
C18    I32     2.129   .     S
C19    I31     2.186   .     S
C20    I74     2.131   .     S
F22    C267    1.365   1_545 S
H23    C137    1.087   .     S
H24    N33     1.029   .     S
H25    N34     1.029   .     S
H27    C404    1.084   .     S
I30    C108    2.131   1_455 S
N33    N34     1.286   .     D
N33    Zn44    2.016   .     S
N34    Zn43    2.016   .     S
O35    Zn43    1.958   .     S
O35    C45     1.275   .     S
O36    Zn44    1.988   .     S
O37    Zn43    1.953   .     S
O37    C48     1.286   .     S
O38    Zn44    1.909   .     S
O39    Zn43    1.988   .     S
O40    Zn44    1.958   .     S
O40    C94     1.271   1_455 S
O41    Zn43    1.909   .     S
O42    Zn44    1.953   .     S
O42    C95     1.289   1_455 S
C45    O80     1.288   .     A
C45    C47     1.402   .     S
C46    C48     1.448   .     S
C46    C58     1.402   .     A
C46    C54     1.401   .     A
C47    C137    1.347   .     S
C47    F198    1.365   .     S
C48    O82     1.296   .     A
C49    C50     1.409   .     S
C49    C355    1.347   1_545 S
C49    H331    1.087   1_545 S
C50    O83     1.294   .     A
C50    O128    1.271   .     S
C51    O85     1.298   .     A
C51    C53     1.453   .     S
C51    O130    1.289   .     S
C52    C64     1.385   .     A
C52    C456    1.391   1_554 S
C52    H467    1.084   1_554 S
C53    C64     1.413   .     A
C53    C63     1.412   .     A
C54    C55     1.389   .     A
C54    H72     1.084   .     S
C55    C57     1.389   .     A
C55    H73     1.079   .     S
C56    C57     1.411   .     A
C56    C58     1.415   .     A
C56    C455    1.411   .     S
C57    F65     1.358   .     S
C58    C62     1.413   .     A
C59    C63     1.418   .     A
C59    C452    1.411   1_554 S
C59    C456    1.420   1_554 S
C60    C61     1.394   .     A
C60    C448    1.391   .     S
C60    C455    1.420   .     S
C61    H70     1.084   .     S
C61    C62     1.386   .     A
C62    I76     2.129   .     S
C63    I75     2.186   .     S
C64    I118    2.131   .     S
F66    C311    1.365   1_545 S
H67    C181    1.087   .     S
H68    N77     1.029   .     S
H69    N78     1.029   .     S
H71    C448    1.084   .     S
N77    N78     1.286   .     D
N77    Zn88    2.016   .     S
N78    Zn87    2.016   .     S
O79    Zn87    1.958   .     S
O79    C89     1.275   .     S
O80    Zn88    1.988   .     S
O81    Zn87    1.953   .     S
O81    C92     1.286   .     S
O82    Zn88    1.909   .     S
O83    Zn87    1.988   .     S
O84    Zn88    1.958   .     S
O85    Zn87    1.909   .     S
O86    Zn88    1.953   .     S
C89    O124    1.288   .     A
C89    C91     1.402   .     S
C90    C92     1.448   .     S
C90    C102    1.402   .     A
C90    C98     1.401   .     A
C91    C181    1.347   .     S
C91    F242    1.365   .     S
C92    O126    1.296   .     A
C93    C94     1.409   .     S
C93    C267    1.347   1_645 S
C93    H375    1.087   1_545 S
C94    O127    1.294   .     A
C94    O40     1.271   1_655 S
C95    O129    1.298   .     A
C95    C97     1.453   .     S
C95    O42     1.289   1_655 S
C96    C108    1.385   .     A
C96    C500    1.391   1_554 S
C96    H511    1.084   1_554 S
C97    C108    1.413   .     A
C97    C107    1.412   .     A
C98    C99     1.389   .     A
C98    H116    1.084   .     S
C99    C101    1.389   .     A
C99    H117    1.079   .     S
C100   C101    1.411   .     A
C100   C102    1.415   .     A
C100   C499    1.411   .     S
C101   F109    1.358   .     S
C102   C106    1.413   .     A
C103   C107    1.418   .     A
C103   C496    1.411   1_554 S
C103   C500    1.420   1_554 S
C104   C105    1.394   .     A
C104   C492    1.391   .     S
C104   C499    1.420   .     S
C105   H114    1.084   .     S
C105   C106    1.386   .     A
C106   I120    2.129   .     S
C107   I119    2.186   .     S
C108   I30     2.131   1_655 S
F110   C355    1.365   1_545 S
H111   C225    1.087   .     S
H112   N121    1.029   .     S
H113   N122    1.029   .     S
H115   C492    1.084   .     S
N121   N122    1.286   .     D
N121   Zn132   2.016   .     S
N122   Zn131   2.016   .     S
O123   Zn131   1.958   .     S
O123   C1      1.275   1_655 S
O124   Zn132   1.988   .     S
O125   Zn131   1.953   .     S
O125   C4      1.286   1_655 S
O126   Zn132   1.909   .     S
O127   Zn131   1.988   .     S
O128   Zn132   1.958   .     S
O129   Zn131   1.909   .     S
O130   Zn132   1.953   .     S
C133   O168    1.288   .     A
C133   C135    1.402   .     S
C133   O255    1.275   1_455 S
C134   C136    1.448   .     S
C134   C146    1.402   .     A
C134   C142    1.401   .     A
C135   C357    1.347   1_455 S
C135   F286    1.365   .     S
C136   O170    1.296   .     A
C136   O257    1.286   1_455 S
C137   C138    1.409   .     S
C138   O171    1.294   .     A
C138   O216    1.271   .     S
C139   O173    1.298   .     A
C139   C141    1.453   .     S
C139   O218    1.289   .     S
C140   C152    1.385   .     A
C140   C544    1.391   1_554 S
C140   H555    1.084   1_554 S
C141   C152    1.413   .     A
C141   C151    1.412   .     A
C142   C143    1.389   .     A
C142   H160    1.084   .     S
C143   C145    1.389   .     A
C143   H161    1.079   .     S
C144   C145    1.411   .     A
C144   C146    1.415   .     A
C144   C543    1.411   .     S
C145   F153    1.358   .     S
C146   C150    1.413   .     A
C147   C151    1.418   .     A
C147   C540    1.411   1_554 S
C147   C544    1.420   1_554 S
C148   C149    1.394   .     A
C148   C536    1.391   .     S
C148   C543    1.420   .     S
C149   H158    1.084   .     S
C149   C150    1.386   .     A
C150   I164    2.129   .     S
C151   I163    2.186   .     S
C152   I206    2.131   .     S
H155   C269    1.087   .     S
H156   N165    1.029   .     S
H157   N166    1.029   .     S
H159   C536    1.084   .     S
I162   C240    2.131   1_455 S
N165   N166    1.286   .     D
N165   Zn176   2.016   .     S
N166   Zn175   2.016   .     S
O167   Zn175   1.958   .     S
O167   C177    1.275   .     S
O168   Zn176   1.988   .     S
O169   Zn175   1.953   .     S
O169   C180    1.286   .     S
O170   Zn176   1.909   .     S
O171   Zn175   1.988   .     S
O172   Zn176   1.958   .     S
O172   C226    1.271   1_455 S
O173   Zn175   1.909   .     S
O174   Zn176   1.953   .     S
O174   C227    1.289   1_455 S
C177   O212    1.288   .     A
C177   C179    1.402   .     S
C178   C180    1.448   .     S
C178   C190    1.402   .     A
C178   C186    1.401   .     A
C179   C269    1.347   .     S
C179   F330    1.365   .     S
C180   O214    1.296   .     A
C181   C182    1.409   .     S
C182   O215    1.294   .     A
C182   O260    1.271   .     S
C183   O217    1.298   .     A
C183   C185    1.453   .     S
C183   O262    1.289   .     S
C184   C196    1.385   .     A
C184   C588    1.391   1_554 S
C184   H599    1.084   1_554 S
C185   C196    1.413   .     A
C185   C195    1.412   .     A
C186   C187    1.389   .     A
C186   H204    1.084   .     S
C187   C189    1.389   .     A
C187   H205    1.079   .     S
C188   C189    1.411   .     A
C188   C190    1.415   .     A
C188   C587    1.411   .     S
C189   F197    1.358   .     S
C190   C194    1.413   .     A
C191   C195    1.418   .     A
C191   C584    1.411   1_554 S
C191   C588    1.420   1_554 S
C192   C193    1.394   .     A
C192   C580    1.391   .     S
C192   C587    1.420   .     S
C193   H202    1.084   .     S
C193   C194    1.386   .     A
C194   I208    2.129   .     S
C195   I207    2.186   .     S
C196   I250    2.131   .     S
H199   C313    1.087   .     S
H200   N209    1.029   .     S
H201   N210    1.029   .     S
H203   C580    1.084   .     S
N209   N210    1.286   .     D
N209   Zn220   2.016   .     S
N210   Zn219   2.016   .     S
O211   Zn219   1.958   .     S
O211   C221    1.275   .     S
O212   Zn220   1.988   .     S
O213   Zn219   1.953   .     S
O213   C224    1.286   .     S
O214   Zn220   1.909   .     S
O215   Zn219   1.988   .     S
O216   Zn220   1.958   .     S
O217   Zn219   1.909   .     S
O218   Zn220   1.953   .     S
C221   O256    1.288   .     A
C221   C223    1.402   .     S
C222   C224    1.448   .     S
C222   C234    1.402   .     A
C222   C230    1.401   .     A
C223   C313    1.347   .     S
C223   F374    1.365   .     S
C224   O258    1.296   .     A
C225   C226    1.409   .     S
C225   C3      1.347   1_655 S
C226   O259    1.294   .     A
C226   O172    1.271   1_655 S
C227   O261    1.298   .     A
C227   C229    1.453   .     S
C227   O174    1.289   1_655 S
C228   C240    1.385   .     A
C228   C632    1.391   1_554 S
C228   H643    1.084   1_554 S
C229   C240    1.413   .     A
C229   C239    1.412   .     A
C230   C231    1.389   .     A
C230   H248    1.084   .     S
C231   C233    1.389   .     A
C231   H249    1.079   .     S
C232   C233    1.411   .     A
C232   C234    1.415   .     A
C232   C631    1.411   .     S
C233   F241    1.358   .     S
C234   C238    1.413   .     A
C235   C239    1.418   .     A
C235   C628    1.411   1_554 S
C235   C632    1.420   1_554 S
C236   C237    1.394   .     A
C236   C624    1.391   .     S
C236   C631    1.420   .     S
C237   H246    1.084   .     S
C237   C238    1.386   .     A
C238   I252    2.129   .     S
C239   I251    2.186   .     S
C240   I162    2.131   1_655 S
H243   C357    1.087   .     S
H244   N253    1.029   .     S
H245   N254    1.029   .     S
H247   C624    1.084   .     S
N253   N254    1.286   .     D
N253   Zn264   2.016   .     S
N254   Zn263   2.016   .     S
O255   Zn263   1.958   .     S
O255   C133    1.275   1_655 S
O256   Zn264   1.988   .     S
O257   Zn263   1.953   .     S
O257   C136    1.286   1_655 S
O258   Zn264   1.909   .     S
O259   Zn263   1.988   .     S
O260   Zn264   1.958   .     S
O261   Zn263   1.909   .     S
O262   Zn264   1.953   .     S
C265   O300    1.288   .     A
C265   C267    1.402   .     S
C265   O387    1.275   1_455 S
C266   C268    1.448   .     S
C266   C278    1.402   .     A
C266   C274    1.401   .     A
C267   C93     1.347   1_465 S
C267   F22     1.365   1_565 S
C268   O302    1.296   .     A
C268   O389    1.286   1_455 S
C269   C270    1.409   .     S
C270   O303    1.294   .     A
C270   O348    1.271   .     S
C271   O305    1.298   .     A
C271   C273    1.453   .     S
C271   O350    1.289   .     S
C272   C284    1.385   .     A
C272   C676    1.391   1_554 S
C272   H687    1.084   1_554 S
C273   C284    1.413   .     A
C273   C283    1.412   .     A
C274   C275    1.389   .     A
C274   H292    1.084   .     S
C275   C277    1.389   .     A
C275   H293    1.079   .     S
C276   C277    1.411   .     A
C276   C278    1.415   .     A
C276   C675    1.411   .     S
C277   F285    1.358   .     S
C278   C282    1.413   .     A
C279   C283    1.418   .     A
C279   C672    1.411   1_554 S
C279   C676    1.420   1_554 S
C280   C281    1.394   .     A
C280   C668    1.391   .     S
C280   C675    1.420   .     S
C281   H290    1.084   .     S
C281   C282    1.386   .     A
C282   I296    2.129   .     S
C283   I295    2.186   .     S
C284   I338    2.131   .     S
H287   C5      1.087   1_565 S
H288   N297    1.029   .     S
H289   N298    1.029   .     S
H291   C668    1.084   .     S
I294   C372    2.131   1_455 S
N297   N298    1.286   .     D
N297   Zn308   2.016   .     S
N298   Zn307   2.016   .     S
O299   Zn307   1.958   .     S
O299   C309    1.275   .     S
O300   Zn308   1.988   .     S
O301   Zn307   1.953   .     S
O301   C312    1.286   .     S
O302   Zn308   1.909   .     S
O303   Zn307   1.988   .     S
O304   Zn308   1.958   .     S
O304   C358    1.271   1_455 S
O305   Zn307   1.909   .     S
O306   Zn308   1.953   .     S
O306   C359    1.289   1_455 S
C309   O344    1.288   .     A
C309   C311    1.402   .     S
C310   C312    1.448   .     S
C310   C322    1.402   .     A
C310   C318    1.401   .     A
C311   C5      1.347   1_565 S
C311   F66     1.365   1_565 S
C312   O346    1.296   .     A
C313   C314    1.409   .     S
C314   O347    1.294   .     A
C314   O392    1.271   .     S
C315   O349    1.298   .     A
C315   C317    1.453   .     S
C315   O394    1.289   .     S
C316   C328    1.385   .     A
C316   C720    1.391   1_554 S
C316   H731    1.084   1_554 S
C317   C328    1.413   .     A
C317   C327    1.412   .     A
C318   C319    1.389   .     A
C318   H336    1.084   .     S
C319   C321    1.389   .     A
C319   H337    1.079   .     S
C320   C321    1.411   .     A
C320   C322    1.415   .     A
C320   C719    1.411   .     S
C321   F329    1.358   .     S
C322   C326    1.413   .     A
C323   C327    1.418   .     A
C323   C716    1.411   1_554 S
C323   C720    1.420   1_554 S
C324   C325    1.394   .     A
C324   C712    1.391   .     S
C324   C719    1.420   .     S
C325   H334    1.084   .     S
C325   C326    1.386   .     A
C326   I340    2.129   .     S
C327   I339    2.186   .     S
C328   I382    2.131   .     S
H331   C49     1.087   1_565 S
H332   N341    1.029   .     S
H333   N342    1.029   .     S
H335   C712    1.084   .     S
N341   N342    1.286   .     D
N341   Zn352   2.016   .     S
N342   Zn351   2.016   .     S
O343   Zn351   1.958   .     S
O343   C353    1.275   .     S
O344   Zn352   1.988   .     S
O345   Zn351   1.953   .     S
O345   C356    1.286   .     S
O346   Zn352   1.909   .     S
O347   Zn351   1.988   .     S
O348   Zn352   1.958   .     S
O349   Zn351   1.909   .     S
O350   Zn352   1.953   .     S
C353   O388    1.288   .     A
C353   C355    1.402   .     S
C354   C356    1.448   .     S
C354   C366    1.402   .     A
C354   C362    1.401   .     A
C355   C49     1.347   1_565 S
C355   F110    1.365   1_565 S
C356   O390    1.296   .     A
C357   C358    1.409   .     S
C357   C135    1.347   1_655 S
C358   O391    1.294   .     A
C358   O304    1.271   1_655 S
C359   O393    1.298   .     A
C359   C361    1.453   .     S
C359   O306    1.289   1_655 S
C360   C372    1.385   .     A
C360   C764    1.391   1_554 S
C360   H775    1.084   1_554 S
C361   C372    1.413   .     A
C361   C371    1.412   .     A
C362   C363    1.389   .     A
C362   H380    1.084   .     S
C363   C365    1.389   .     A
C363   H381    1.079   .     S
C364   C365    1.411   .     A
C364   C366    1.415   .     A
C364   C763    1.411   .     S
C365   F373    1.358   .     S
C366   C370    1.413   .     A
C367   C371    1.418   .     A
C367   C760    1.411   1_554 S
C367   C764    1.420   1_554 S
C368   C369    1.394   .     A
C368   C756    1.391   .     S
C368   C763    1.420   .     S
C369   H378    1.084   .     S
C369   C370    1.386   .     A
C370   I384    2.129   .     S
C371   I383    2.186   .     S
C372   I294    2.131   1_655 S
H375   C93     1.087   1_565 S
H376   N385    1.029   .     S
H377   N386    1.029   .     S
H379   C756    1.084   .     S
N385   N386    1.286   .     D
N385   Zn396   2.016   .     S
N386   Zn395   2.016   .     S
O387   Zn395   1.958   .     S
O387   C265    1.275   1_655 S
O388   Zn396   1.988   .     S
O389   Zn395   1.953   .     S
O389   C268    1.286   1_655 S
O390   Zn396   1.909   .     S
O391   Zn395   1.988   .     S
O392   Zn396   1.958   .     S
O393   Zn395   1.909   .     S
O394   Zn396   1.953   .     S
C397   O432    1.288   .     A
C397   C399    1.402   .     S
C397   O519    1.275   1_455 S
C398   C400    1.448   .     S
C398   C410    1.402   .     A
C398   C406    1.401   .     A
C399   C621    1.347   1_455 S
C399   F550    1.365   .     S
C400   O434    1.296   .     A
C400   O521    1.286   1_455 S
C401   C402    1.409   .     S
C401   C707    1.347   1_545 S
C401   H683    1.087   1_545 S
C402   O435    1.294   .     A
C402   O480    1.271   .     S
C403   O437    1.298   .     A
C403   C405    1.453   .     S
C403   O482    1.289   .     S
C404   C416    1.385   .     A
C405   C416    1.413   .     A
C405   C415    1.412   .     A
C406   C407    1.389   .     A
C406   H424    1.084   .     S
C407   C409    1.389   .     A
C407   H425    1.079   .     S
C408   C409    1.411   .     A
C408   C410    1.415   .     A
C408   C15     1.411   1_556 S
C409   F417    1.358   .     S
C410   C414    1.413   .     A
C411   C415    1.418   .     A
C412   C413    1.394   .     A
C412   C8      1.391   1_556 S
C412   C15     1.420   1_556 S
C413   H422    1.084   .     S
C413   C414    1.386   .     A
C414   I428    2.129   .     S
C415   I427    2.186   .     S
C416   I470    2.131   .     S
F418   C663    1.365   1_545 S
H419   C533    1.087   .     S
H420   N429    1.029   .     S
H421   N430    1.029   .     S
H423   C8      1.084   1_556 S
I426   C504    2.131   1_455 S
N429   N430    1.286   .     D
N429   Zn440   2.016   .     S
N430   Zn439   2.016   .     S
O431   Zn439   1.958   .     S
O431   C441    1.275   .     S
O432   Zn440   1.988   .     S
O433   Zn439   1.953   .     S
O433   C444    1.286   .     S
O434   Zn440   1.909   .     S
O435   Zn439   1.988   .     S
O436   Zn440   1.958   .     S
O436   C490    1.271   1_455 S
O437   Zn439   1.909   .     S
O438   Zn440   1.953   .     S
O438   C491    1.289   1_455 S
C441   O476    1.288   .     A
C441   C443    1.402   .     S
C442   C444    1.448   .     S
C442   C454    1.402   .     A
C442   C450    1.401   .     A
C443   C533    1.347   .     S
C443   F594    1.365   .     S
C444   O478    1.296   .     A
C445   C446    1.409   .     S
C445   C751    1.347   1_545 S
C445   H727    1.087   1_545 S
C446   O479    1.294   .     A
C446   O524    1.271   .     S
C447   O481    1.298   .     A
C447   C449    1.453   .     S
C447   O526    1.289   .     S
C448   C460    1.385   .     A
C449   C460    1.413   .     A
C449   C459    1.412   .     A
C450   C451    1.389   .     A
C450   H468    1.084   .     S
C451   C453    1.389   .     A
C451   H469    1.079   .     S
C452   C453    1.411   .     A
C452   C454    1.415   .     A
C452   C59     1.411   1_556 S
C453   F461    1.358   .     S
C454   C458    1.413   .     A
C455   C459    1.418   .     A
C456   C457    1.394   .     A
C456   C52     1.391   1_556 S
C456   C59     1.420   1_556 S
C457   H466    1.084   .     S
C457   C458    1.386   .     A
C458   I472    2.129   .     S
C459   I471    2.186   .     S
C460   I514    2.131   .     S
F462   C707    1.365   1_545 S
H463   C577    1.087   .     S
H464   N473    1.029   .     S
H465   N474    1.029   .     S
H467   C52     1.084   1_556 S
N473   N474    1.286   .     D
N473   Zn484   2.016   .     S
N474   Zn483   2.016   .     S
O475   Zn483   1.958   .     S
O475   C485    1.275   .     S
O476   Zn484   1.988   .     S
O477   Zn483   1.953   .     S
O477   C488    1.286   .     S
O478   Zn484   1.909   .     S
O479   Zn483   1.988   .     S
O480   Zn484   1.958   .     S
O481   Zn483   1.909   .     S
O482   Zn484   1.953   .     S
C485   O520    1.288   .     A
C485   C487    1.402   .     S
C486   C488    1.448   .     S
C486   C498    1.402   .     A
C486   C494    1.401   .     A
C487   C577    1.347   .     S
C487   F638    1.365   .     S
C488   O522    1.296   .     A
C489   C490    1.409   .     S
C489   C663    1.347   1_645 S
C489   H771    1.087   1_545 S
C490   O523    1.294   .     A
C490   O436    1.271   1_655 S
C491   O525    1.298   .     A
C491   C493    1.453   .     S
C491   O438    1.289   1_655 S
C492   C504    1.385   .     A
C493   C504    1.413   .     A
C493   C503    1.412   .     A
C494   C495    1.389   .     A
C494   H512    1.084   .     S
C495   C497    1.389   .     A
C495   H513    1.079   .     S
C496   C497    1.411   .     A
C496   C498    1.415   .     A
C496   C103    1.411   1_556 S
C497   F505    1.358   .     S
C498   C502    1.413   .     A
C499   C503    1.418   .     A
C500   C501    1.394   .     A
C500   C96     1.391   1_556 S
C500   C103    1.420   1_556 S
C501   H510    1.084   .     S
C501   C502    1.386   .     A
C502   I516    2.129   .     S
C503   I515    2.186   .     S
C504   I426    2.131   1_655 S
F506   C751    1.365   1_545 S
H507   C621    1.087   .     S
H508   N517    1.029   .     S
H509   N518    1.029   .     S
H511   C96     1.084   1_556 S
N517   N518    1.286   .     D
N517   Zn528   2.016   .     S
N518   Zn527   2.016   .     S
O519   Zn527   1.958   .     S
O519   C397    1.275   1_655 S
O520   Zn528   1.988   .     S
O521   Zn527   1.953   .     S
O521   C400    1.286   1_655 S
O522   Zn528   1.909   .     S
O523   Zn527   1.988   .     S
O524   Zn528   1.958   .     S
O525   Zn527   1.909   .     S
O526   Zn528   1.953   .     S
C529   O564    1.288   .     A
C529   C531    1.402   .     S
C529   O651    1.275   1_455 S
C530   C532    1.448   .     S
C530   C542    1.402   .     A
C530   C538    1.401   .     A
C531   C753    1.347   1_455 S
C531   F682    1.365   .     S
C532   O566    1.296   .     A
C532   O653    1.286   1_455 S
C533   C534    1.409   .     S
C534   O567    1.294   .     A
C534   O612    1.271   .     S
C535   O569    1.298   .     A
C535   C537    1.453   .     S
C535   O614    1.289   .     S
C536   C548    1.385   .     A
C537   C548    1.413   .     A
C537   C547    1.412   .     A
C538   C539    1.389   .     A
C538   H556    1.084   .     S
C539   C541    1.389   .     A
C539   H557    1.079   .     S
C540   C541    1.411   .     A
C540   C542    1.415   .     A
C540   C147    1.411   1_556 S
C541   F549    1.358   .     S
C542   C546    1.413   .     A
C543   C547    1.418   .     A
C544   C545    1.394   .     A
C544   C140    1.391   1_556 S
C544   C147    1.420   1_556 S
C545   H554    1.084   .     S
C545   C546    1.386   .     A
C546   I560    2.129   .     S
C547   I559    2.186   .     S
C548   I602    2.131   .     S
H551   C665    1.087   .     S
H552   N561    1.029   .     S
H553   N562    1.029   .     S
H555   C140    1.084   1_556 S
I558   C636    2.131   1_455 S
N561   N562    1.286   .     D
N561   Zn572   2.016   .     S
N562   Zn571   2.016   .     S
O563   Zn571   1.958   .     S
O563   C573    1.275   .     S
O564   Zn572   1.988   .     S
O565   Zn571   1.953   .     S
O565   C576    1.286   .     S
O566   Zn572   1.909   .     S
O567   Zn571   1.988   .     S
O568   Zn572   1.958   .     S
O568   C622    1.271   1_455 S
O569   Zn571   1.909   .     S
O570   Zn572   1.953   .     S
O570   C623    1.289   1_455 S
C573   O608    1.288   .     A
C573   C575    1.402   .     S
C574   C576    1.448   .     S
C574   C586    1.402   .     A
C574   C582    1.401   .     A
C575   C665    1.347   .     S
C575   F726    1.365   .     S
C576   O610    1.296   .     A
C577   C578    1.409   .     S
C578   O611    1.294   .     A
C578   O656    1.271   .     S
C579   O613    1.298   .     A
C579   C581    1.453   .     S
C579   O658    1.289   .     S
C580   C592    1.385   .     A
C581   C592    1.413   .     A
C581   C591    1.412   .     A
C582   C583    1.389   .     A
C582   H600    1.084   .     S
C583   C585    1.389   .     A
C583   H601    1.079   .     S
C584   C585    1.411   .     A
C584   C586    1.415   .     A
C584   C191    1.411   1_556 S
C585   F593    1.358   .     S
C586   C590    1.413   .     A
C587   C591    1.418   .     A
C588   C589    1.394   .     A
C588   C184    1.391   1_556 S
C588   C191    1.420   1_556 S
C589   H598    1.084   .     S
C589   C590    1.386   .     A
C590   I604    2.129   .     S
C591   I603    2.186   .     S
C592   I646    2.131   .     S
H595   C709    1.087   .     S
H596   N605    1.029   .     S
H597   N606    1.029   .     S
H599   C184    1.084   1_556 S
N605   N606    1.286   .     D
N605   Zn616   2.016   .     S
N606   Zn615   2.016   .     S
O607   Zn615   1.958   .     S
O607   C617    1.275   .     S
O608   Zn616   1.988   .     S
O609   Zn615   1.953   .     S
O609   C620    1.286   .     S
O610   Zn616   1.909   .     S
O611   Zn615   1.988   .     S
O612   Zn616   1.958   .     S
O613   Zn615   1.909   .     S
O614   Zn616   1.953   .     S
C617   O652    1.288   .     A
C617   C619    1.402   .     S
C618   C620    1.448   .     S
C618   C630    1.402   .     A
C618   C626    1.401   .     A
C619   C709    1.347   .     S
C619   F770    1.365   .     S
C620   O654    1.296   .     A
C621   C622    1.409   .     S
C621   C399    1.347   1_655 S
C622   O655    1.294   .     A
C622   O568    1.271   1_655 S
C623   O657    1.298   .     A
C623   C625    1.453   .     S
C623   O570    1.289   1_655 S
C624   C636    1.385   .     A
C625   C636    1.413   .     A
C625   C635    1.412   .     A
C626   C627    1.389   .     A
C626   H644    1.084   .     S
C627   C629    1.389   .     A
C627   H645    1.079   .     S
C628   C629    1.411   .     A
C628   C630    1.415   .     A
C628   C235    1.411   1_556 S
C629   F637    1.358   .     S
C630   C634    1.413   .     A
C631   C635    1.418   .     A
C632   C633    1.394   .     A
C632   C228    1.391   1_556 S
C632   C235    1.420   1_556 S
C633   H642    1.084   .     S
C633   C634    1.386   .     A
C634   I648    2.129   .     S
C635   I647    2.186   .     S
C636   I558    2.131   1_655 S
H639   C753    1.087   .     S
H640   N649    1.029   .     S
H641   N650    1.029   .     S
H643   C228    1.084   1_556 S
N649   N650    1.286   .     D
N649   Zn660   2.016   .     S
N650   Zn659   2.016   .     S
O651   Zn659   1.958   .     S
O651   C529    1.275   1_655 S
O652   Zn660   1.988   .     S
O653   Zn659   1.953   .     S
O653   C532    1.286   1_655 S
O654   Zn660   1.909   .     S
O655   Zn659   1.988   .     S
O656   Zn660   1.958   .     S
O657   Zn659   1.909   .     S
O658   Zn660   1.953   .     S
C661   O696    1.288   .     A
C661   C663    1.402   .     S
C661   O783    1.275   1_455 S
C662   C664    1.448   .     S
C662   C674    1.402   .     A
C662   C670    1.401   .     A
C663   C489    1.347   1_465 S
C663   F418    1.365   1_565 S
C664   O698    1.296   .     A
C664   O785    1.286   1_455 S
C665   C666    1.409   .     S
C666   O699    1.294   .     A
C666   O744    1.271   .     S
C667   O701    1.298   .     A
C667   C669    1.453   .     S
C667   O746    1.289   .     S
C668   C680    1.385   .     A
C669   C680    1.413   .     A
C669   C679    1.412   .     A
C670   C671    1.389   .     A
C670   H688    1.084   .     S
C671   C673    1.389   .     A
C671   H689    1.079   .     S
C672   C673    1.411   .     A
C672   C674    1.415   .     A
C672   C279    1.411   1_556 S
C673   F681    1.358   .     S
C674   C678    1.413   .     A
C675   C679    1.418   .     A
C676   C677    1.394   .     A
C676   C272    1.391   1_556 S
C676   C279    1.420   1_556 S
C677   H686    1.084   .     S
C677   C678    1.386   .     A
C678   I692    2.129   .     S
C679   I691    2.186   .     S
C680   I734    2.131   .     S
H683   C401    1.087   1_565 S
H684   N693    1.029   .     S
H685   N694    1.029   .     S
H687   C272    1.084   1_556 S
I690   C768    2.131   1_455 S
N693   N694    1.286   .     D
N693   Zn704   2.016   .     S
N694   Zn703   2.016   .     S
O695   Zn703   1.958   .     S
O695   C705    1.275   .     S
O696   Zn704   1.988   .     S
O697   Zn703   1.953   .     S
O697   C708    1.286   .     S
O698   Zn704   1.909   .     S
O699   Zn703   1.988   .     S
O700   Zn704   1.958   .     S
O700   C754    1.271   1_455 S
O701   Zn703   1.909   .     S
O702   Zn704   1.953   .     S
O702   C755    1.289   1_455 S
C705   O740    1.288   .     A
C705   C707    1.402   .     S
C706   C708    1.448   .     S
C706   C718    1.402   .     A
C706   C714    1.401   .     A
C707   C401    1.347   1_565 S
C707   F462    1.365   1_565 S
C708   O742    1.296   .     A
C709   C710    1.409   .     S
C710   O743    1.294   .     A
C710   O788    1.271   .     S
C711   O745    1.298   .     A
C711   C713    1.453   .     S
C711   O790    1.289   .     S
C712   C724    1.385   .     A
C713   C724    1.413   .     A
C713   C723    1.412   .     A
C714   C715    1.389   .     A
C714   H732    1.084   .     S
C715   C717    1.389   .     A
C715   H733    1.079   .     S
C716   C717    1.411   .     A
C716   C718    1.415   .     A
C716   C323    1.411   1_556 S
C717   F725    1.358   .     S
C718   C722    1.413   .     A
C719   C723    1.418   .     A
C720   C721    1.394   .     A
C720   C316    1.391   1_556 S
C720   C323    1.420   1_556 S
C721   H730    1.084   .     S
C721   C722    1.386   .     A
C722   I736    2.129   .     S
C723   I735    2.186   .     S
C724   I778    2.131   .     S
H727   C445    1.087   1_565 S
H728   N737    1.029   .     S
H729   N738    1.029   .     S
H731   C316    1.084   1_556 S
N737   N738    1.286   .     D
N737   Zn748   2.016   .     S
N738   Zn747   2.016   .     S
O739   Zn747   1.958   .     S
O739   C749    1.275   .     S
O740   Zn748   1.988   .     S
O741   Zn747   1.953   .     S
O741   C752    1.286   .     S
O742   Zn748   1.909   .     S
O743   Zn747   1.988   .     S
O744   Zn748   1.958   .     S
O745   Zn747   1.909   .     S
O746   Zn748   1.953   .     S
C749   O784    1.288   .     A
C749   C751    1.402   .     S
C750   C752    1.448   .     S
C750   C762    1.402   .     A
C750   C758    1.401   .     A
C751   C445    1.347   1_565 S
C751   F506    1.365   1_565 S
C752   O786    1.296   .     A
C753   C754    1.409   .     S
C753   C531    1.347   1_655 S
C754   O787    1.294   .     A
C754   O700    1.271   1_655 S
C755   O789    1.298   .     A
C755   C757    1.453   .     S
C755   O702    1.289   1_655 S
C756   C768    1.385   .     A
C757   C768    1.413   .     A
C757   C767    1.412   .     A
C758   C759    1.389   .     A
C758   H776    1.084   .     S
C759   C761    1.389   .     A
C759   H777    1.079   .     S
C760   C761    1.411   .     A
C760   C762    1.415   .     A
C760   C367    1.411   1_556 S
C761   F769    1.358   .     S
C762   C766    1.413   .     A
C763   C767    1.418   .     A
C764   C765    1.394   .     A
C764   C360    1.391   1_556 S
C764   C367    1.420   1_556 S
C765   H774    1.084   .     S
C765   C766    1.386   .     A
C766   I780    2.129   .     S
C767   I779    2.186   .     S
C768   I690    2.131   1_655 S
H771   C489    1.087   1_565 S
H772   N781    1.029   .     S
H773   N782    1.029   .     S
H775   C360    1.084   1_556 S
N781   N782    1.286   .     D
N781   Zn792   2.016   .     S
N782   Zn791   2.016   .     S
O783   Zn791   1.958   .     S
O783   C661    1.275   1_655 S
O784   Zn792   1.988   .     S
O785   Zn791   1.953   .     S
O785   C664    1.286   1_655 S
O786   Zn792   1.909   .     S
O787   Zn791   1.988   .     S
O788   Zn792   1.958   .     S
O789   Zn791   1.909   .     S
O790   Zn792   1.953   .     S
