data_str_m3_o10_o16_pcu_sym.85
_audit_creation_date              2020-01-03
_audit_creation_method            'Materials Studio'
_symmetry_space_group_name_H-M    'P1'
_symmetry_Int_Tables_number       1
_symmetry_cell_setting            triclinic
loop_
_symmetry_equiv_pos_as_xyz
  x,y,z
_cell_length_a                    23.4672
_cell_length_b                    25.6847
_cell_length_c                    24.2352
_cell_angle_alpha                 92.3293
_cell_angle_beta                  101.1753
_cell_angle_gamma                 94.1271
loop_
_atom_site_label
_atom_site_type_symbol
_atom_site_fract_x
_atom_site_fract_y
_atom_site_fract_z
_atom_site_U_iso_or_equiv
_atom_site_adp_type
_atom_site_occupancy
C1     C     0.01364   0.26458   0.24516   0.00000  Uiso   1.00
C2     C     0.05300   0.16799   0.41599   0.00000  Uiso   1.00
C3     C     0.02010   0.31920   0.24274   0.00000  Uiso   1.00
C4     C     0.03533   0.16788   0.35514   0.00000  Uiso   1.00
C5     C     0.30615   0.01372   0.23405   0.00000  Uiso   1.00
C6     C     0.31733   0.06827   0.24755   0.00000  Uiso   1.00
C7     C     0.29745   0.16275   0.14486   0.00000  Uiso   1.00
C8     C     0.27018   0.09571   0.00179   0.00000  Uiso   1.00
C9     C     0.27660   0.15218   0.08514   0.00000  Uiso   1.00
C10    C     0.02424   0.19826   0.44977   0.00000  Uiso   1.00
C11    C     0.04790   0.20825   0.00655   0.00000  Uiso   1.00
C12    C     0.13195   0.16114   0.49502   0.00000  Uiso   1.00
C13    C     0.10186   0.19089   0.02905   0.00000  Uiso   1.00
C14    C     0.24651   0.32579   0.20421   0.00000  Uiso   1.00
C15    C     0.10349   0.14438   0.44004   0.00000  Uiso   1.00
C16    C     0.18946   0.14768   0.01355   0.00000  Uiso   1.00
C17    C     0.21391   0.11074   0.48164   0.00000  Uiso   1.00
C18    C     0.18140   0.08877   0.43079   0.00000  Uiso   1.00
C19    C     0.12680   0.10546   0.41005   0.00000  Uiso   1.00
C20    C     0.22375   0.17092   0.06269   0.00000  Uiso   1.00
C21    C     0.30100   0.11545   0.05437   0.00000  Uiso   1.00
H22    H     0.00892   0.10047   0.07191   0.00000  Uiso   1.00
H23    H     0.10276   0.08720   0.37054   0.00000  Uiso   1.00
H24    H     0.06432   0.00354   0.25722   0.00000  Uiso   1.00
H25    H     0.24070   0.28985   0.17787   0.00000  Uiso   1.00
H26    H     0.15660   0.12504   0.20816   0.00000  Uiso   1.00
H27    H     0.17673   0.20832   0.29181   0.00000  Uiso   1.00
H28    H     0.19857   0.05942   0.40656   0.00000  Uiso   1.00
H29    H     0.28912   0.06720   0.47811   0.00000  Uiso   1.00
H30    H     0.20907   0.20225   0.08607   0.00000  Uiso   1.00
H31    H     0.31788   0.21564   0.43190   0.00000  Uiso   1.00
H32    H     0.11829   0.20018   0.07336   0.00000  Uiso   1.00
H33    H     0.02542   0.23115   0.03277   0.00000  Uiso   1.00
N34    N     0.14493   0.15223   0.23543   0.00000  Uiso   1.00
N35    N     0.18840   0.18110   0.26458   0.00000  Uiso   1.00
O36    O     0.29769   0.24629   0.25358   0.00000  Uiso   1.00
O37    O     0.05742   0.23704   0.24424   0.00000  Uiso   1.00
O38    O     0.31490   0.17358   0.33380   0.00000  Uiso   1.00
O39    O     0.07463   0.16433   0.32446   0.00000  Uiso   1.00
O40    O     0.27592   0.09629   0.25577   0.00000  Uiso   1.00
O41    O     0.03565   0.08704   0.24643   0.00000  Uiso   1.00
O42    O     0.25870   0.16901   0.17554   0.00000  Uiso   1.00
O43    O     0.01843   0.15976   0.16620   0.00000  Uiso   1.00
O44    O     0.20345   0.01541   0.20775   0.00000  Uiso   1.00
Zn45   Zn    0.27119   0.17284   0.25624   0.00000  Uiso   1.00
Zn46   Zn    0.06214   0.16049   0.24377   0.00000  Uiso   1.00
C47    C     0.34697   0.26458   0.24516   0.00000  Uiso   1.00
C48    C     0.38633   0.16799   0.41599   0.00000  Uiso   1.00
C49    C     0.35343   0.31920   0.24274   0.00000  Uiso   1.00
C50    C     0.36866   0.16788   0.35514   0.00000  Uiso   1.00
C51    C     0.63948   0.01372   0.23405   0.00000  Uiso   1.00
C52    C     0.65066   0.06827   0.24755   0.00000  Uiso   1.00
C53    C     0.63079   0.16275   0.14486   0.00000  Uiso   1.00
C54    C     0.60352   0.09571   0.00179   0.00000  Uiso   1.00
C55    C     0.60993   0.15218   0.08514   0.00000  Uiso   1.00
C56    C     0.35757   0.19826   0.44977   0.00000  Uiso   1.00
C57    C     0.38123   0.20825   0.00655   0.00000  Uiso   1.00
C58    C     0.46528   0.16114   0.49502   0.00000  Uiso   1.00
C59    C     0.43519   0.19089   0.02905   0.00000  Uiso   1.00
C60    C     0.57984   0.32579   0.20421   0.00000  Uiso   1.00
C61    C     0.43682   0.14438   0.44004   0.00000  Uiso   1.00
C62    C     0.52279   0.14768   0.01355   0.00000  Uiso   1.00
C63    C     0.54725   0.11074   0.48164   0.00000  Uiso   1.00
C64    C     0.51473   0.08877   0.43079   0.00000  Uiso   1.00
C65    C     0.46014   0.10546   0.41005   0.00000  Uiso   1.00
C66    C     0.55708   0.17092   0.06269   0.00000  Uiso   1.00
C67    C     0.63434   0.11545   0.05437   0.00000  Uiso   1.00
H68    H     0.34226   0.10047   0.07191   0.00000  Uiso   1.00
H69    H     0.43609   0.08720   0.37054   0.00000  Uiso   1.00
H70    H     0.39765   0.00354   0.25722   0.00000  Uiso   1.00
H71    H     0.57403   0.28985   0.17787   0.00000  Uiso   1.00
H72    H     0.48994   0.12504   0.20816   0.00000  Uiso   1.00
H73    H     0.51006   0.20832   0.29181   0.00000  Uiso   1.00
H74    H     0.53190   0.05942   0.40656   0.00000  Uiso   1.00
H75    H     0.62246   0.06720   0.47811   0.00000  Uiso   1.00
H76    H     0.54240   0.20225   0.08607   0.00000  Uiso   1.00
H77    H     0.65122   0.21564   0.43190   0.00000  Uiso   1.00
H78    H     0.45162   0.20018   0.07336   0.00000  Uiso   1.00
H79    H     0.35875   0.23115   0.03277   0.00000  Uiso   1.00
N80    N     0.47827   0.15223   0.23543   0.00000  Uiso   1.00
N81    N     0.52173   0.18110   0.26458   0.00000  Uiso   1.00
O82    O     0.63102   0.24629   0.25358   0.00000  Uiso   1.00
O83    O     0.39075   0.23704   0.24424   0.00000  Uiso   1.00
O84    O     0.64823   0.17358   0.33380   0.00000  Uiso   1.00
O85    O     0.40796   0.16433   0.32446   0.00000  Uiso   1.00
O86    O     0.60925   0.09629   0.25577   0.00000  Uiso   1.00
O87    O     0.36898   0.08704   0.24643   0.00000  Uiso   1.00
O88    O     0.59204   0.16901   0.17554   0.00000  Uiso   1.00
O89    O     0.35177   0.15976   0.16620   0.00000  Uiso   1.00
O90    O     0.53679   0.01541   0.20775   0.00000  Uiso   1.00
Zn91   Zn    0.60453   0.17284   0.25624   0.00000  Uiso   1.00
Zn92   Zn    0.39547   0.16049   0.24377   0.00000  Uiso   1.00
C93    C     0.68031   0.26458   0.24516   0.00000  Uiso   1.00
C94    C     0.71966   0.16799   0.41599   0.00000  Uiso   1.00
C95    C     0.68676   0.31920   0.24274   0.00000  Uiso   1.00
C96    C     0.70200   0.16788   0.35514   0.00000  Uiso   1.00
C97    C     0.97282   0.01372   0.23405   0.00000  Uiso   1.00
C98    C     0.98399   0.06827   0.24755   0.00000  Uiso   1.00
C99    C     0.96412   0.16275   0.14486   0.00000  Uiso   1.00
C100   C     0.93685   0.09571   0.00179   0.00000  Uiso   1.00
C101   C     0.94326   0.15218   0.08514   0.00000  Uiso   1.00
C102   C     0.69091   0.19826   0.44977   0.00000  Uiso   1.00
C103   C     0.71456   0.20825   0.00655   0.00000  Uiso   1.00
C104   C     0.79861   0.16114   0.49502   0.00000  Uiso   1.00
C105   C     0.76853   0.19089   0.02905   0.00000  Uiso   1.00
C106   C     0.91318   0.32579   0.20421   0.00000  Uiso   1.00
C107   C     0.77015   0.14438   0.44004   0.00000  Uiso   1.00
C108   C     0.85613   0.14768   0.01355   0.00000  Uiso   1.00
C109   C     0.88058   0.11074   0.48164   0.00000  Uiso   1.00
C110   C     0.84807   0.08877   0.43079   0.00000  Uiso   1.00
C111   C     0.79347   0.10546   0.41005   0.00000  Uiso   1.00
C112   C     0.89042   0.17092   0.06269   0.00000  Uiso   1.00
C113   C     0.96767   0.11545   0.05437   0.00000  Uiso   1.00
H114   H     0.67559   0.10047   0.07191   0.00000  Uiso   1.00
H115   H     0.76942   0.08720   0.37054   0.00000  Uiso   1.00
H116   H     0.73098   0.00354   0.25722   0.00000  Uiso   1.00
H117   H     0.90737   0.28985   0.17787   0.00000  Uiso   1.00
H118   H     0.82327   0.12504   0.20816   0.00000  Uiso   1.00
H119   H     0.84340   0.20832   0.29181   0.00000  Uiso   1.00
H120   H     0.86523   0.05942   0.40656   0.00000  Uiso   1.00
H121   H     0.95579   0.06720   0.47811   0.00000  Uiso   1.00
H122   H     0.87574   0.20225   0.08607   0.00000  Uiso   1.00
H123   H     0.98455   0.21564   0.43190   0.00000  Uiso   1.00
H124   H     0.78495   0.20018   0.07336   0.00000  Uiso   1.00
H125   H     0.69208   0.23115   0.03277   0.00000  Uiso   1.00
N126   N     0.81160   0.15223   0.23543   0.00000  Uiso   1.00
N127   N     0.85507   0.18110   0.26458   0.00000  Uiso   1.00
O128   O     0.96435   0.24629   0.25358   0.00000  Uiso   1.00
O129   O     0.72408   0.23704   0.24424   0.00000  Uiso   1.00
O130   O     0.98157   0.17358   0.33380   0.00000  Uiso   1.00
O131   O     0.74130   0.16433   0.32446   0.00000  Uiso   1.00
O132   O     0.94258   0.09629   0.25577   0.00000  Uiso   1.00
O133   O     0.70231   0.08704   0.24643   0.00000  Uiso   1.00
O134   O     0.92537   0.16901   0.17554   0.00000  Uiso   1.00
O135   O     0.68510   0.15976   0.16620   0.00000  Uiso   1.00
O136   O     0.87012   0.01541   0.20775   0.00000  Uiso   1.00
Zn137  Zn    0.93786   0.17284   0.25624   0.00000  Uiso   1.00
Zn138  Zn    0.72881   0.16049   0.24377   0.00000  Uiso   1.00
C139   C     0.01364   0.59792   0.24516   0.00000  Uiso   1.00
C140   C     0.05300   0.50132   0.41599   0.00000  Uiso   1.00
C141   C     0.02010   0.65254   0.24274   0.00000  Uiso   1.00
C142   C     0.03533   0.50121   0.35514   0.00000  Uiso   1.00
C143   C     0.30615   0.34705   0.23405   0.00000  Uiso   1.00
C144   C     0.31733   0.40161   0.24755   0.00000  Uiso   1.00
C145   C     0.29745   0.49609   0.14486   0.00000  Uiso   1.00
C146   C     0.27018   0.42904   0.00179   0.00000  Uiso   1.00
C147   C     0.27660   0.48551   0.08514   0.00000  Uiso   1.00
C148   C     0.02424   0.53159   0.44977   0.00000  Uiso   1.00
C149   C     0.04790   0.54158   0.00655   0.00000  Uiso   1.00
C150   C     0.13195   0.49447   0.49502   0.00000  Uiso   1.00
C151   C     0.10186   0.52423   0.02905   0.00000  Uiso   1.00
C152   C     0.24651   0.65912   0.20421   0.00000  Uiso   1.00
C153   C     0.10349   0.47771   0.44004   0.00000  Uiso   1.00
C154   C     0.18946   0.48102   0.01355   0.00000  Uiso   1.00
C155   C     0.21391   0.44408   0.48164   0.00000  Uiso   1.00
C156   C     0.18140   0.42210   0.43079   0.00000  Uiso   1.00
C157   C     0.12680   0.43879   0.41005   0.00000  Uiso   1.00
C158   C     0.22375   0.50425   0.06269   0.00000  Uiso   1.00
C159   C     0.30100   0.44878   0.05437   0.00000  Uiso   1.00
H160   H     0.00892   0.43381   0.07191   0.00000  Uiso   1.00
H161   H     0.10276   0.42053   0.37054   0.00000  Uiso   1.00
H162   H     0.06432   0.33688   0.25722   0.00000  Uiso   1.00
H163   H     0.24070   0.62318   0.17787   0.00000  Uiso   1.00
H164   H     0.15660   0.45837   0.20816   0.00000  Uiso   1.00
H165   H     0.17673   0.54165   0.29181   0.00000  Uiso   1.00
H166   H     0.19857   0.39275   0.40656   0.00000  Uiso   1.00
H167   H     0.28912   0.40054   0.47811   0.00000  Uiso   1.00
H168   H     0.20907   0.53558   0.08607   0.00000  Uiso   1.00
H169   H     0.31788   0.54897   0.43190   0.00000  Uiso   1.00
H170   H     0.11829   0.53351   0.07336   0.00000  Uiso   1.00
H171   H     0.02542   0.56448   0.03277   0.00000  Uiso   1.00
N172   N     0.14493   0.48556   0.23543   0.00000  Uiso   1.00
N173   N     0.18840   0.51444   0.26458   0.00000  Uiso   1.00
O174   O     0.29769   0.57963   0.25358   0.00000  Uiso   1.00
O175   O     0.05742   0.57038   0.24424   0.00000  Uiso   1.00
O176   O     0.31490   0.50691   0.33380   0.00000  Uiso   1.00
O177   O     0.07463   0.49766   0.32446   0.00000  Uiso   1.00
O178   O     0.27592   0.42962   0.25577   0.00000  Uiso   1.00
O179   O     0.03565   0.42037   0.24643   0.00000  Uiso   1.00
O180   O     0.25870   0.50234   0.17554   0.00000  Uiso   1.00
O181   O     0.01843   0.49309   0.16620   0.00000  Uiso   1.00
O182   O     0.20345   0.34874   0.20775   0.00000  Uiso   1.00
Zn183  Zn    0.27119   0.50618   0.25624   0.00000  Uiso   1.00
Zn184  Zn    0.06214   0.49382   0.24377   0.00000  Uiso   1.00
C185   C     0.34697   0.59792   0.24516   0.00000  Uiso   1.00
C186   C     0.38633   0.50132   0.41599   0.00000  Uiso   1.00
C187   C     0.35343   0.65254   0.24274   0.00000  Uiso   1.00
C188   C     0.36866   0.50121   0.35514   0.00000  Uiso   1.00
C189   C     0.63948   0.34705   0.23405   0.00000  Uiso   1.00
C190   C     0.65066   0.40161   0.24755   0.00000  Uiso   1.00
C191   C     0.63079   0.49609   0.14486   0.00000  Uiso   1.00
C192   C     0.60352   0.42904   0.00179   0.00000  Uiso   1.00
C193   C     0.60993   0.48551   0.08514   0.00000  Uiso   1.00
C194   C     0.35757   0.53159   0.44977   0.00000  Uiso   1.00
C195   C     0.38123   0.54158   0.00655   0.00000  Uiso   1.00
C196   C     0.46528   0.49447   0.49502   0.00000  Uiso   1.00
C197   C     0.43519   0.52423   0.02905   0.00000  Uiso   1.00
C198   C     0.57984   0.65912   0.20421   0.00000  Uiso   1.00
C199   C     0.43682   0.47771   0.44004   0.00000  Uiso   1.00
C200   C     0.52279   0.48102   0.01355   0.00000  Uiso   1.00
C201   C     0.54725   0.44408   0.48164   0.00000  Uiso   1.00
C202   C     0.51473   0.42210   0.43079   0.00000  Uiso   1.00
C203   C     0.46014   0.43879   0.41005   0.00000  Uiso   1.00
C204   C     0.55708   0.50425   0.06269   0.00000  Uiso   1.00
C205   C     0.63434   0.44878   0.05437   0.00000  Uiso   1.00
H206   H     0.34226   0.43381   0.07191   0.00000  Uiso   1.00
H207   H     0.43609   0.42053   0.37054   0.00000  Uiso   1.00
H208   H     0.39765   0.33688   0.25722   0.00000  Uiso   1.00
H209   H     0.57403   0.62318   0.17787   0.00000  Uiso   1.00
H210   H     0.48994   0.45837   0.20816   0.00000  Uiso   1.00
H211   H     0.51006   0.54165   0.29181   0.00000  Uiso   1.00
H212   H     0.53190   0.39275   0.40656   0.00000  Uiso   1.00
H213   H     0.62246   0.40054   0.47811   0.00000  Uiso   1.00
H214   H     0.54240   0.53558   0.08607   0.00000  Uiso   1.00
H215   H     0.65122   0.54897   0.43190   0.00000  Uiso   1.00
H216   H     0.45162   0.53351   0.07336   0.00000  Uiso   1.00
H217   H     0.35875   0.56448   0.03277   0.00000  Uiso   1.00
N218   N     0.47827   0.48556   0.23543   0.00000  Uiso   1.00
N219   N     0.52173   0.51444   0.26458   0.00000  Uiso   1.00
O220   O     0.63102   0.57963   0.25358   0.00000  Uiso   1.00
O221   O     0.39075   0.57038   0.24424   0.00000  Uiso   1.00
O222   O     0.64823   0.50691   0.33380   0.00000  Uiso   1.00
O223   O     0.40796   0.49766   0.32446   0.00000  Uiso   1.00
O224   O     0.60925   0.42962   0.25577   0.00000  Uiso   1.00
O225   O     0.36898   0.42037   0.24643   0.00000  Uiso   1.00
O226   O     0.59204   0.50234   0.17554   0.00000  Uiso   1.00
O227   O     0.35177   0.49309   0.16620   0.00000  Uiso   1.00
O228   O     0.53679   0.34874   0.20775   0.00000  Uiso   1.00
Zn229  Zn    0.60453   0.50618   0.25624   0.00000  Uiso   1.00
Zn230  Zn    0.39547   0.49382   0.24377   0.00000  Uiso   1.00
C231   C     0.68031   0.59792   0.24516   0.00000  Uiso   1.00
C232   C     0.71966   0.50132   0.41599   0.00000  Uiso   1.00
C233   C     0.68676   0.65254   0.24274   0.00000  Uiso   1.00
C234   C     0.70200   0.50121   0.35514   0.00000  Uiso   1.00
C235   C     0.97282   0.34705   0.23405   0.00000  Uiso   1.00
C236   C     0.98399   0.40161   0.24755   0.00000  Uiso   1.00
C237   C     0.96412   0.49609   0.14486   0.00000  Uiso   1.00
C238   C     0.93685   0.42904   0.00179   0.00000  Uiso   1.00
C239   C     0.94326   0.48551   0.08514   0.00000  Uiso   1.00
C240   C     0.69091   0.53159   0.44977   0.00000  Uiso   1.00
C241   C     0.71456   0.54158   0.00655   0.00000  Uiso   1.00
C242   C     0.79861   0.49447   0.49502   0.00000  Uiso   1.00
C243   C     0.76853   0.52423   0.02905   0.00000  Uiso   1.00
C244   C     0.91318   0.65912   0.20421   0.00000  Uiso   1.00
C245   C     0.77015   0.47771   0.44004   0.00000  Uiso   1.00
C246   C     0.85613   0.48102   0.01355   0.00000  Uiso   1.00
C247   C     0.88058   0.44408   0.48164   0.00000  Uiso   1.00
C248   C     0.84807   0.42210   0.43079   0.00000  Uiso   1.00
C249   C     0.79347   0.43879   0.41005   0.00000  Uiso   1.00
C250   C     0.89042   0.50425   0.06269   0.00000  Uiso   1.00
C251   C     0.96767   0.44878   0.05437   0.00000  Uiso   1.00
H252   H     0.67559   0.43381   0.07191   0.00000  Uiso   1.00
H253   H     0.76942   0.42053   0.37054   0.00000  Uiso   1.00
H254   H     0.73098   0.33688   0.25722   0.00000  Uiso   1.00
H255   H     0.90737   0.62318   0.17787   0.00000  Uiso   1.00
H256   H     0.82327   0.45837   0.20816   0.00000  Uiso   1.00
H257   H     0.84340   0.54165   0.29181   0.00000  Uiso   1.00
H258   H     0.86523   0.39275   0.40656   0.00000  Uiso   1.00
H259   H     0.95579   0.40054   0.47811   0.00000  Uiso   1.00
H260   H     0.87574   0.53558   0.08607   0.00000  Uiso   1.00
H261   H     0.98455   0.54897   0.43190   0.00000  Uiso   1.00
H262   H     0.78495   0.53351   0.07336   0.00000  Uiso   1.00
H263   H     0.69208   0.56448   0.03277   0.00000  Uiso   1.00
N264   N     0.81160   0.48556   0.23543   0.00000  Uiso   1.00
N265   N     0.85507   0.51444   0.26458   0.00000  Uiso   1.00
O266   O     0.96435   0.57963   0.25358   0.00000  Uiso   1.00
O267   O     0.72408   0.57038   0.24424   0.00000  Uiso   1.00
O268   O     0.98157   0.50691   0.33380   0.00000  Uiso   1.00
O269   O     0.74130   0.49766   0.32446   0.00000  Uiso   1.00
O270   O     0.94258   0.42962   0.25577   0.00000  Uiso   1.00
O271   O     0.70231   0.42037   0.24643   0.00000  Uiso   1.00
O272   O     0.92537   0.50234   0.17554   0.00000  Uiso   1.00
O273   O     0.68510   0.49309   0.16620   0.00000  Uiso   1.00
O274   O     0.87012   0.34874   0.20775   0.00000  Uiso   1.00
Zn275  Zn    0.93786   0.50618   0.25624   0.00000  Uiso   1.00
Zn276  Zn    0.72881   0.49382   0.24377   0.00000  Uiso   1.00
C277   C     0.01364   0.93125   0.24516   0.00000  Uiso   1.00
C278   C     0.05300   0.83465   0.41599   0.00000  Uiso   1.00
C279   C     0.02010   0.98587   0.24274   0.00000  Uiso   1.00
C280   C     0.03533   0.83454   0.35514   0.00000  Uiso   1.00
C281   C     0.30615   0.68039   0.23405   0.00000  Uiso   1.00
C282   C     0.31733   0.73494   0.24755   0.00000  Uiso   1.00
C283   C     0.29745   0.82942   0.14486   0.00000  Uiso   1.00
C284   C     0.27018   0.76237   0.00179   0.00000  Uiso   1.00
C285   C     0.27660   0.81884   0.08514   0.00000  Uiso   1.00
C286   C     0.02424   0.86492   0.44977   0.00000  Uiso   1.00
C287   C     0.04790   0.87492   0.00655   0.00000  Uiso   1.00
C288   C     0.13195   0.82781   0.49502   0.00000  Uiso   1.00
C289   C     0.10186   0.85756   0.02905   0.00000  Uiso   1.00
C290   C     0.24651   0.99245   0.20421   0.00000  Uiso   1.00
C291   C     0.10349   0.81104   0.44004   0.00000  Uiso   1.00
C292   C     0.18946   0.81435   0.01355   0.00000  Uiso   1.00
C293   C     0.21391   0.77741   0.48164   0.00000  Uiso   1.00
C294   C     0.18140   0.75543   0.43079   0.00000  Uiso   1.00
C295   C     0.12680   0.77212   0.41005   0.00000  Uiso   1.00
C296   C     0.22375   0.83758   0.06269   0.00000  Uiso   1.00
C297   C     0.30100   0.78211   0.05437   0.00000  Uiso   1.00
H298   H     0.00892   0.76714   0.07191   0.00000  Uiso   1.00
H299   H     0.10276   0.75387   0.37054   0.00000  Uiso   1.00
H300   H     0.06432   0.67021   0.25722   0.00000  Uiso   1.00
H301   H     0.24070   0.95652   0.17787   0.00000  Uiso   1.00
H302   H     0.15660   0.79170   0.20816   0.00000  Uiso   1.00
H303   H     0.17673   0.87498   0.29181   0.00000  Uiso   1.00
H304   H     0.19857   0.72608   0.40656   0.00000  Uiso   1.00
H305   H     0.28912   0.73387   0.47811   0.00000  Uiso   1.00
H306   H     0.20907   0.86891   0.08607   0.00000  Uiso   1.00
H307   H     0.31788   0.88231   0.43190   0.00000  Uiso   1.00
H308   H     0.11829   0.86684   0.07336   0.00000  Uiso   1.00
H309   H     0.02542   0.89782   0.03277   0.00000  Uiso   1.00
N310   N     0.14493   0.81890   0.23543   0.00000  Uiso   1.00
N311   N     0.18840   0.84777   0.26458   0.00000  Uiso   1.00
O312   O     0.29769   0.91296   0.25358   0.00000  Uiso   1.00
O313   O     0.05742   0.90371   0.24424   0.00000  Uiso   1.00
O314   O     0.31490   0.84024   0.33380   0.00000  Uiso   1.00
O315   O     0.07463   0.83099   0.32446   0.00000  Uiso   1.00
O316   O     0.27592   0.76296   0.25577   0.00000  Uiso   1.00
O317   O     0.03565   0.75371   0.24643   0.00000  Uiso   1.00
O318   O     0.25870   0.83567   0.17554   0.00000  Uiso   1.00
O319   O     0.01843   0.82642   0.16620   0.00000  Uiso   1.00
O320   O     0.20345   0.68207   0.20775   0.00000  Uiso   1.00
Zn321  Zn    0.27119   0.83951   0.25624   0.00000  Uiso   1.00
Zn322  Zn    0.06214   0.82716   0.24377   0.00000  Uiso   1.00
C323   C     0.34697   0.93125   0.24516   0.00000  Uiso   1.00
C324   C     0.38633   0.83465   0.41599   0.00000  Uiso   1.00
C325   C     0.35343   0.98587   0.24274   0.00000  Uiso   1.00
C326   C     0.36866   0.83454   0.35514   0.00000  Uiso   1.00
C327   C     0.63948   0.68039   0.23405   0.00000  Uiso   1.00
C328   C     0.65066   0.73494   0.24755   0.00000  Uiso   1.00
C329   C     0.63079   0.82942   0.14486   0.00000  Uiso   1.00
C330   C     0.60352   0.76237   0.00179   0.00000  Uiso   1.00
C331   C     0.60993   0.81884   0.08514   0.00000  Uiso   1.00
C332   C     0.35757   0.86492   0.44977   0.00000  Uiso   1.00
C333   C     0.38123   0.87492   0.00655   0.00000  Uiso   1.00
C334   C     0.46528   0.82781   0.49502   0.00000  Uiso   1.00
C335   C     0.43519   0.85756   0.02905   0.00000  Uiso   1.00
C336   C     0.57984   0.99245   0.20421   0.00000  Uiso   1.00
C337   C     0.43682   0.81104   0.44004   0.00000  Uiso   1.00
C338   C     0.52279   0.81435   0.01355   0.00000  Uiso   1.00
C339   C     0.54725   0.77741   0.48164   0.00000  Uiso   1.00
C340   C     0.51473   0.75543   0.43079   0.00000  Uiso   1.00
C341   C     0.46014   0.77212   0.41005   0.00000  Uiso   1.00
C342   C     0.55708   0.83758   0.06269   0.00000  Uiso   1.00
C343   C     0.63434   0.78211   0.05437   0.00000  Uiso   1.00
H344   H     0.34226   0.76714   0.07191   0.00000  Uiso   1.00
H345   H     0.43609   0.75387   0.37054   0.00000  Uiso   1.00
H346   H     0.39765   0.67021   0.25722   0.00000  Uiso   1.00
H347   H     0.57403   0.95652   0.17787   0.00000  Uiso   1.00
H348   H     0.48994   0.79170   0.20816   0.00000  Uiso   1.00
H349   H     0.51006   0.87498   0.29181   0.00000  Uiso   1.00
H350   H     0.53190   0.72608   0.40656   0.00000  Uiso   1.00
H351   H     0.62246   0.73387   0.47811   0.00000  Uiso   1.00
H352   H     0.54240   0.86891   0.08607   0.00000  Uiso   1.00
H353   H     0.65122   0.88231   0.43190   0.00000  Uiso   1.00
H354   H     0.45162   0.86684   0.07336   0.00000  Uiso   1.00
H355   H     0.35875   0.89782   0.03277   0.00000  Uiso   1.00
N356   N     0.47827   0.81890   0.23543   0.00000  Uiso   1.00
N357   N     0.52173   0.84777   0.26458   0.00000  Uiso   1.00
O358   O     0.63102   0.91296   0.25358   0.00000  Uiso   1.00
O359   O     0.39075   0.90371   0.24424   0.00000  Uiso   1.00
O360   O     0.64823   0.84024   0.33380   0.00000  Uiso   1.00
O361   O     0.40796   0.83099   0.32446   0.00000  Uiso   1.00
O362   O     0.60925   0.76296   0.25577   0.00000  Uiso   1.00
O363   O     0.36898   0.75371   0.24643   0.00000  Uiso   1.00
O364   O     0.59204   0.83567   0.17554   0.00000  Uiso   1.00
O365   O     0.35177   0.82642   0.16620   0.00000  Uiso   1.00
O366   O     0.53679   0.68207   0.20775   0.00000  Uiso   1.00
Zn367  Zn    0.60453   0.83951   0.25624   0.00000  Uiso   1.00
Zn368  Zn    0.39547   0.82716   0.24377   0.00000  Uiso   1.00
C369   C     0.68031   0.93125   0.24516   0.00000  Uiso   1.00
C370   C     0.71966   0.83465   0.41599   0.00000  Uiso   1.00
C371   C     0.68676   0.98587   0.24274   0.00000  Uiso   1.00
C372   C     0.70200   0.83454   0.35514   0.00000  Uiso   1.00
C373   C     0.97282   0.68039   0.23405   0.00000  Uiso   1.00
C374   C     0.98399   0.73494   0.24755   0.00000  Uiso   1.00
C375   C     0.96412   0.82942   0.14486   0.00000  Uiso   1.00
C376   C     0.93685   0.76237   0.00179   0.00000  Uiso   1.00
C377   C     0.94326   0.81884   0.08514   0.00000  Uiso   1.00
C378   C     0.69091   0.86492   0.44977   0.00000  Uiso   1.00
C379   C     0.71456   0.87492   0.00655   0.00000  Uiso   1.00
C380   C     0.79861   0.82781   0.49502   0.00000  Uiso   1.00
C381   C     0.76853   0.85756   0.02905   0.00000  Uiso   1.00
C382   C     0.91318   0.99245   0.20421   0.00000  Uiso   1.00
C383   C     0.77015   0.81104   0.44004   0.00000  Uiso   1.00
C384   C     0.85613   0.81435   0.01355   0.00000  Uiso   1.00
C385   C     0.88058   0.77741   0.48164   0.00000  Uiso   1.00
C386   C     0.84807   0.75543   0.43079   0.00000  Uiso   1.00
C387   C     0.79347   0.77212   0.41005   0.00000  Uiso   1.00
C388   C     0.89042   0.83758   0.06269   0.00000  Uiso   1.00
C389   C     0.96767   0.78211   0.05437   0.00000  Uiso   1.00
H390   H     0.67559   0.76714   0.07191   0.00000  Uiso   1.00
H391   H     0.76942   0.75387   0.37054   0.00000  Uiso   1.00
H392   H     0.73098   0.67021   0.25722   0.00000  Uiso   1.00
H393   H     0.90737   0.95652   0.17787   0.00000  Uiso   1.00
H394   H     0.82327   0.79170   0.20816   0.00000  Uiso   1.00
H395   H     0.84340   0.87498   0.29181   0.00000  Uiso   1.00
H396   H     0.86523   0.72608   0.40656   0.00000  Uiso   1.00
H397   H     0.95579   0.73387   0.47811   0.00000  Uiso   1.00
H398   H     0.87574   0.86891   0.08607   0.00000  Uiso   1.00
H399   H     0.98455   0.88231   0.43190   0.00000  Uiso   1.00
H400   H     0.78495   0.86684   0.07336   0.00000  Uiso   1.00
H401   H     0.69208   0.89782   0.03277   0.00000  Uiso   1.00
N402   N     0.81160   0.81890   0.23543   0.00000  Uiso   1.00
N403   N     0.85507   0.84777   0.26458   0.00000  Uiso   1.00
O404   O     0.96435   0.91296   0.25358   0.00000  Uiso   1.00
O405   O     0.72408   0.90371   0.24424   0.00000  Uiso   1.00
O406   O     0.98157   0.84024   0.33380   0.00000  Uiso   1.00
O407   O     0.74130   0.83099   0.32446   0.00000  Uiso   1.00
O408   O     0.94258   0.76296   0.25577   0.00000  Uiso   1.00
O409   O     0.70231   0.75371   0.24643   0.00000  Uiso   1.00
O410   O     0.92537   0.83567   0.17554   0.00000  Uiso   1.00
O411   O     0.68510   0.82642   0.16620   0.00000  Uiso   1.00
O412   O     0.87012   0.68207   0.20775   0.00000  Uiso   1.00
Zn413  Zn    0.93786   0.83951   0.25624   0.00000  Uiso   1.00
Zn414  Zn    0.72881   0.82716   0.24377   0.00000  Uiso   1.00
C415   C     0.01364   0.26458   0.74516   0.00000  Uiso   1.00
C416   C     0.05300   0.16799   0.91599   0.00000  Uiso   1.00
C417   C     0.02010   0.31920   0.74274   0.00000  Uiso   1.00
C418   C     0.03533   0.16788   0.85514   0.00000  Uiso   1.00
C419   C     0.30615   0.01372   0.73405   0.00000  Uiso   1.00
C420   C     0.31733   0.06827   0.74755   0.00000  Uiso   1.00
C421   C     0.29745   0.16275   0.64486   0.00000  Uiso   1.00
C422   C     0.27018   0.09571   0.50179   0.00000  Uiso   1.00
C423   C     0.27660   0.15218   0.58514   0.00000  Uiso   1.00
C424   C     0.02424   0.19826   0.94977   0.00000  Uiso   1.00
C425   C     0.04790   0.20825   0.50655   0.00000  Uiso   1.00
C426   C     0.13195   0.16114   0.99502   0.00000  Uiso   1.00
C427   C     0.10186   0.19089   0.52905   0.00000  Uiso   1.00
C428   C     0.24651   0.32579   0.70421   0.00000  Uiso   1.00
C429   C     0.10349   0.14438   0.94004   0.00000  Uiso   1.00
C430   C     0.18946   0.14768   0.51355   0.00000  Uiso   1.00
C431   C     0.21391   0.11074   0.98164   0.00000  Uiso   1.00
C432   C     0.18140   0.08877   0.93079   0.00000  Uiso   1.00
C433   C     0.12680   0.10546   0.91005   0.00000  Uiso   1.00
C434   C     0.22375   0.17092   0.56269   0.00000  Uiso   1.00
C435   C     0.30100   0.11545   0.55437   0.00000  Uiso   1.00
H436   H     0.00892   0.10047   0.57191   0.00000  Uiso   1.00
H437   H     0.10276   0.08720   0.87054   0.00000  Uiso   1.00
H438   H     0.06432   0.00354   0.75722   0.00000  Uiso   1.00
H439   H     0.24070   0.28985   0.67787   0.00000  Uiso   1.00
H440   H     0.15660   0.12504   0.70816   0.00000  Uiso   1.00
H441   H     0.17673   0.20832   0.79181   0.00000  Uiso   1.00
H442   H     0.19857   0.05942   0.90656   0.00000  Uiso   1.00
H443   H     0.28912   0.06720   0.97811   0.00000  Uiso   1.00
H444   H     0.20907   0.20225   0.58607   0.00000  Uiso   1.00
H445   H     0.31788   0.21564   0.93190   0.00000  Uiso   1.00
H446   H     0.11829   0.20018   0.57336   0.00000  Uiso   1.00
H447   H     0.02542   0.23115   0.53277   0.00000  Uiso   1.00
N448   N     0.14493   0.15223   0.73543   0.00000  Uiso   1.00
N449   N     0.18840   0.18110   0.76458   0.00000  Uiso   1.00
O450   O     0.29769   0.24629   0.75358   0.00000  Uiso   1.00
O451   O     0.05742   0.23704   0.74424   0.00000  Uiso   1.00
O452   O     0.31490   0.17358   0.83380   0.00000  Uiso   1.00
O453   O     0.07463   0.16433   0.82446   0.00000  Uiso   1.00
O454   O     0.27592   0.09629   0.75577   0.00000  Uiso   1.00
O455   O     0.03565   0.08704   0.74643   0.00000  Uiso   1.00
O456   O     0.25870   0.16901   0.67554   0.00000  Uiso   1.00
O457   O     0.01843   0.15976   0.66620   0.00000  Uiso   1.00
O458   O     0.20345   0.01541   0.70775   0.00000  Uiso   1.00
Zn459  Zn    0.27119   0.17284   0.75624   0.00000  Uiso   1.00
Zn460  Zn    0.06214   0.16049   0.74377   0.00000  Uiso   1.00
C461   C     0.34697   0.26458   0.74516   0.00000  Uiso   1.00
C462   C     0.38633   0.16799   0.91599   0.00000  Uiso   1.00
C463   C     0.35343   0.31920   0.74274   0.00000  Uiso   1.00
C464   C     0.36866   0.16788   0.85514   0.00000  Uiso   1.00
C465   C     0.63948   0.01372   0.73405   0.00000  Uiso   1.00
C466   C     0.65066   0.06827   0.74755   0.00000  Uiso   1.00
C467   C     0.63079   0.16275   0.64486   0.00000  Uiso   1.00
C468   C     0.60352   0.09571   0.50179   0.00000  Uiso   1.00
C469   C     0.60993   0.15218   0.58514   0.00000  Uiso   1.00
C470   C     0.35757   0.19826   0.94977   0.00000  Uiso   1.00
C471   C     0.38123   0.20825   0.50655   0.00000  Uiso   1.00
C472   C     0.46528   0.16114   0.99502   0.00000  Uiso   1.00
C473   C     0.43519   0.19089   0.52905   0.00000  Uiso   1.00
C474   C     0.57984   0.32579   0.70421   0.00000  Uiso   1.00
C475   C     0.43682   0.14438   0.94004   0.00000  Uiso   1.00
C476   C     0.52279   0.14768   0.51355   0.00000  Uiso   1.00
C477   C     0.54725   0.11074   0.98164   0.00000  Uiso   1.00
C478   C     0.51473   0.08877   0.93079   0.00000  Uiso   1.00
C479   C     0.46014   0.10546   0.91005   0.00000  Uiso   1.00
C480   C     0.55708   0.17092   0.56269   0.00000  Uiso   1.00
C481   C     0.63434   0.11545   0.55437   0.00000  Uiso   1.00
H482   H     0.34226   0.10047   0.57191   0.00000  Uiso   1.00
H483   H     0.43609   0.08720   0.87054   0.00000  Uiso   1.00
H484   H     0.39765   0.00354   0.75722   0.00000  Uiso   1.00
H485   H     0.57403   0.28985   0.67787   0.00000  Uiso   1.00
H486   H     0.48994   0.12504   0.70816   0.00000  Uiso   1.00
H487   H     0.51006   0.20832   0.79181   0.00000  Uiso   1.00
H488   H     0.53190   0.05942   0.90656   0.00000  Uiso   1.00
H489   H     0.62246   0.06720   0.97811   0.00000  Uiso   1.00
H490   H     0.54240   0.20225   0.58607   0.00000  Uiso   1.00
H491   H     0.65122   0.21564   0.93190   0.00000  Uiso   1.00
H492   H     0.45162   0.20018   0.57336   0.00000  Uiso   1.00
H493   H     0.35875   0.23115   0.53277   0.00000  Uiso   1.00
N494   N     0.47827   0.15223   0.73543   0.00000  Uiso   1.00
N495   N     0.52173   0.18110   0.76458   0.00000  Uiso   1.00
O496   O     0.63102   0.24629   0.75358   0.00000  Uiso   1.00
O497   O     0.39075   0.23704   0.74424   0.00000  Uiso   1.00
O498   O     0.64823   0.17358   0.83380   0.00000  Uiso   1.00
O499   O     0.40796   0.16433   0.82446   0.00000  Uiso   1.00
O500   O     0.60925   0.09629   0.75577   0.00000  Uiso   1.00
O501   O     0.36898   0.08704   0.74643   0.00000  Uiso   1.00
O502   O     0.59204   0.16901   0.67554   0.00000  Uiso   1.00
O503   O     0.35177   0.15976   0.66620   0.00000  Uiso   1.00
O504   O     0.53679   0.01541   0.70775   0.00000  Uiso   1.00
Zn505  Zn    0.60453   0.17284   0.75624   0.00000  Uiso   1.00
Zn506  Zn    0.39547   0.16049   0.74377   0.00000  Uiso   1.00
C507   C     0.68031   0.26458   0.74516   0.00000  Uiso   1.00
C508   C     0.71966   0.16799   0.91599   0.00000  Uiso   1.00
C509   C     0.68676   0.31920   0.74274   0.00000  Uiso   1.00
C510   C     0.70200   0.16788   0.85514   0.00000  Uiso   1.00
C511   C     0.97282   0.01372   0.73405   0.00000  Uiso   1.00
C512   C     0.98399   0.06827   0.74755   0.00000  Uiso   1.00
C513   C     0.96412   0.16275   0.64486   0.00000  Uiso   1.00
C514   C     0.93685   0.09571   0.50179   0.00000  Uiso   1.00
C515   C     0.94326   0.15218   0.58514   0.00000  Uiso   1.00
C516   C     0.69091   0.19826   0.94977   0.00000  Uiso   1.00
C517   C     0.71456   0.20825   0.50655   0.00000  Uiso   1.00
C518   C     0.79861   0.16114   0.99502   0.00000  Uiso   1.00
C519   C     0.76853   0.19089   0.52905   0.00000  Uiso   1.00
C520   C     0.91318   0.32579   0.70421   0.00000  Uiso   1.00
C521   C     0.77015   0.14438   0.94004   0.00000  Uiso   1.00
C522   C     0.85613   0.14768   0.51355   0.00000  Uiso   1.00
C523   C     0.88058   0.11074   0.98164   0.00000  Uiso   1.00
C524   C     0.84807   0.08877   0.93079   0.00000  Uiso   1.00
C525   C     0.79347   0.10546   0.91005   0.00000  Uiso   1.00
C526   C     0.89042   0.17092   0.56269   0.00000  Uiso   1.00
C527   C     0.96767   0.11545   0.55437   0.00000  Uiso   1.00
H528   H     0.67559   0.10047   0.57191   0.00000  Uiso   1.00
H529   H     0.76942   0.08720   0.87054   0.00000  Uiso   1.00
H530   H     0.73098   0.00354   0.75722   0.00000  Uiso   1.00
H531   H     0.90737   0.28985   0.67787   0.00000  Uiso   1.00
H532   H     0.82327   0.12504   0.70816   0.00000  Uiso   1.00
H533   H     0.84340   0.20832   0.79181   0.00000  Uiso   1.00
H534   H     0.86523   0.05942   0.90656   0.00000  Uiso   1.00
H535   H     0.95579   0.06720   0.97811   0.00000  Uiso   1.00
H536   H     0.87574   0.20225   0.58607   0.00000  Uiso   1.00
H537   H     0.98455   0.21564   0.93190   0.00000  Uiso   1.00
H538   H     0.78495   0.20018   0.57336   0.00000  Uiso   1.00
H539   H     0.69208   0.23115   0.53277   0.00000  Uiso   1.00
N540   N     0.81160   0.15223   0.73543   0.00000  Uiso   1.00
N541   N     0.85507   0.18110   0.76458   0.00000  Uiso   1.00
O542   O     0.96435   0.24629   0.75358   0.00000  Uiso   1.00
O543   O     0.72408   0.23704   0.74424   0.00000  Uiso   1.00
O544   O     0.98157   0.17358   0.83380   0.00000  Uiso   1.00
O545   O     0.74130   0.16433   0.82446   0.00000  Uiso   1.00
O546   O     0.94258   0.09629   0.75577   0.00000  Uiso   1.00
O547   O     0.70231   0.08704   0.74643   0.00000  Uiso   1.00
O548   O     0.92537   0.16901   0.67554   0.00000  Uiso   1.00
O549   O     0.68510   0.15976   0.66620   0.00000  Uiso   1.00
O550   O     0.87012   0.01541   0.70775   0.00000  Uiso   1.00
Zn551  Zn    0.93786   0.17284   0.75624   0.00000  Uiso   1.00
Zn552  Zn    0.72881   0.16049   0.74377   0.00000  Uiso   1.00
C553   C     0.01364   0.59792   0.74516   0.00000  Uiso   1.00
C554   C     0.05300   0.50132   0.91599   0.00000  Uiso   1.00
C555   C     0.02010   0.65254   0.74274   0.00000  Uiso   1.00
C556   C     0.03533   0.50121   0.85514   0.00000  Uiso   1.00
C557   C     0.30615   0.34705   0.73405   0.00000  Uiso   1.00
C558   C     0.31733   0.40161   0.74755   0.00000  Uiso   1.00
C559   C     0.29745   0.49609   0.64486   0.00000  Uiso   1.00
C560   C     0.27018   0.42904   0.50179   0.00000  Uiso   1.00
C561   C     0.27660   0.48551   0.58514   0.00000  Uiso   1.00
C562   C     0.02424   0.53159   0.94977   0.00000  Uiso   1.00
C563   C     0.04790   0.54158   0.50655   0.00000  Uiso   1.00
C564   C     0.13195   0.49447   0.99502   0.00000  Uiso   1.00
C565   C     0.10186   0.52423   0.52905   0.00000  Uiso   1.00
C566   C     0.24651   0.65912   0.70421   0.00000  Uiso   1.00
C567   C     0.10349   0.47771   0.94004   0.00000  Uiso   1.00
C568   C     0.18946   0.48102   0.51355   0.00000  Uiso   1.00
C569   C     0.21391   0.44408   0.98164   0.00000  Uiso   1.00
C570   C     0.18140   0.42210   0.93079   0.00000  Uiso   1.00
C571   C     0.12680   0.43879   0.91005   0.00000  Uiso   1.00
C572   C     0.22375   0.50425   0.56269   0.00000  Uiso   1.00
C573   C     0.30100   0.44878   0.55437   0.00000  Uiso   1.00
H574   H     0.00892   0.43381   0.57191   0.00000  Uiso   1.00
H575   H     0.10276   0.42053   0.87054   0.00000  Uiso   1.00
H576   H     0.06432   0.33688   0.75722   0.00000  Uiso   1.00
H577   H     0.24070   0.62318   0.67787   0.00000  Uiso   1.00
H578   H     0.15660   0.45837   0.70816   0.00000  Uiso   1.00
H579   H     0.17673   0.54165   0.79181   0.00000  Uiso   1.00
H580   H     0.19857   0.39275   0.90656   0.00000  Uiso   1.00
H581   H     0.28912   0.40054   0.97811   0.00000  Uiso   1.00
H582   H     0.20907   0.53558   0.58607   0.00000  Uiso   1.00
H583   H     0.31788   0.54897   0.93190   0.00000  Uiso   1.00
H584   H     0.11829   0.53351   0.57336   0.00000  Uiso   1.00
H585   H     0.02542   0.56448   0.53277   0.00000  Uiso   1.00
N586   N     0.14493   0.48556   0.73543   0.00000  Uiso   1.00
N587   N     0.18840   0.51444   0.76458   0.00000  Uiso   1.00
O588   O     0.29769   0.57963   0.75358   0.00000  Uiso   1.00
O589   O     0.05742   0.57038   0.74424   0.00000  Uiso   1.00
O590   O     0.31490   0.50691   0.83380   0.00000  Uiso   1.00
O591   O     0.07463   0.49766   0.82446   0.00000  Uiso   1.00
O592   O     0.27592   0.42962   0.75577   0.00000  Uiso   1.00
O593   O     0.03565   0.42037   0.74643   0.00000  Uiso   1.00
O594   O     0.25870   0.50234   0.67554   0.00000  Uiso   1.00
O595   O     0.01843   0.49309   0.66620   0.00000  Uiso   1.00
O596   O     0.20345   0.34874   0.70775   0.00000  Uiso   1.00
Zn597  Zn    0.27119   0.50618   0.75624   0.00000  Uiso   1.00
Zn598  Zn    0.06214   0.49382   0.74377   0.00000  Uiso   1.00
C599   C     0.34697   0.59792   0.74516   0.00000  Uiso   1.00
C600   C     0.38633   0.50132   0.91599   0.00000  Uiso   1.00
C601   C     0.35343   0.65254   0.74274   0.00000  Uiso   1.00
C602   C     0.36866   0.50121   0.85514   0.00000  Uiso   1.00
C603   C     0.63948   0.34705   0.73405   0.00000  Uiso   1.00
C604   C     0.65066   0.40161   0.74755   0.00000  Uiso   1.00
C605   C     0.63079   0.49609   0.64486   0.00000  Uiso   1.00
C606   C     0.60352   0.42904   0.50179   0.00000  Uiso   1.00
C607   C     0.60993   0.48551   0.58514   0.00000  Uiso   1.00
C608   C     0.35757   0.53159   0.94977   0.00000  Uiso   1.00
C609   C     0.38123   0.54158   0.50655   0.00000  Uiso   1.00
C610   C     0.46528   0.49447   0.99502   0.00000  Uiso   1.00
C611   C     0.43519   0.52423   0.52905   0.00000  Uiso   1.00
C612   C     0.57984   0.65912   0.70421   0.00000  Uiso   1.00
C613   C     0.43682   0.47771   0.94004   0.00000  Uiso   1.00
C614   C     0.52279   0.48102   0.51355   0.00000  Uiso   1.00
C615   C     0.54725   0.44408   0.98164   0.00000  Uiso   1.00
C616   C     0.51473   0.42210   0.93079   0.00000  Uiso   1.00
C617   C     0.46014   0.43879   0.91005   0.00000  Uiso   1.00
C618   C     0.55708   0.50425   0.56269   0.00000  Uiso   1.00
C619   C     0.63434   0.44878   0.55437   0.00000  Uiso   1.00
H620   H     0.34226   0.43381   0.57191   0.00000  Uiso   1.00
H621   H     0.43609   0.42053   0.87054   0.00000  Uiso   1.00
H622   H     0.39765   0.33688   0.75722   0.00000  Uiso   1.00
H623   H     0.57403   0.62318   0.67787   0.00000  Uiso   1.00
H624   H     0.48994   0.45837   0.70816   0.00000  Uiso   1.00
H625   H     0.51006   0.54165   0.79181   0.00000  Uiso   1.00
H626   H     0.53190   0.39275   0.90656   0.00000  Uiso   1.00
H627   H     0.62246   0.40054   0.97811   0.00000  Uiso   1.00
H628   H     0.54240   0.53558   0.58607   0.00000  Uiso   1.00
H629   H     0.65122   0.54897   0.93190   0.00000  Uiso   1.00
H630   H     0.45162   0.53351   0.57336   0.00000  Uiso   1.00
H631   H     0.35875   0.56448   0.53277   0.00000  Uiso   1.00
N632   N     0.47827   0.48556   0.73543   0.00000  Uiso   1.00
N633   N     0.52173   0.51444   0.76458   0.00000  Uiso   1.00
O634   O     0.63102   0.57963   0.75358   0.00000  Uiso   1.00
O635   O     0.39075   0.57038   0.74424   0.00000  Uiso   1.00
O636   O     0.64823   0.50691   0.83380   0.00000  Uiso   1.00
O637   O     0.40796   0.49766   0.82446   0.00000  Uiso   1.00
O638   O     0.60925   0.42962   0.75577   0.00000  Uiso   1.00
O639   O     0.36898   0.42037   0.74643   0.00000  Uiso   1.00
O640   O     0.59204   0.50234   0.67554   0.00000  Uiso   1.00
O641   O     0.35177   0.49309   0.66620   0.00000  Uiso   1.00
O642   O     0.53679   0.34874   0.70775   0.00000  Uiso   1.00
Zn643  Zn    0.60453   0.50618   0.75624   0.00000  Uiso   1.00
Zn644  Zn    0.39547   0.49382   0.74377   0.00000  Uiso   1.00
C645   C     0.68031   0.59792   0.74516   0.00000  Uiso   1.00
C646   C     0.71966   0.50132   0.91599   0.00000  Uiso   1.00
C647   C     0.68676   0.65254   0.74274   0.00000  Uiso   1.00
C648   C     0.70200   0.50121   0.85514   0.00000  Uiso   1.00
C649   C     0.97282   0.34705   0.73405   0.00000  Uiso   1.00
C650   C     0.98399   0.40161   0.74755   0.00000  Uiso   1.00
C651   C     0.96412   0.49609   0.64486   0.00000  Uiso   1.00
C652   C     0.93685   0.42904   0.50179   0.00000  Uiso   1.00
C653   C     0.94326   0.48551   0.58514   0.00000  Uiso   1.00
C654   C     0.69091   0.53159   0.94977   0.00000  Uiso   1.00
C655   C     0.71456   0.54158   0.50655   0.00000  Uiso   1.00
C656   C     0.79861   0.49447   0.99502   0.00000  Uiso   1.00
C657   C     0.76853   0.52423   0.52905   0.00000  Uiso   1.00
C658   C     0.91318   0.65912   0.70421   0.00000  Uiso   1.00
C659   C     0.77015   0.47771   0.94004   0.00000  Uiso   1.00
C660   C     0.85613   0.48102   0.51355   0.00000  Uiso   1.00
C661   C     0.88058   0.44408   0.98164   0.00000  Uiso   1.00
C662   C     0.84807   0.42210   0.93079   0.00000  Uiso   1.00
C663   C     0.79347   0.43879   0.91005   0.00000  Uiso   1.00
C664   C     0.89042   0.50425   0.56269   0.00000  Uiso   1.00
C665   C     0.96767   0.44878   0.55437   0.00000  Uiso   1.00
H666   H     0.67559   0.43381   0.57191   0.00000  Uiso   1.00
H667   H     0.76942   0.42053   0.87054   0.00000  Uiso   1.00
H668   H     0.73098   0.33688   0.75722   0.00000  Uiso   1.00
H669   H     0.90737   0.62318   0.67787   0.00000  Uiso   1.00
H670   H     0.82327   0.45837   0.70816   0.00000  Uiso   1.00
H671   H     0.84340   0.54165   0.79181   0.00000  Uiso   1.00
H672   H     0.86523   0.39275   0.90656   0.00000  Uiso   1.00
H673   H     0.95579   0.40054   0.97811   0.00000  Uiso   1.00
H674   H     0.87574   0.53558   0.58607   0.00000  Uiso   1.00
H675   H     0.98455   0.54897   0.93190   0.00000  Uiso   1.00
H676   H     0.78495   0.53351   0.57336   0.00000  Uiso   1.00
H677   H     0.69208   0.56448   0.53277   0.00000  Uiso   1.00
N678   N     0.81160   0.48556   0.73543   0.00000  Uiso   1.00
N679   N     0.85507   0.51444   0.76458   0.00000  Uiso   1.00
O680   O     0.96435   0.57963   0.75358   0.00000  Uiso   1.00
O681   O     0.72408   0.57038   0.74424   0.00000  Uiso   1.00
O682   O     0.98157   0.50691   0.83380   0.00000  Uiso   1.00
O683   O     0.74130   0.49766   0.82446   0.00000  Uiso   1.00
O684   O     0.94258   0.42962   0.75577   0.00000  Uiso   1.00
O685   O     0.70231   0.42037   0.74643   0.00000  Uiso   1.00
O686   O     0.92537   0.50234   0.67554   0.00000  Uiso   1.00
O687   O     0.68510   0.49309   0.66620   0.00000  Uiso   1.00
O688   O     0.87012   0.34874   0.70775   0.00000  Uiso   1.00
Zn689  Zn    0.93786   0.50618   0.75624   0.00000  Uiso   1.00
Zn690  Zn    0.72881   0.49382   0.74377   0.00000  Uiso   1.00
C691   C     0.01364   0.93125   0.74516   0.00000  Uiso   1.00
C692   C     0.05300   0.83465   0.91599   0.00000  Uiso   1.00
C693   C     0.02010   0.98587   0.74274   0.00000  Uiso   1.00
C694   C     0.03533   0.83454   0.85514   0.00000  Uiso   1.00
C695   C     0.30615   0.68039   0.73405   0.00000  Uiso   1.00
C696   C     0.31733   0.73494   0.74755   0.00000  Uiso   1.00
C697   C     0.29745   0.82942   0.64486   0.00000  Uiso   1.00
C698   C     0.27018   0.76237   0.50179   0.00000  Uiso   1.00
C699   C     0.27660   0.81884   0.58514   0.00000  Uiso   1.00
C700   C     0.02424   0.86492   0.94977   0.00000  Uiso   1.00
C701   C     0.04790   0.87492   0.50655   0.00000  Uiso   1.00
C702   C     0.13195   0.82781   0.99502   0.00000  Uiso   1.00
C703   C     0.10186   0.85756   0.52905   0.00000  Uiso   1.00
C704   C     0.24651   0.99245   0.70421   0.00000  Uiso   1.00
C705   C     0.10349   0.81104   0.94004   0.00000  Uiso   1.00
C706   C     0.18946   0.81435   0.51355   0.00000  Uiso   1.00
C707   C     0.21391   0.77741   0.98164   0.00000  Uiso   1.00
C708   C     0.18140   0.75543   0.93079   0.00000  Uiso   1.00
C709   C     0.12680   0.77212   0.91005   0.00000  Uiso   1.00
C710   C     0.22375   0.83758   0.56269   0.00000  Uiso   1.00
C711   C     0.30100   0.78211   0.55437   0.00000  Uiso   1.00
H712   H     0.00892   0.76714   0.57191   0.00000  Uiso   1.00
H713   H     0.10276   0.75387   0.87054   0.00000  Uiso   1.00
H714   H     0.06432   0.67021   0.75722   0.00000  Uiso   1.00
H715   H     0.24070   0.95652   0.67787   0.00000  Uiso   1.00
H716   H     0.15660   0.79170   0.70816   0.00000  Uiso   1.00
H717   H     0.17673   0.87498   0.79181   0.00000  Uiso   1.00
H718   H     0.19857   0.72608   0.90656   0.00000  Uiso   1.00
H719   H     0.28912   0.73387   0.97811   0.00000  Uiso   1.00
H720   H     0.20907   0.86891   0.58607   0.00000  Uiso   1.00
H721   H     0.31788   0.88231   0.93190   0.00000  Uiso   1.00
H722   H     0.11829   0.86684   0.57336   0.00000  Uiso   1.00
H723   H     0.02542   0.89782   0.53277   0.00000  Uiso   1.00
N724   N     0.14493   0.81890   0.73543   0.00000  Uiso   1.00
N725   N     0.18840   0.84777   0.76458   0.00000  Uiso   1.00
O726   O     0.29769   0.91296   0.75358   0.00000  Uiso   1.00
O727   O     0.05742   0.90371   0.74424   0.00000  Uiso   1.00
O728   O     0.31490   0.84024   0.83380   0.00000  Uiso   1.00
O729   O     0.07463   0.83099   0.82446   0.00000  Uiso   1.00
O730   O     0.27592   0.76296   0.75577   0.00000  Uiso   1.00
O731   O     0.03565   0.75371   0.74643   0.00000  Uiso   1.00
O732   O     0.25870   0.83567   0.67554   0.00000  Uiso   1.00
O733   O     0.01843   0.82642   0.66620   0.00000  Uiso   1.00
O734   O     0.20345   0.68207   0.70775   0.00000  Uiso   1.00
Zn735  Zn    0.27119   0.83951   0.75624   0.00000  Uiso   1.00
Zn736  Zn    0.06214   0.82716   0.74377   0.00000  Uiso   1.00
C737   C     0.34697   0.93125   0.74516   0.00000  Uiso   1.00
C738   C     0.38633   0.83465   0.91599   0.00000  Uiso   1.00
C739   C     0.35343   0.98587   0.74274   0.00000  Uiso   1.00
C740   C     0.36866   0.83454   0.85514   0.00000  Uiso   1.00
C741   C     0.63948   0.68039   0.73405   0.00000  Uiso   1.00
C742   C     0.65066   0.73494   0.74755   0.00000  Uiso   1.00
C743   C     0.63079   0.82942   0.64486   0.00000  Uiso   1.00
C744   C     0.60352   0.76237   0.50179   0.00000  Uiso   1.00
C745   C     0.60993   0.81884   0.58514   0.00000  Uiso   1.00
C746   C     0.35757   0.86492   0.94977   0.00000  Uiso   1.00
C747   C     0.38123   0.87492   0.50655   0.00000  Uiso   1.00
C748   C     0.46528   0.82781   0.99502   0.00000  Uiso   1.00
C749   C     0.43519   0.85756   0.52905   0.00000  Uiso   1.00
C750   C     0.57984   0.99245   0.70421   0.00000  Uiso   1.00
C751   C     0.43682   0.81104   0.94004   0.00000  Uiso   1.00
C752   C     0.52279   0.81435   0.51355   0.00000  Uiso   1.00
C753   C     0.54725   0.77741   0.98164   0.00000  Uiso   1.00
C754   C     0.51473   0.75543   0.93079   0.00000  Uiso   1.00
C755   C     0.46014   0.77212   0.91005   0.00000  Uiso   1.00
C756   C     0.55708   0.83758   0.56269   0.00000  Uiso   1.00
C757   C     0.63434   0.78211   0.55437   0.00000  Uiso   1.00
H758   H     0.34226   0.76714   0.57191   0.00000  Uiso   1.00
H759   H     0.43609   0.75387   0.87054   0.00000  Uiso   1.00
H760   H     0.39765   0.67021   0.75722   0.00000  Uiso   1.00
H761   H     0.57403   0.95652   0.67787   0.00000  Uiso   1.00
H762   H     0.48994   0.79170   0.70816   0.00000  Uiso   1.00
H763   H     0.51006   0.87498   0.79181   0.00000  Uiso   1.00
H764   H     0.53190   0.72608   0.90656   0.00000  Uiso   1.00
H765   H     0.62246   0.73387   0.97811   0.00000  Uiso   1.00
H766   H     0.54240   0.86891   0.58607   0.00000  Uiso   1.00
H767   H     0.65122   0.88231   0.93190   0.00000  Uiso   1.00
H768   H     0.45162   0.86684   0.57336   0.00000  Uiso   1.00
H769   H     0.35875   0.89782   0.53277   0.00000  Uiso   1.00
N770   N     0.47827   0.81890   0.73543   0.00000  Uiso   1.00
N771   N     0.52173   0.84777   0.76458   0.00000  Uiso   1.00
O772   O     0.63102   0.91296   0.75358   0.00000  Uiso   1.00
O773   O     0.39075   0.90371   0.74424   0.00000  Uiso   1.00
O774   O     0.64823   0.84024   0.83380   0.00000  Uiso   1.00
O775   O     0.40796   0.83099   0.82446   0.00000  Uiso   1.00
O776   O     0.60925   0.76296   0.75577   0.00000  Uiso   1.00
O777   O     0.36898   0.75371   0.74643   0.00000  Uiso   1.00
O778   O     0.59204   0.83567   0.67554   0.00000  Uiso   1.00
O779   O     0.35177   0.82642   0.66620   0.00000  Uiso   1.00
O780   O     0.53679   0.68207   0.70775   0.00000  Uiso   1.00
Zn781  Zn    0.60453   0.83951   0.75624   0.00000  Uiso   1.00
Zn782  Zn    0.39547   0.82716   0.74377   0.00000  Uiso   1.00
C783   C     0.68031   0.93125   0.74516   0.00000  Uiso   1.00
C784   C     0.71966   0.83465   0.91599   0.00000  Uiso   1.00
C785   C     0.68676   0.98587   0.74274   0.00000  Uiso   1.00
C786   C     0.70200   0.83454   0.85514   0.00000  Uiso   1.00
C787   C     0.97282   0.68039   0.73405   0.00000  Uiso   1.00
C788   C     0.98399   0.73494   0.74755   0.00000  Uiso   1.00
C789   C     0.96412   0.82942   0.64486   0.00000  Uiso   1.00
C790   C     0.93685   0.76237   0.50179   0.00000  Uiso   1.00
C791   C     0.94326   0.81884   0.58514   0.00000  Uiso   1.00
C792   C     0.69091   0.86492   0.94977   0.00000  Uiso   1.00
C793   C     0.71456   0.87492   0.50655   0.00000  Uiso   1.00
C794   C     0.79861   0.82781   0.99502   0.00000  Uiso   1.00
C795   C     0.76853   0.85756   0.52905   0.00000  Uiso   1.00
C796   C     0.91318   0.99245   0.70421   0.00000  Uiso   1.00
C797   C     0.77015   0.81104   0.94004   0.00000  Uiso   1.00
C798   C     0.85613   0.81435   0.51355   0.00000  Uiso   1.00
C799   C     0.88058   0.77741   0.98164   0.00000  Uiso   1.00
C800   C     0.84807   0.75543   0.93079   0.00000  Uiso   1.00
C801   C     0.79347   0.77212   0.91005   0.00000  Uiso   1.00
C802   C     0.89042   0.83758   0.56269   0.00000  Uiso   1.00
C803   C     0.96767   0.78211   0.55437   0.00000  Uiso   1.00
H804   H     0.67559   0.76714   0.57191   0.00000  Uiso   1.00
H805   H     0.76942   0.75387   0.87054   0.00000  Uiso   1.00
H806   H     0.73098   0.67021   0.75722   0.00000  Uiso   1.00
H807   H     0.90737   0.95652   0.67787   0.00000  Uiso   1.00
H808   H     0.82327   0.79170   0.70816   0.00000  Uiso   1.00
H809   H     0.84340   0.87498   0.79181   0.00000  Uiso   1.00
H810   H     0.86523   0.72608   0.90656   0.00000  Uiso   1.00
H811   H     0.95579   0.73387   0.97811   0.00000  Uiso   1.00
H812   H     0.87574   0.86891   0.58607   0.00000  Uiso   1.00
H813   H     0.98455   0.88231   0.93190   0.00000  Uiso   1.00
H814   H     0.78495   0.86684   0.57336   0.00000  Uiso   1.00
H815   H     0.69208   0.89782   0.53277   0.00000  Uiso   1.00
N816   N     0.81160   0.81890   0.73543   0.00000  Uiso   1.00
N817   N     0.85507   0.84777   0.76458   0.00000  Uiso   1.00
O818   O     0.96435   0.91296   0.75358   0.00000  Uiso   1.00
O819   O     0.72408   0.90371   0.74424   0.00000  Uiso   1.00
O820   O     0.98157   0.84024   0.83380   0.00000  Uiso   1.00
O821   O     0.74130   0.83099   0.82446   0.00000  Uiso   1.00
O822   O     0.94258   0.76296   0.75577   0.00000  Uiso   1.00
O823   O     0.70231   0.75371   0.74643   0.00000  Uiso   1.00
O824   O     0.92537   0.83567   0.67554   0.00000  Uiso   1.00
O825   O     0.68510   0.82642   0.66620   0.00000  Uiso   1.00
O826   O     0.87012   0.68207   0.70775   0.00000  Uiso   1.00
Zn827  Zn    0.93786   0.83951   0.75624   0.00000  Uiso   1.00
Zn828  Zn    0.72881   0.82716   0.74377   0.00000  Uiso   1.00
loop_
_geom_bond_atom_site_label_1
_geom_bond_atom_site_label_2
_geom_bond_distance
_geom_bond_site_symmetry_2
_ccdc_geom_bond_type
C1     O37     1.292   .     A
C1     C3      1.405   .     S
C1     O128    1.273   1_455 S
C2     C4      1.452   .     S
C2     C15     1.406   .     A
C2     C10     1.403   .     A
C3     C235    1.350   1_455 S
C3     H162    1.088   .     S
C4     O39     1.298   .     A
C4     O130    1.289   1_455 S
C5     C6      1.420   .     S
C5     C325    1.350   1_545 S
C5     C290    1.499   1_545 S
C6     O40     1.291   .     A
C6     O87     1.278   .     S
C7     O42     1.296   .     A
C7     C9      1.443   .     S
C7     O89     1.288   .     S
C8     C21     1.393   .     A
C8     C431    1.404   1_554 S
C8     H443    1.084   1_554 S
C9     C21     1.400   .     A
C9     C20     1.383   .     A
C10    C425    1.387   .     S
C10    H123    1.083   1_455 S
C11    C13     1.390   .     A
C11    H33     1.083   .     S
C11    C424    1.387   1_554 S
C12    C15     1.405   .     A
C12    C427    1.420   .     S
C12    C430    1.410   .     S
C13    H32     1.079   .     S
C13    C426    1.420   1_554 S
C14    H25     1.086   .     S
C14    C143    1.499   .     S
C14    O182    1.221   .     S
C15    C19     1.415   .     A
C16    C20     1.387   .     A
C16    C426    1.410   1_554 S
C16    C431    1.421   1_554 S
C17    C18     1.392   .     A
C17    C422    1.404   .     S
C17    C430    1.421   .     S
C18    H28     1.084   .     S
C18    C19     1.387   .     A
C19    H23     1.082   .     S
C20    H30     1.080   .     S
C21    H68     1.083   .     S
H22    C113    1.083   1_455 S
H24    C279    1.088   1_545 S
H26    N34     1.029   .     S
H27    N35     1.029   .     S
H29    C422    1.084   .     S
H31    C56     1.083   .     S
N34    Zn46    2.017   .     S
N34    N35     1.288   .     D
N35    Zn45    2.017   .     S
O36    Zn45    1.951   .     S
O36    C47     1.273   .     S
O37    Zn46    1.977   .     S
O38    Zn45    1.958   .     S
O38    C50     1.289   .     S
O39    Zn46    1.918   .     S
O40    Zn45    1.977   .     S
O41    Zn46    1.951   .     S
O41    C98     1.278   1_455 S
O42    Zn45    1.918   .     S
O43    Zn46    1.958   .     S
O43    C99     1.288   1_455 S
O44    C290    1.221   1_545 S
C47    O83     1.292   .     A
C47    C49     1.405   .     S
C48    C50     1.452   .     S
C48    C61     1.406   .     A
C48    C56     1.403   .     A
C49    C143    1.350   .     S
C49    H208    1.088   .     S
C50    O85     1.298   .     A
C51    C52     1.420   .     S
C51    C371    1.350   1_545 S
C51    C336    1.499   1_545 S
C52    O86     1.291   .     A
C52    O133    1.278   .     S
C53    O88     1.296   .     A
C53    C55     1.443   .     S
C53    O135    1.288   .     S
C54    C67     1.393   .     A
C54    C477    1.404   1_554 S
C54    H489    1.084   1_554 S
C55    C67     1.400   .     A
C55    C66     1.383   .     A
C56    C471    1.387   .     S
C57    C59     1.390   .     A
C57    H79     1.083   .     S
C57    C470    1.387   1_554 S
C58    C61     1.405   .     A
C58    C473    1.420   .     S
C58    C476    1.410   .     S
C59    H78     1.079   .     S
C59    C472    1.420   1_554 S
C60    H71     1.086   .     S
C60    C189    1.499   .     S
C60    O228    1.221   .     S
C61    C65     1.415   .     A
C62    C66     1.387   .     A
C62    C472    1.410   1_554 S
C62    C477    1.421   1_554 S
C63    C64     1.392   .     A
C63    C468    1.404   .     S
C63    C476    1.421   .     S
C64    H74     1.084   .     S
C64    C65     1.387   .     A
C65    H69     1.082   .     S
C66    H76     1.080   .     S
C67    H114    1.083   .     S
H70    C325    1.088   1_545 S
H72    N80     1.029   .     S
H73    N81     1.029   .     S
H75    C468    1.084   .     S
H77    C102    1.083   .     S
N80    Zn92    2.017   .     S
N80    N81     1.288   .     D
N81    Zn91    2.017   .     S
O82    Zn91    1.951   .     S
O82    C93     1.273   .     S
O83    Zn92    1.977   .     S
O84    Zn91    1.958   .     S
O84    C96     1.289   .     S
O85    Zn92    1.918   .     S
O86    Zn91    1.977   .     S
O87    Zn92    1.951   .     S
O88    Zn91    1.918   .     S
O89    Zn92    1.958   .     S
O90    C336    1.221   1_545 S
C93    O129    1.292   .     A
C93    C95     1.405   .     S
C94    C96     1.452   .     S
C94    C107    1.406   .     A
C94    C102    1.403   .     A
C95    C189    1.350   .     S
C95    H254    1.088   .     S
C96    O131    1.298   .     A
C97    C98     1.420   .     S
C97    C279    1.350   1_645 S
C97    C382    1.499   1_545 S
C98    O132    1.291   .     A
C98    O41     1.278   1_655 S
C99    O134    1.296   .     A
C99    C101    1.443   .     S
C99    O43     1.288   1_655 S
C100   C113    1.393   .     A
C100   C523    1.404   1_554 S
C100   H535    1.084   1_554 S
C101   C113    1.400   .     A
C101   C112    1.383   .     A
C102   C517    1.387   .     S
C103   C105    1.390   .     A
C103   H125    1.083   .     S
C103   C516    1.387   1_554 S
C104   C107    1.405   .     A
C104   C519    1.420   .     S
C104   C522    1.410   .     S
C105   H124    1.079   .     S
C105   C518    1.420   1_554 S
C106   H117    1.086   .     S
C106   C235    1.499   .     S
C106   O274    1.221   .     S
C107   C111    1.415   .     A
C108   C112    1.387   .     A
C108   C518    1.410   1_554 S
C108   C523    1.421   1_554 S
C109   C110    1.392   .     A
C109   C514    1.404   .     S
C109   C522    1.421   .     S
C110   H120    1.084   .     S
C110   C111    1.387   .     A
C111   H115    1.082   .     S
C112   H122    1.080   .     S
C113   H22     1.083   1_655 S
H116   C371    1.088   1_545 S
H118   N126    1.029   .     S
H119   N127    1.029   .     S
H121   C514    1.084   .     S
H123   C10     1.083   1_655 S
N126   Zn138   2.017   .     S
N126   N127    1.288   .     D
N127   Zn137   2.017   .     S
O128   Zn137   1.951   .     S
O128   C1      1.273   1_655 S
O129   Zn138   1.977   .     S
O130   Zn137   1.958   .     S
O130   C4      1.289   1_655 S
O131   Zn138   1.918   .     S
O132   Zn137   1.977   .     S
O133   Zn138   1.951   .     S
O134   Zn137   1.918   .     S
O135   Zn138   1.958   .     S
O136   C382    1.221   1_545 S
C139   O175    1.292   .     A
C139   C141    1.405   .     S
C139   O266    1.273   1_455 S
C140   C142    1.452   .     S
C140   C153    1.406   .     A
C140   C148    1.403   .     A
C141   C373    1.350   1_455 S
C141   H300    1.088   .     S
C142   O177    1.298   .     A
C142   O268    1.289   1_455 S
C143   C144    1.420   .     S
C144   O178    1.291   .     A
C144   O225    1.278   .     S
C145   O180    1.296   .     A
C145   C147    1.443   .     S
C145   O227    1.288   .     S
C146   C159    1.393   .     A
C146   C569    1.404   1_554 S
C146   H581    1.084   1_554 S
C147   C159    1.400   .     A
C147   C158    1.383   .     A
C148   C563    1.387   .     S
C148   H261    1.083   1_455 S
C149   C151    1.390   .     A
C149   H171    1.083   .     S
C149   C562    1.387   1_554 S
C150   C153    1.405   .     A
C150   C565    1.420   .     S
C150   C568    1.410   .     S
C151   H170    1.079   .     S
C151   C564    1.420   1_554 S
C152   H163    1.086   .     S
C152   C281    1.499   .     S
C152   O320    1.221   .     S
C153   C157    1.415   .     A
C154   C158    1.387   .     A
C154   C564    1.410   1_554 S
C154   C569    1.421   1_554 S
C155   C156    1.392   .     A
C155   C560    1.404   .     S
C155   C568    1.421   .     S
C156   H166    1.084   .     S
C156   C157    1.387   .     A
C157   H161    1.082   .     S
C158   H168    1.080   .     S
C159   H206    1.083   .     S
H160   C251    1.083   1_455 S
H164   N172    1.029   .     S
H165   N173    1.029   .     S
H167   C560    1.084   .     S
H169   C194    1.083   .     S
N172   Zn184   2.017   .     S
N172   N173    1.288   .     D
N173   Zn183   2.017   .     S
O174   Zn183   1.951   .     S
O174   C185    1.273   .     S
O175   Zn184   1.977   .     S
O176   Zn183   1.958   .     S
O176   C188    1.289   .     S
O177   Zn184   1.918   .     S
O178   Zn183   1.977   .     S
O179   Zn184   1.951   .     S
O179   C236    1.278   1_455 S
O180   Zn183   1.918   .     S
O181   Zn184   1.958   .     S
O181   C237    1.288   1_455 S
C185   O221    1.292   .     A
C185   C187    1.405   .     S
C186   C188    1.452   .     S
C186   C199    1.406   .     A
C186   C194    1.403   .     A
C187   C281    1.350   .     S
C187   H346    1.088   .     S
C188   O223    1.298   .     A
C189   C190    1.420   .     S
C190   O224    1.291   .     A
C190   O271    1.278   .     S
C191   O226    1.296   .     A
C191   C193    1.443   .     S
C191   O273    1.288   .     S
C192   C205    1.393   .     A
C192   C615    1.404   1_554 S
C192   H627    1.084   1_554 S
C193   C205    1.400   .     A
C193   C204    1.383   .     A
C194   C609    1.387   .     S
C195   C197    1.390   .     A
C195   H217    1.083   .     S
C195   C608    1.387   1_554 S
C196   C199    1.405   .     A
C196   C611    1.420   .     S
C196   C614    1.410   .     S
C197   H216    1.079   .     S
C197   C610    1.420   1_554 S
C198   H209    1.086   .     S
C198   C327    1.499   .     S
C198   O366    1.221   .     S
C199   C203    1.415   .     A
C200   C204    1.387   .     A
C200   C610    1.410   1_554 S
C200   C615    1.421   1_554 S
C201   C202    1.392   .     A
C201   C606    1.404   .     S
C201   C614    1.421   .     S
C202   H212    1.084   .     S
C202   C203    1.387   .     A
C203   H207    1.082   .     S
C204   H214    1.080   .     S
C205   H252    1.083   .     S
H210   N218    1.029   .     S
H211   N219    1.029   .     S
H213   C606    1.084   .     S
H215   C240    1.083   .     S
N218   Zn230   2.017   .     S
N218   N219    1.288   .     D
N219   Zn229   2.017   .     S
O220   Zn229   1.951   .     S
O220   C231    1.273   .     S
O221   Zn230   1.977   .     S
O222   Zn229   1.958   .     S
O222   C234    1.289   .     S
O223   Zn230   1.918   .     S
O224   Zn229   1.977   .     S
O225   Zn230   1.951   .     S
O226   Zn229   1.918   .     S
O227   Zn230   1.958   .     S
C231   O267    1.292   .     A
C231   C233    1.405   .     S
C232   C234    1.452   .     S
C232   C245    1.406   .     A
C232   C240    1.403   .     A
C233   C327    1.350   .     S
C233   H392    1.088   .     S
C234   O269    1.298   .     A
C235   C236    1.420   .     S
C235   C3      1.350   1_655 S
C236   O270    1.291   .     A
C236   O179    1.278   1_655 S
C237   O272    1.296   .     A
C237   C239    1.443   .     S
C237   O181    1.288   1_655 S
C238   C251    1.393   .     A
C238   C661    1.404   1_554 S
C238   H673    1.084   1_554 S
C239   C251    1.400   .     A
C239   C250    1.383   .     A
C240   C655    1.387   .     S
C241   C243    1.390   .     A
C241   H263    1.083   .     S
C241   C654    1.387   1_554 S
C242   C245    1.405   .     A
C242   C657    1.420   .     S
C242   C660    1.410   .     S
C243   H262    1.079   .     S
C243   C656    1.420   1_554 S
C244   H255    1.086   .     S
C244   C373    1.499   .     S
C244   O412    1.221   .     S
C245   C249    1.415   .     A
C246   C250    1.387   .     A
C246   C656    1.410   1_554 S
C246   C661    1.421   1_554 S
C247   C248    1.392   .     A
C247   C652    1.404   .     S
C247   C660    1.421   .     S
C248   H258    1.084   .     S
C248   C249    1.387   .     A
C249   H253    1.082   .     S
C250   H260    1.080   .     S
C251   H160    1.083   1_655 S
H256   N264    1.029   .     S
H257   N265    1.029   .     S
H259   C652    1.084   .     S
H261   C148    1.083   1_655 S
N264   Zn276   2.017   .     S
N264   N265    1.288   .     D
N265   Zn275   2.017   .     S
O266   Zn275   1.951   .     S
O266   C139    1.273   1_655 S
O267   Zn276   1.977   .     S
O268   Zn275   1.958   .     S
O268   C142    1.289   1_655 S
O269   Zn276   1.918   .     S
O270   Zn275   1.977   .     S
O271   Zn276   1.951   .     S
O272   Zn275   1.918   .     S
O273   Zn276   1.958   .     S
C277   O313    1.292   .     A
C277   C279    1.405   .     S
C277   O404    1.273   1_455 S
C278   C280    1.452   .     S
C278   C291    1.406   .     A
C278   C286    1.403   .     A
C279   C97     1.350   1_465 S
C279   H24     1.088   1_565 S
C280   O315    1.298   .     A
C280   O406    1.289   1_455 S
C281   C282    1.420   .     S
C282   O316    1.291   .     A
C282   O363    1.278   .     S
C283   O318    1.296   .     A
C283   C285    1.443   .     S
C283   O365    1.288   .     S
C284   C297    1.393   .     A
C284   C707    1.404   1_554 S
C284   H719    1.084   1_554 S
C285   C297    1.400   .     A
C285   C296    1.383   .     A
C286   C701    1.387   .     S
C286   H399    1.083   1_455 S
C287   C289    1.390   .     A
C287   H309    1.083   .     S
C287   C700    1.387   1_554 S
C288   C291    1.405   .     A
C288   C703    1.420   .     S
C288   C706    1.410   .     S
C289   H308    1.079   .     S
C289   C702    1.420   1_554 S
C290   H301    1.086   .     S
C290   C5      1.499   1_565 S
C290   O44     1.221   1_565 S
C291   C295    1.415   .     A
C292   C296    1.387   .     A
C292   C702    1.410   1_554 S
C292   C707    1.421   1_554 S
C293   C294    1.392   .     A
C293   C698    1.404   .     S
C293   C706    1.421   .     S
C294   H304    1.084   .     S
C294   C295    1.387   .     A
C295   H299    1.082   .     S
C296   H306    1.080   .     S
C297   H344    1.083   .     S
H298   C389    1.083   1_455 S
H302   N310    1.029   .     S
H303   N311    1.029   .     S
H305   C698    1.084   .     S
H307   C332    1.083   .     S
N310   Zn322   2.017   .     S
N310   N311    1.288   .     D
N311   Zn321   2.017   .     S
O312   Zn321   1.951   .     S
O312   C323    1.273   .     S
O313   Zn322   1.977   .     S
O314   Zn321   1.958   .     S
O314   C326    1.289   .     S
O315   Zn322   1.918   .     S
O316   Zn321   1.977   .     S
O317   Zn322   1.951   .     S
O317   C374    1.278   1_455 S
O318   Zn321   1.918   .     S
O319   Zn322   1.958   .     S
O319   C375    1.288   1_455 S
C323   O359    1.292   .     A
C323   C325    1.405   .     S
C324   C326    1.452   .     S
C324   C337    1.406   .     A
C324   C332    1.403   .     A
C325   C5      1.350   1_565 S
C325   H70     1.088   1_565 S
C326   O361    1.298   .     A
C327   C328    1.420   .     S
C328   O362    1.291   .     A
C328   O409    1.278   .     S
C329   O364    1.296   .     A
C329   C331    1.443   .     S
C329   O411    1.288   .     S
C330   C343    1.393   .     A
C330   C753    1.404   1_554 S
C330   H765    1.084   1_554 S
C331   C343    1.400   .     A
C331   C342    1.383   .     A
C332   C747    1.387   .     S
C333   C335    1.390   .     A
C333   H355    1.083   .     S
C333   C746    1.387   1_554 S
C334   C337    1.405   .     A
C334   C749    1.420   .     S
C334   C752    1.410   .     S
C335   H354    1.079   .     S
C335   C748    1.420   1_554 S
C336   H347    1.086   .     S
C336   C51     1.499   1_565 S
C336   O90     1.221   1_565 S
C337   C341    1.415   .     A
C338   C342    1.387   .     A
C338   C748    1.410   1_554 S
C338   C753    1.421   1_554 S
C339   C340    1.392   .     A
C339   C744    1.404   .     S
C339   C752    1.421   .     S
C340   H350    1.084   .     S
C340   C341    1.387   .     A
C341   H345    1.082   .     S
C342   H352    1.080   .     S
C343   H390    1.083   .     S
H348   N356    1.029   .     S
H349   N357    1.029   .     S
H351   C744    1.084   .     S
H353   C378    1.083   .     S
N356   Zn368   2.017   .     S
N356   N357    1.288   .     D
N357   Zn367   2.017   .     S
O358   Zn367   1.951   .     S
O358   C369    1.273   .     S
O359   Zn368   1.977   .     S
O360   Zn367   1.958   .     S
O360   C372    1.289   .     S
O361   Zn368   1.918   .     S
O362   Zn367   1.977   .     S
O363   Zn368   1.951   .     S
O364   Zn367   1.918   .     S
O365   Zn368   1.958   .     S
C369   O405    1.292   .     A
C369   C371    1.405   .     S
C370   C372    1.452   .     S
C370   C383    1.406   .     A
C370   C378    1.403   .     A
C371   C51     1.350   1_565 S
C371   H116    1.088   1_565 S
C372   O407    1.298   .     A
C373   C374    1.420   .     S
C373   C141    1.350   1_655 S
C374   O408    1.291   .     A
C374   O317    1.278   1_655 S
C375   O410    1.296   .     A
C375   C377    1.443   .     S
C375   O319    1.288   1_655 S
C376   C389    1.393   .     A
C376   C799    1.404   1_554 S
C376   H811    1.084   1_554 S
C377   C389    1.400   .     A
C377   C388    1.383   .     A
C378   C793    1.387   .     S
C379   C381    1.390   .     A
C379   H401    1.083   .     S
C379   C792    1.387   1_554 S
C380   C383    1.405   .     A
C380   C795    1.420   .     S
C380   C798    1.410   .     S
C381   H400    1.079   .     S
C381   C794    1.420   1_554 S
C382   H393    1.086   .     S
C382   C97     1.499   1_565 S
C382   O136    1.221   1_565 S
C383   C387    1.415   .     A
C384   C388    1.387   .     A
C384   C794    1.410   1_554 S
C384   C799    1.421   1_554 S
C385   C386    1.392   .     A
C385   C790    1.404   .     S
C385   C798    1.421   .     S
C386   H396    1.084   .     S
C386   C387    1.387   .     A
C387   H391    1.082   .     S
C388   H398    1.080   .     S
C389   H298    1.083   1_655 S
H394   N402    1.029   .     S
H395   N403    1.029   .     S
H397   C790    1.084   .     S
H399   C286    1.083   1_655 S
N402   Zn414   2.017   .     S
N402   N403    1.288   .     D
N403   Zn413   2.017   .     S
O404   Zn413   1.951   .     S
O404   C277    1.273   1_655 S
O405   Zn414   1.977   .     S
O406   Zn413   1.958   .     S
O406   C280    1.289   1_655 S
O407   Zn414   1.918   .     S
O408   Zn413   1.977   .     S
O409   Zn414   1.951   .     S
O410   Zn413   1.918   .     S
O411   Zn414   1.958   .     S
C415   O451    1.292   .     A
C415   C417    1.405   .     S
C415   O542    1.273   1_455 S
C416   C418    1.452   .     S
C416   C429    1.406   .     A
C416   C424    1.403   .     A
C417   C649    1.350   1_455 S
C417   H576    1.088   .     S
C418   O453    1.298   .     A
C418   O544    1.289   1_455 S
C419   C420    1.420   .     S
C419   C739    1.350   1_545 S
C419   C704    1.499   1_545 S
C420   O454    1.291   .     A
C420   O501    1.278   .     S
C421   O456    1.296   .     A
C421   C423    1.443   .     S
C421   O503    1.288   .     S
C422   C435    1.393   .     A
C423   C435    1.400   .     A
C423   C434    1.383   .     A
C424   C11     1.387   1_556 S
C424   H537    1.083   1_455 S
C425   C427    1.390   .     A
C425   H447    1.083   .     S
C426   C429    1.405   .     A
C426   C13     1.420   1_556 S
C426   C16     1.410   1_556 S
C427   H446    1.079   .     S
C428   H439    1.086   .     S
C428   C557    1.499   .     S
C428   O596    1.221   .     S
C429   C433    1.415   .     A
C430   C434    1.387   .     A
C431   C432    1.392   .     A
C431   C8      1.404   1_556 S
C431   C16     1.421   1_556 S
C432   H442    1.084   .     S
C432   C433    1.387   .     A
C433   H437    1.082   .     S
C434   H444    1.080   .     S
C435   H482    1.083   .     S
H436   C527    1.083   1_455 S
H438   C693    1.088   1_545 S
H440   N448    1.029   .     S
H441   N449    1.029   .     S
H443   C8      1.084   1_556 S
H445   C470    1.083   .     S
N448   Zn460   2.017   .     S
N448   N449    1.288   .     D
N449   Zn459   2.017   .     S
O450   Zn459   1.951   .     S
O450   C461    1.273   .     S
O451   Zn460   1.977   .     S
O452   Zn459   1.958   .     S
O452   C464    1.289   .     S
O453   Zn460   1.918   .     S
O454   Zn459   1.977   .     S
O455   Zn460   1.951   .     S
O455   C512    1.278   1_455 S
O456   Zn459   1.918   .     S
O457   Zn460   1.958   .     S
O457   C513    1.288   1_455 S
O458   C704    1.221   1_545 S
C461   O497    1.292   .     A
C461   C463    1.405   .     S
C462   C464    1.452   .     S
C462   C475    1.406   .     A
C462   C470    1.403   .     A
C463   C557    1.350   .     S
C463   H622    1.088   .     S
C464   O499    1.298   .     A
C465   C466    1.420   .     S
C465   C785    1.350   1_545 S
C465   C750    1.499   1_545 S
C466   O500    1.291   .     A
C466   O547    1.278   .     S
C467   O502    1.296   .     A
C467   C469    1.443   .     S
C467   O549    1.288   .     S
C468   C481    1.393   .     A
C469   C481    1.400   .     A
C469   C480    1.383   .     A
C470   C57     1.387   1_556 S
C471   C473    1.390   .     A
C471   H493    1.083   .     S
C472   C475    1.405   .     A
C472   C59     1.420   1_556 S
C472   C62     1.410   1_556 S
C473   H492    1.079   .     S
C474   H485    1.086   .     S
C474   C603    1.499   .     S
C474   O642    1.221   .     S
C475   C479    1.415   .     A
C476   C480    1.387   .     A
C477   C478    1.392   .     A
C477   C54     1.404   1_556 S
C477   C62     1.421   1_556 S
C478   H488    1.084   .     S
C478   C479    1.387   .     A
C479   H483    1.082   .     S
C480   H490    1.080   .     S
C481   H528    1.083   .     S
H484   C739    1.088   1_545 S
H486   N494    1.029   .     S
H487   N495    1.029   .     S
H489   C54     1.084   1_556 S
H491   C516    1.083   .     S
N494   Zn506   2.017   .     S
N494   N495    1.288   .     D
N495   Zn505   2.017   .     S
O496   Zn505   1.951   .     S
O496   C507    1.273   .     S
O497   Zn506   1.977   .     S
O498   Zn505   1.958   .     S
O498   C510    1.289   .     S
O499   Zn506   1.918   .     S
O500   Zn505   1.977   .     S
O501   Zn506   1.951   .     S
O502   Zn505   1.918   .     S
O503   Zn506   1.958   .     S
O504   C750    1.221   1_545 S
C507   O543    1.292   .     A
C507   C509    1.405   .     S
C508   C510    1.452   .     S
C508   C521    1.406   .     A
C508   C516    1.403   .     A
C509   C603    1.350   .     S
C509   H668    1.088   .     S
C510   O545    1.298   .     A
C511   C512    1.420   .     S
C511   C693    1.350   1_645 S
C511   C796    1.499   1_545 S
C512   O546    1.291   .     A
C512   O455    1.278   1_655 S
C513   O548    1.296   .     A
C513   C515    1.443   .     S
C513   O457    1.288   1_655 S
C514   C527    1.393   .     A
C515   C527    1.400   .     A
C515   C526    1.383   .     A
C516   C103    1.387   1_556 S
C517   C519    1.390   .     A
C517   H539    1.083   .     S
C518   C521    1.405   .     A
C518   C105    1.420   1_556 S
C518   C108    1.410   1_556 S
C519   H538    1.079   .     S
C520   H531    1.086   .     S
C520   C649    1.499   .     S
C520   O688    1.221   .     S
C521   C525    1.415   .     A
C522   C526    1.387   .     A
C523   C524    1.392   .     A
C523   C100    1.404   1_556 S
C523   C108    1.421   1_556 S
C524   H534    1.084   .     S
C524   C525    1.387   .     A
C525   H529    1.082   .     S
C526   H536    1.080   .     S
C527   H436    1.083   1_655 S
H530   C785    1.088   1_545 S
H532   N540    1.029   .     S
H533   N541    1.029   .     S
H535   C100    1.084   1_556 S
H537   C424    1.083   1_655 S
N540   Zn552   2.017   .     S
N540   N541    1.288   .     D
N541   Zn551   2.017   .     S
O542   Zn551   1.951   .     S
O542   C415    1.273   1_655 S
O543   Zn552   1.977   .     S
O544   Zn551   1.958   .     S
O544   C418    1.289   1_655 S
O545   Zn552   1.918   .     S
O546   Zn551   1.977   .     S
O547   Zn552   1.951   .     S
O548   Zn551   1.918   .     S
O549   Zn552   1.958   .     S
O550   C796    1.221   1_545 S
C553   O589    1.292   .     A
C553   C555    1.405   .     S
C553   O680    1.273   1_455 S
C554   C556    1.452   .     S
C554   C567    1.406   .     A
C554   C562    1.403   .     A
C555   C787    1.350   1_455 S
C555   H714    1.088   .     S
C556   O591    1.298   .     A
C556   O682    1.289   1_455 S
C557   C558    1.420   .     S
C558   O592    1.291   .     A
C558   O639    1.278   .     S
C559   O594    1.296   .     A
C559   C561    1.443   .     S
C559   O641    1.288   .     S
C560   C573    1.393   .     A
C561   C573    1.400   .     A
C561   C572    1.383   .     A
C562   C149    1.387   1_556 S
C562   H675    1.083   1_455 S
C563   C565    1.390   .     A
C563   H585    1.083   .     S
C564   C567    1.405   .     A
C564   C151    1.420   1_556 S
C564   C154    1.410   1_556 S
C565   H584    1.079   .     S
C566   H577    1.086   .     S
C566   C695    1.499   .     S
C566   O734    1.221   .     S
C567   C571    1.415   .     A
C568   C572    1.387   .     A
C569   C570    1.392   .     A
C569   C146    1.404   1_556 S
C569   C154    1.421   1_556 S
C570   H580    1.084   .     S
C570   C571    1.387   .     A
C571   H575    1.082   .     S
C572   H582    1.080   .     S
C573   H620    1.083   .     S
H574   C665    1.083   1_455 S
H578   N586    1.029   .     S
H579   N587    1.029   .     S
H581   C146    1.084   1_556 S
H583   C608    1.083   .     S
N586   Zn598   2.017   .     S
N586   N587    1.288   .     D
N587   Zn597   2.017   .     S
O588   Zn597   1.951   .     S
O588   C599    1.273   .     S
O589   Zn598   1.977   .     S
O590   Zn597   1.958   .     S
O590   C602    1.289   .     S
O591   Zn598   1.918   .     S
O592   Zn597   1.977   .     S
O593   Zn598   1.951   .     S
O593   C650    1.278   1_455 S
O594   Zn597   1.918   .     S
O595   Zn598   1.958   .     S
O595   C651    1.288   1_455 S
C599   O635    1.292   .     A
C599   C601    1.405   .     S
C600   C602    1.452   .     S
C600   C613    1.406   .     A
C600   C608    1.403   .     A
C601   C695    1.350   .     S
C601   H760    1.088   .     S
C602   O637    1.298   .     A
C603   C604    1.420   .     S
C604   O638    1.291   .     A
C604   O685    1.278   .     S
C605   O640    1.296   .     A
C605   C607    1.443   .     S
C605   O687    1.288   .     S
C606   C619    1.393   .     A
C607   C619    1.400   .     A
C607   C618    1.383   .     A
C608   C195    1.387   1_556 S
C609   C611    1.390   .     A
C609   H631    1.083   .     S
C610   C613    1.405   .     A
C610   C197    1.420   1_556 S
C610   C200    1.410   1_556 S
C611   H630    1.079   .     S
C612   H623    1.086   .     S
C612   C741    1.499   .     S
C612   O780    1.221   .     S
C613   C617    1.415   .     A
C614   C618    1.387   .     A
C615   C616    1.392   .     A
C615   C192    1.404   1_556 S
C615   C200    1.421   1_556 S
C616   H626    1.084   .     S
C616   C617    1.387   .     A
C617   H621    1.082   .     S
C618   H628    1.080   .     S
C619   H666    1.083   .     S
H624   N632    1.029   .     S
H625   N633    1.029   .     S
H627   C192    1.084   1_556 S
H629   C654    1.083   .     S
N632   Zn644   2.017   .     S
N632   N633    1.288   .     D
N633   Zn643   2.017   .     S
O634   Zn643   1.951   .     S
O634   C645    1.273   .     S
O635   Zn644   1.977   .     S
O636   Zn643   1.958   .     S
O636   C648    1.289   .     S
O637   Zn644   1.918   .     S
O638   Zn643   1.977   .     S
O639   Zn644   1.951   .     S
O640   Zn643   1.918   .     S
O641   Zn644   1.958   .     S
C645   O681    1.292   .     A
C645   C647    1.405   .     S
C646   C648    1.452   .     S
C646   C659    1.406   .     A
C646   C654    1.403   .     A
C647   C741    1.350   .     S
C647   H806    1.088   .     S
C648   O683    1.298   .     A
C649   C650    1.420   .     S
C649   C417    1.350   1_655 S
C650   O684    1.291   .     A
C650   O593    1.278   1_655 S
C651   O686    1.296   .     A
C651   C653    1.443   .     S
C651   O595    1.288   1_655 S
C652   C665    1.393   .     A
C653   C665    1.400   .     A
C653   C664    1.383   .     A
C654   C241    1.387   1_556 S
C655   C657    1.390   .     A
C655   H677    1.083   .     S
C656   C659    1.405   .     A
C656   C243    1.420   1_556 S
C656   C246    1.410   1_556 S
C657   H676    1.079   .     S
C658   H669    1.086   .     S
C658   C787    1.499   .     S
C658   O826    1.221   .     S
C659   C663    1.415   .     A
C660   C664    1.387   .     A
C661   C662    1.392   .     A
C661   C238    1.404   1_556 S
C661   C246    1.421   1_556 S
C662   H672    1.084   .     S
C662   C663    1.387   .     A
C663   H667    1.082   .     S
C664   H674    1.080   .     S
C665   H574    1.083   1_655 S
H670   N678    1.029   .     S
H671   N679    1.029   .     S
H673   C238    1.084   1_556 S
H675   C562    1.083   1_655 S
N678   Zn690   2.017   .     S
N678   N679    1.288   .     D
N679   Zn689   2.017   .     S
O680   Zn689   1.951   .     S
O680   C553    1.273   1_655 S
O681   Zn690   1.977   .     S
O682   Zn689   1.958   .     S
O682   C556    1.289   1_655 S
O683   Zn690   1.918   .     S
O684   Zn689   1.977   .     S
O685   Zn690   1.951   .     S
O686   Zn689   1.918   .     S
O687   Zn690   1.958   .     S
C691   O727    1.292   .     A
C691   C693    1.405   .     S
C691   O818    1.273   1_455 S
C692   C694    1.452   .     S
C692   C705    1.406   .     A
C692   C700    1.403   .     A
C693   C511    1.350   1_465 S
C693   H438    1.088   1_565 S
C694   O729    1.298   .     A
C694   O820    1.289   1_455 S
C695   C696    1.420   .     S
C696   O730    1.291   .     A
C696   O777    1.278   .     S
C697   O732    1.296   .     A
C697   C699    1.443   .     S
C697   O779    1.288   .     S
C698   C711    1.393   .     A
C699   C711    1.400   .     A
C699   C710    1.383   .     A
C700   C287    1.387   1_556 S
C700   H813    1.083   1_455 S
C701   C703    1.390   .     A
C701   H723    1.083   .     S
C702   C705    1.405   .     A
C702   C289    1.420   1_556 S
C702   C292    1.410   1_556 S
C703   H722    1.079   .     S
C704   H715    1.086   .     S
C704   C419    1.499   1_565 S
C704   O458    1.221   1_565 S
C705   C709    1.415   .     A
C706   C710    1.387   .     A
C707   C708    1.392   .     A
C707   C284    1.404   1_556 S
C707   C292    1.421   1_556 S
C708   H718    1.084   .     S
C708   C709    1.387   .     A
C709   H713    1.082   .     S
C710   H720    1.080   .     S
C711   H758    1.083   .     S
H712   C803    1.083   1_455 S
H716   N724    1.029   .     S
H717   N725    1.029   .     S
H719   C284    1.084   1_556 S
H721   C746    1.083   .     S
N724   Zn736   2.017   .     S
N724   N725    1.288   .     D
N725   Zn735   2.017   .     S
O726   Zn735   1.951   .     S
O726   C737    1.273   .     S
O727   Zn736   1.977   .     S
O728   Zn735   1.958   .     S
O728   C740    1.289   .     S
O729   Zn736   1.918   .     S
O730   Zn735   1.977   .     S
O731   Zn736   1.951   .     S
O731   C788    1.278   1_455 S
O732   Zn735   1.918   .     S
O733   Zn736   1.958   .     S
O733   C789    1.288   1_455 S
C737   O773    1.292   .     A
C737   C739    1.405   .     S
C738   C740    1.452   .     S
C738   C751    1.406   .     A
C738   C746    1.403   .     A
C739   C419    1.350   1_565 S
C739   H484    1.088   1_565 S
C740   O775    1.298   .     A
C741   C742    1.420   .     S
C742   O776    1.291   .     A
C742   O823    1.278   .     S
C743   O778    1.296   .     A
C743   C745    1.443   .     S
C743   O825    1.288   .     S
C744   C757    1.393   .     A
C745   C757    1.400   .     A
C745   C756    1.383   .     A
C746   C333    1.387   1_556 S
C747   C749    1.390   .     A
C747   H769    1.083   .     S
C748   C751    1.405   .     A
C748   C335    1.420   1_556 S
C748   C338    1.410   1_556 S
C749   H768    1.079   .     S
C750   H761    1.086   .     S
C750   C465    1.499   1_565 S
C750   O504    1.221   1_565 S
C751   C755    1.415   .     A
C752   C756    1.387   .     A
C753   C754    1.392   .     A
C753   C330    1.404   1_556 S
C753   C338    1.421   1_556 S
C754   H764    1.084   .     S
C754   C755    1.387   .     A
C755   H759    1.082   .     S
C756   H766    1.080   .     S
C757   H804    1.083   .     S
H762   N770    1.029   .     S
H763   N771    1.029   .     S
H765   C330    1.084   1_556 S
H767   C792    1.083   .     S
N770   Zn782   2.017   .     S
N770   N771    1.288   .     D
N771   Zn781   2.017   .     S
O772   Zn781   1.951   .     S
O772   C783    1.273   .     S
O773   Zn782   1.977   .     S
O774   Zn781   1.958   .     S
O774   C786    1.289   .     S
O775   Zn782   1.918   .     S
O776   Zn781   1.977   .     S
O777   Zn782   1.951   .     S
O778   Zn781   1.918   .     S
O779   Zn782   1.958   .     S
C783   O819    1.292   .     A
C783   C785    1.405   .     S
C784   C786    1.452   .     S
C784   C797    1.406   .     A
C784   C792    1.403   .     A
C785   C465    1.350   1_565 S
C785   H530    1.088   1_565 S
C786   O821    1.298   .     A
C787   C788    1.420   .     S
C787   C555    1.350   1_655 S
C788   O822    1.291   .     A
C788   O731    1.278   1_655 S
C789   O824    1.296   .     A
C789   C791    1.443   .     S
C789   O733    1.288   1_655 S
C790   C803    1.393   .     A
C791   C803    1.400   .     A
C791   C802    1.383   .     A
C792   C379    1.387   1_556 S
C793   C795    1.390   .     A
C793   H815    1.083   .     S
C794   C797    1.405   .     A
C794   C381    1.420   1_556 S
C794   C384    1.410   1_556 S
C795   H814    1.079   .     S
C796   H807    1.086   .     S
C796   C511    1.499   1_565 S
C796   O550    1.221   1_565 S
C797   C801    1.415   .     A
C798   C802    1.387   .     A
C799   C800    1.392   .     A
C799   C376    1.404   1_556 S
C799   C384    1.421   1_556 S
C800   H810    1.084   .     S
C800   C801    1.387   .     A
C801   H805    1.082   .     S
C802   H812    1.080   .     S
C803   H712    1.083   1_655 S
H808   N816    1.029   .     S
H809   N817    1.029   .     S
H811   C376    1.084   1_556 S
H813   C700    1.083   1_655 S
N816   Zn828   2.017   .     S
N816   N817    1.288   .     D
N817   Zn827   2.017   .     S
O818   Zn827   1.951   .     S
O818   C691    1.273   1_655 S
O819   Zn828   1.977   .     S
O820   Zn827   1.958   .     S
O820   C694    1.289   1_655 S
O821   Zn828   1.918   .     S
O822   Zn827   1.977   .     S
O823   Zn828   1.951   .     S
O824   Zn827   1.918   .     S
O825   Zn828   1.958   .     S
