data_str_m3_o2_o10_pcu_sym.181
_audit_creation_date              2020-01-03
_audit_creation_method            'Materials Studio'
_symmetry_space_group_name_H-M    'P1'
_symmetry_Int_Tables_number       1
_symmetry_cell_setting            triclinic
loop_
_symmetry_equiv_pos_as_xyz
  x,y,z
_cell_length_a                    25.7625
_cell_length_b                    29.8668
_cell_length_c                    28.3588
_cell_angle_alpha                 89.9956
_cell_angle_beta                  98.6450
_cell_angle_gamma                 89.9401
loop_
_atom_site_label
_atom_site_type_symbol
_atom_site_fract_x
_atom_site_fract_y
_atom_site_fract_z
_atom_site_U_iso_or_equiv
_atom_site_adp_type
_atom_site_occupancy
C1     C     0.16562   0.16402   0.24986   0.00000  Uiso   1.00
C2     C     0.16756   0.33595   0.25012   0.00000  Uiso   1.00
C3     C     0.12413   0.23286   0.04669   0.00000  Uiso   1.00
C4     C     0.18431   0.28710   0.44999   0.00000  Uiso   1.00
C5     C     0.12485   0.23307   0.09641   0.00000  Uiso   1.00
C6     C     0.18414   0.28653   0.40034   0.00000  Uiso   1.00
C7     C     0.20862   0.26690   0.10800   0.00000  Uiso   1.00
C8     C     0.14914   0.21335   0.39531   0.00000  Uiso   1.00
C9     C     0.20980   0.26696   0.05852   0.00000  Uiso   1.00
C10    C     0.14904   0.21231   0.44495   0.00000  Uiso   1.00
C11    C     0.16702   0.24979   0.02672   0.00000  Uiso   1.00
C12    C     0.16681   0.24965   0.47338   0.00000  Uiso   1.00
C13    C     0.06701   0.25004   0.23753   0.00000  Uiso   1.00
C14    C     0.26633   0.24998   0.26246   0.00000  Uiso   1.00
C15    C     0.01198   0.25004   0.23079   0.00000  Uiso   1.00
C16    C     0.32135   0.25006   0.26918   0.00000  Uiso   1.00
C17    C     0.20605   0.04755   0.27796   0.00000  Uiso   1.00
C18    C     0.12505   0.45228   0.26394   0.00000  Uiso   1.00
C19    C     0.20487   0.09370   0.27792   0.00000  Uiso   1.00
C20    C     0.12624   0.40614   0.26423   0.00000  Uiso   1.00
C21    C     0.16388   0.11618   0.24970   0.00000  Uiso   1.00
C22    C     0.16909   0.38375   0.25037   0.00000  Uiso   1.00
C23    C     0.12261   0.09278   0.22182   0.00000  Uiso   1.00
C24    C     0.21209   0.40715   0.23686   0.00000  Uiso   1.00
C25    C     0.12420   0.04618   0.22252   0.00000  Uiso   1.00
C26    C     0.21048   0.45375   0.23715   0.00000  Uiso   1.00
C27    C     0.16581   0.02401   0.25025   0.00000  Uiso   1.00
C28    C     0.16710   0.47588   0.25041   0.00000  Uiso   1.00
H29    H     0.32469   0.24996   0.19438   0.00000  Uiso   1.00
H30    H     0.00865   0.25013   0.30559   0.00000  Uiso   1.00
H31    H     0.23803   0.03016   0.29967   0.00000  Uiso   1.00
H32    H     0.09166   0.46963   0.27449   0.00000  Uiso   1.00
H33    H     0.23631   0.11199   0.29931   0.00000  Uiso   1.00
H34    H     0.09348   0.38778   0.27463   0.00000  Uiso   1.00
H35    H     0.09332   0.02693   0.20154   0.00000  Uiso   1.00
H36    H     0.24266   0.47303   0.22695   0.00000  Uiso   1.00
H37    H     0.08985   0.21999   0.02401   0.00000  Uiso   1.00
H38    H     0.19751   0.31698   0.46982   0.00000  Uiso   1.00
H39    H     0.09170   0.21975   0.11113   0.00000  Uiso   1.00
H40    H     0.19796   0.31552   0.38309   0.00000  Uiso   1.00
H41    H     0.24162   0.28028   0.13189   0.00000  Uiso   1.00
H42    H     0.13535   0.18450   0.37402   0.00000  Uiso   1.00
N43    N     0.16667   0.24999   0.12623   0.00000  Uiso   1.00
N44    N     0.16667   0.25001   0.37376   0.00000  Uiso   1.00
O45    O     0.16667   0.18453   0.28974   0.00000  Uiso   1.00
O46    O     0.16666   0.31546   0.21026   0.00000  Uiso   1.00
O47    O     0.16667   0.18453   0.21026   0.00000  Uiso   1.00
O48    O     0.16666   0.31547   0.28974   0.00000  Uiso   1.00
O49    O     0.09058   0.25000   0.28044   0.00000  Uiso   1.00
O50    O     0.24275   0.25000   0.21956   0.00000  Uiso   1.00
O51    O     0.09058   0.24999   0.20096   0.00000  Uiso   1.00
O52    O     0.24275   0.25000   0.29903   0.00000  Uiso   1.00
Zn53   Zn    0.16667   0.25000   0.30307   0.00000  Uiso   1.00
Zn54   Zn    0.16667   0.24999   0.19693   0.00000  Uiso   1.00
C55    C     0.07734   0.11624   0.19345   0.00000  Uiso   1.00
H56    H     0.07317   0.15227   0.19557   0.00000  Uiso   1.00
O57    O     0.04366   0.09544   0.16743   0.00000  Uiso   1.00
C58    C     0.25890   0.38365   0.22385   0.00000  Uiso   1.00
H59    H     0.26202   0.34749   0.22588   0.00000  Uiso   1.00
O60    O     0.29498   0.40454   0.21091   0.00000  Uiso   1.00
F61    F     0.25324   0.28260   0.04220   0.00000  Uiso   1.00
F62    F     0.13303   0.17447   0.46498   0.00000  Uiso   1.00
C63    C     0.49895   0.16402   0.24986   0.00000  Uiso   1.00
C64    C     0.50089   0.33595   0.25012   0.00000  Uiso   1.00
C65    C     0.45746   0.23286   0.04669   0.00000  Uiso   1.00
C66    C     0.51764   0.28710   0.44999   0.00000  Uiso   1.00
C67    C     0.45818   0.23307   0.09641   0.00000  Uiso   1.00
C68    C     0.51748   0.28653   0.40034   0.00000  Uiso   1.00
C69    C     0.54195   0.26690   0.10800   0.00000  Uiso   1.00
C70    C     0.48247   0.21335   0.39531   0.00000  Uiso   1.00
C71    C     0.54314   0.26696   0.05852   0.00000  Uiso   1.00
C72    C     0.48237   0.21231   0.44495   0.00000  Uiso   1.00
C73    C     0.50035   0.24979   0.02672   0.00000  Uiso   1.00
C74    C     0.50014   0.24965   0.47338   0.00000  Uiso   1.00
C75    C     0.40034   0.25004   0.23753   0.00000  Uiso   1.00
C76    C     0.59966   0.24998   0.26246   0.00000  Uiso   1.00
C77    C     0.34531   0.25004   0.23079   0.00000  Uiso   1.00
C78    C     0.65468   0.25006   0.26918   0.00000  Uiso   1.00
C79    C     0.53939   0.04755   0.27796   0.00000  Uiso   1.00
C80    C     0.45838   0.45228   0.26394   0.00000  Uiso   1.00
C81    C     0.53820   0.09370   0.27792   0.00000  Uiso   1.00
C82    C     0.45958   0.40614   0.26423   0.00000  Uiso   1.00
C83    C     0.49721   0.11618   0.24970   0.00000  Uiso   1.00
C84    C     0.50243   0.38375   0.25037   0.00000  Uiso   1.00
C85    C     0.45594   0.09278   0.22182   0.00000  Uiso   1.00
C86    C     0.54542   0.40715   0.23686   0.00000  Uiso   1.00
C87    C     0.45753   0.04618   0.22252   0.00000  Uiso   1.00
C88    C     0.54382   0.45375   0.23715   0.00000  Uiso   1.00
C89    C     0.49914   0.02401   0.25025   0.00000  Uiso   1.00
C90    C     0.50043   0.47588   0.25041   0.00000  Uiso   1.00
H91    H     0.65802   0.24996   0.19438   0.00000  Uiso   1.00
H92    H     0.34199   0.25013   0.30559   0.00000  Uiso   1.00
H93    H     0.57137   0.03016   0.29967   0.00000  Uiso   1.00
H94    H     0.42499   0.46963   0.27449   0.00000  Uiso   1.00
H95    H     0.56964   0.11199   0.29931   0.00000  Uiso   1.00
H96    H     0.42681   0.38778   0.27463   0.00000  Uiso   1.00
H97    H     0.42665   0.02693   0.20154   0.00000  Uiso   1.00
H98    H     0.57599   0.47303   0.22695   0.00000  Uiso   1.00
H99    H     0.42318   0.21999   0.02401   0.00000  Uiso   1.00
H100   H     0.53084   0.31698   0.46982   0.00000  Uiso   1.00
H101   H     0.42503   0.21975   0.11113   0.00000  Uiso   1.00
H102   H     0.53129   0.31552   0.38309   0.00000  Uiso   1.00
H103   H     0.57496   0.28028   0.13189   0.00000  Uiso   1.00
H104   H     0.46868   0.18450   0.37402   0.00000  Uiso   1.00
N105   N     0.50000   0.24999   0.12623   0.00000  Uiso   1.00
N106   N     0.50000   0.25001   0.37376   0.00000  Uiso   1.00
O107   O     0.50000   0.18453   0.28974   0.00000  Uiso   1.00
O108   O     0.50000   0.31546   0.21026   0.00000  Uiso   1.00
O109   O     0.50000   0.18453   0.21026   0.00000  Uiso   1.00
O110   O     0.50000   0.31547   0.28974   0.00000  Uiso   1.00
O111   O     0.42392   0.25000   0.28044   0.00000  Uiso   1.00
O112   O     0.57608   0.25000   0.21956   0.00000  Uiso   1.00
O113   O     0.42392   0.24999   0.20096   0.00000  Uiso   1.00
O114   O     0.57608   0.25000   0.29903   0.00000  Uiso   1.00
Zn115  Zn    0.50000   0.25000   0.30307   0.00000  Uiso   1.00
Zn116  Zn    0.50000   0.24999   0.19693   0.00000  Uiso   1.00
C117   C     0.41067   0.11624   0.19345   0.00000  Uiso   1.00
H118   H     0.40650   0.15227   0.19557   0.00000  Uiso   1.00
O119   O     0.37699   0.09544   0.16743   0.00000  Uiso   1.00
C120   C     0.59223   0.38365   0.22385   0.00000  Uiso   1.00
H121   H     0.59536   0.34749   0.22588   0.00000  Uiso   1.00
O122   O     0.62831   0.40454   0.21091   0.00000  Uiso   1.00
F123   F     0.58657   0.28260   0.04220   0.00000  Uiso   1.00
F124   F     0.46636   0.17447   0.46498   0.00000  Uiso   1.00
C125   C     0.83228   0.16402   0.24986   0.00000  Uiso   1.00
C126   C     0.83422   0.33595   0.25012   0.00000  Uiso   1.00
C127   C     0.79080   0.23286   0.04669   0.00000  Uiso   1.00
C128   C     0.85097   0.28710   0.44999   0.00000  Uiso   1.00
C129   C     0.79151   0.23307   0.09641   0.00000  Uiso   1.00
C130   C     0.85081   0.28653   0.40034   0.00000  Uiso   1.00
C131   C     0.87529   0.26690   0.10800   0.00000  Uiso   1.00
C132   C     0.81580   0.21335   0.39531   0.00000  Uiso   1.00
C133   C     0.87647   0.26696   0.05852   0.00000  Uiso   1.00
C134   C     0.81570   0.21231   0.44495   0.00000  Uiso   1.00
C135   C     0.83369   0.24979   0.02672   0.00000  Uiso   1.00
C136   C     0.83347   0.24965   0.47338   0.00000  Uiso   1.00
C137   C     0.73367   0.25004   0.23753   0.00000  Uiso   1.00
C138   C     0.93299   0.24998   0.26246   0.00000  Uiso   1.00
C139   C     0.67865   0.25004   0.23079   0.00000  Uiso   1.00
C140   C     0.98802   0.25006   0.26918   0.00000  Uiso   1.00
C141   C     0.87272   0.04755   0.27796   0.00000  Uiso   1.00
C142   C     0.79171   0.45228   0.26394   0.00000  Uiso   1.00
C143   C     0.87154   0.09370   0.27792   0.00000  Uiso   1.00
C144   C     0.79291   0.40614   0.26423   0.00000  Uiso   1.00
C145   C     0.83055   0.11618   0.24970   0.00000  Uiso   1.00
C146   C     0.83576   0.38375   0.25037   0.00000  Uiso   1.00
C147   C     0.78927   0.09278   0.22182   0.00000  Uiso   1.00
C148   C     0.87875   0.40715   0.23686   0.00000  Uiso   1.00
C149   C     0.79086   0.04618   0.22252   0.00000  Uiso   1.00
C150   C     0.87715   0.45375   0.23715   0.00000  Uiso   1.00
C151   C     0.83248   0.02401   0.25025   0.00000  Uiso   1.00
C152   C     0.83377   0.47588   0.25041   0.00000  Uiso   1.00
H153   H     0.99136   0.24996   0.19438   0.00000  Uiso   1.00
H154   H     0.67532   0.25013   0.30559   0.00000  Uiso   1.00
H155   H     0.90470   0.03016   0.29967   0.00000  Uiso   1.00
H156   H     0.75832   0.46963   0.27449   0.00000  Uiso   1.00
H157   H     0.90298   0.11199   0.29931   0.00000  Uiso   1.00
H158   H     0.76014   0.38778   0.27463   0.00000  Uiso   1.00
H159   H     0.75999   0.02693   0.20154   0.00000  Uiso   1.00
H160   H     0.90933   0.47303   0.22695   0.00000  Uiso   1.00
H161   H     0.75651   0.21999   0.02401   0.00000  Uiso   1.00
H162   H     0.86417   0.31698   0.46982   0.00000  Uiso   1.00
H163   H     0.75836   0.21975   0.11113   0.00000  Uiso   1.00
H164   H     0.86463   0.31552   0.38309   0.00000  Uiso   1.00
H165   H     0.90829   0.28028   0.13189   0.00000  Uiso   1.00
H166   H     0.80201   0.18450   0.37402   0.00000  Uiso   1.00
N167   N     0.83333   0.24999   0.12623   0.00000  Uiso   1.00
N168   N     0.83333   0.25001   0.37376   0.00000  Uiso   1.00
O169   O     0.83334   0.18453   0.28974   0.00000  Uiso   1.00
O170   O     0.83333   0.31546   0.21026   0.00000  Uiso   1.00
O171   O     0.83334   0.18453   0.21026   0.00000  Uiso   1.00
O172   O     0.83333   0.31547   0.28974   0.00000  Uiso   1.00
O173   O     0.75725   0.25000   0.28044   0.00000  Uiso   1.00
O174   O     0.90942   0.25000   0.21956   0.00000  Uiso   1.00
O175   O     0.75725   0.24999   0.20096   0.00000  Uiso   1.00
O176   O     0.90942   0.25000   0.29903   0.00000  Uiso   1.00
Zn177  Zn    0.83333   0.25000   0.30307   0.00000  Uiso   1.00
Zn178  Zn    0.83333   0.24999   0.19693   0.00000  Uiso   1.00
C179   C     0.74400   0.11624   0.19345   0.00000  Uiso   1.00
H180   H     0.73983   0.15227   0.19557   0.00000  Uiso   1.00
O181   O     0.71033   0.09544   0.16743   0.00000  Uiso   1.00
C182   C     0.92557   0.38365   0.22385   0.00000  Uiso   1.00
H183   H     0.92869   0.34749   0.22588   0.00000  Uiso   1.00
O184   O     0.96165   0.40454   0.21091   0.00000  Uiso   1.00
F185   F     0.91991   0.28260   0.04220   0.00000  Uiso   1.00
F186   F     0.79970   0.17447   0.46498   0.00000  Uiso   1.00
C187   C     0.16562   0.66402   0.24986   0.00000  Uiso   1.00
C188   C     0.16756   0.83595   0.25012   0.00000  Uiso   1.00
C189   C     0.12413   0.73286   0.04669   0.00000  Uiso   1.00
C190   C     0.18431   0.78710   0.44999   0.00000  Uiso   1.00
C191   C     0.12485   0.73307   0.09641   0.00000  Uiso   1.00
C192   C     0.18414   0.78653   0.40034   0.00000  Uiso   1.00
C193   C     0.20862   0.76690   0.10800   0.00000  Uiso   1.00
C194   C     0.14914   0.71335   0.39531   0.00000  Uiso   1.00
C195   C     0.20980   0.76696   0.05852   0.00000  Uiso   1.00
C196   C     0.14904   0.71231   0.44495   0.00000  Uiso   1.00
C197   C     0.16702   0.74979   0.02672   0.00000  Uiso   1.00
C198   C     0.16681   0.74965   0.47338   0.00000  Uiso   1.00
C199   C     0.06701   0.75004   0.23753   0.00000  Uiso   1.00
C200   C     0.26633   0.74998   0.26246   0.00000  Uiso   1.00
C201   C     0.01198   0.75004   0.23079   0.00000  Uiso   1.00
C202   C     0.32135   0.75006   0.26918   0.00000  Uiso   1.00
C203   C     0.20605   0.54755   0.27796   0.00000  Uiso   1.00
C204   C     0.12505   0.95228   0.26394   0.00000  Uiso   1.00
C205   C     0.20487   0.59370   0.27792   0.00000  Uiso   1.00
C206   C     0.12624   0.90614   0.26423   0.00000  Uiso   1.00
C207   C     0.16388   0.61618   0.24970   0.00000  Uiso   1.00
C208   C     0.16909   0.88375   0.25037   0.00000  Uiso   1.00
C209   C     0.12261   0.59278   0.22182   0.00000  Uiso   1.00
C210   C     0.21209   0.90715   0.23686   0.00000  Uiso   1.00
C211   C     0.12420   0.54618   0.22252   0.00000  Uiso   1.00
C212   C     0.21048   0.95375   0.23715   0.00000  Uiso   1.00
C213   C     0.16581   0.52401   0.25025   0.00000  Uiso   1.00
C214   C     0.16710   0.97588   0.25041   0.00000  Uiso   1.00
H215   H     0.32469   0.74996   0.19438   0.00000  Uiso   1.00
H216   H     0.00865   0.75013   0.30559   0.00000  Uiso   1.00
H217   H     0.23803   0.53016   0.29967   0.00000  Uiso   1.00
H218   H     0.09166   0.96963   0.27449   0.00000  Uiso   1.00
H219   H     0.23631   0.61199   0.29931   0.00000  Uiso   1.00
H220   H     0.09348   0.88778   0.27463   0.00000  Uiso   1.00
H221   H     0.09332   0.52693   0.20154   0.00000  Uiso   1.00
H222   H     0.24266   0.97303   0.22695   0.00000  Uiso   1.00
H223   H     0.08985   0.71999   0.02401   0.00000  Uiso   1.00
H224   H     0.19751   0.81698   0.46982   0.00000  Uiso   1.00
H225   H     0.09170   0.71975   0.11113   0.00000  Uiso   1.00
H226   H     0.19796   0.81552   0.38309   0.00000  Uiso   1.00
H227   H     0.24162   0.78028   0.13189   0.00000  Uiso   1.00
H228   H     0.13535   0.68450   0.37402   0.00000  Uiso   1.00
N229   N     0.16667   0.74999   0.12623   0.00000  Uiso   1.00
N230   N     0.16667   0.75001   0.37376   0.00000  Uiso   1.00
O231   O     0.16667   0.68453   0.28974   0.00000  Uiso   1.00
O232   O     0.16666   0.81546   0.21026   0.00000  Uiso   1.00
O233   O     0.16667   0.68453   0.21026   0.00000  Uiso   1.00
O234   O     0.16666   0.81547   0.28974   0.00000  Uiso   1.00
O235   O     0.09058   0.75000   0.28044   0.00000  Uiso   1.00
O236   O     0.24275   0.75000   0.21956   0.00000  Uiso   1.00
O237   O     0.09058   0.74999   0.20096   0.00000  Uiso   1.00
O238   O     0.24275   0.75000   0.29903   0.00000  Uiso   1.00
Zn239  Zn    0.16667   0.75000   0.30307   0.00000  Uiso   1.00
Zn240  Zn    0.16667   0.74999   0.19693   0.00000  Uiso   1.00
C241   C     0.07734   0.61624   0.19345   0.00000  Uiso   1.00
H242   H     0.07317   0.65227   0.19557   0.00000  Uiso   1.00
O243   O     0.04366   0.59544   0.16743   0.00000  Uiso   1.00
C244   C     0.25890   0.88365   0.22385   0.00000  Uiso   1.00
H245   H     0.26202   0.84749   0.22588   0.00000  Uiso   1.00
O246   O     0.29498   0.90454   0.21091   0.00000  Uiso   1.00
F247   F     0.25324   0.78260   0.04220   0.00000  Uiso   1.00
F248   F     0.13303   0.67447   0.46498   0.00000  Uiso   1.00
C249   C     0.49895   0.66402   0.24986   0.00000  Uiso   1.00
C250   C     0.50089   0.83595   0.25012   0.00000  Uiso   1.00
C251   C     0.45746   0.73286   0.04669   0.00000  Uiso   1.00
C252   C     0.51764   0.78710   0.44999   0.00000  Uiso   1.00
C253   C     0.45818   0.73307   0.09641   0.00000  Uiso   1.00
C254   C     0.51748   0.78653   0.40034   0.00000  Uiso   1.00
C255   C     0.54195   0.76690   0.10800   0.00000  Uiso   1.00
C256   C     0.48247   0.71335   0.39531   0.00000  Uiso   1.00
C257   C     0.54314   0.76696   0.05852   0.00000  Uiso   1.00
C258   C     0.48237   0.71231   0.44495   0.00000  Uiso   1.00
C259   C     0.50035   0.74979   0.02672   0.00000  Uiso   1.00
C260   C     0.50014   0.74965   0.47338   0.00000  Uiso   1.00
C261   C     0.40034   0.75004   0.23753   0.00000  Uiso   1.00
C262   C     0.59966   0.74998   0.26246   0.00000  Uiso   1.00
C263   C     0.34531   0.75004   0.23079   0.00000  Uiso   1.00
C264   C     0.65468   0.75006   0.26918   0.00000  Uiso   1.00
C265   C     0.53939   0.54755   0.27796   0.00000  Uiso   1.00
C266   C     0.45838   0.95228   0.26394   0.00000  Uiso   1.00
C267   C     0.53820   0.59370   0.27792   0.00000  Uiso   1.00
C268   C     0.45958   0.90614   0.26423   0.00000  Uiso   1.00
C269   C     0.49721   0.61618   0.24970   0.00000  Uiso   1.00
C270   C     0.50243   0.88375   0.25037   0.00000  Uiso   1.00
C271   C     0.45594   0.59278   0.22182   0.00000  Uiso   1.00
C272   C     0.54542   0.90715   0.23686   0.00000  Uiso   1.00
C273   C     0.45753   0.54618   0.22252   0.00000  Uiso   1.00
C274   C     0.54382   0.95375   0.23715   0.00000  Uiso   1.00
C275   C     0.49914   0.52401   0.25025   0.00000  Uiso   1.00
C276   C     0.50043   0.97588   0.25041   0.00000  Uiso   1.00
H277   H     0.65802   0.74996   0.19438   0.00000  Uiso   1.00
H278   H     0.34199   0.75013   0.30559   0.00000  Uiso   1.00
H279   H     0.57137   0.53016   0.29967   0.00000  Uiso   1.00
H280   H     0.42499   0.96963   0.27449   0.00000  Uiso   1.00
H281   H     0.56964   0.61199   0.29931   0.00000  Uiso   1.00
H282   H     0.42681   0.88778   0.27463   0.00000  Uiso   1.00
H283   H     0.42665   0.52693   0.20154   0.00000  Uiso   1.00
H284   H     0.57599   0.97303   0.22695   0.00000  Uiso   1.00
H285   H     0.42318   0.71999   0.02401   0.00000  Uiso   1.00
H286   H     0.53084   0.81698   0.46982   0.00000  Uiso   1.00
H287   H     0.42503   0.71975   0.11113   0.00000  Uiso   1.00
H288   H     0.53129   0.81552   0.38309   0.00000  Uiso   1.00
H289   H     0.57496   0.78028   0.13189   0.00000  Uiso   1.00
H290   H     0.46868   0.68450   0.37402   0.00000  Uiso   1.00
N291   N     0.50000   0.74999   0.12623   0.00000  Uiso   1.00
N292   N     0.50000   0.75001   0.37376   0.00000  Uiso   1.00
O293   O     0.50000   0.68453   0.28974   0.00000  Uiso   1.00
O294   O     0.50000   0.81546   0.21026   0.00000  Uiso   1.00
O295   O     0.50000   0.68453   0.21026   0.00000  Uiso   1.00
O296   O     0.50000   0.81547   0.28974   0.00000  Uiso   1.00
O297   O     0.42392   0.75000   0.28044   0.00000  Uiso   1.00
O298   O     0.57608   0.75000   0.21956   0.00000  Uiso   1.00
O299   O     0.42392   0.74999   0.20096   0.00000  Uiso   1.00
O300   O     0.57608   0.75000   0.29903   0.00000  Uiso   1.00
Zn301  Zn    0.50000   0.75000   0.30307   0.00000  Uiso   1.00
Zn302  Zn    0.50000   0.74999   0.19693   0.00000  Uiso   1.00
C303   C     0.41067   0.61624   0.19345   0.00000  Uiso   1.00
H304   H     0.40650   0.65227   0.19557   0.00000  Uiso   1.00
O305   O     0.37699   0.59544   0.16743   0.00000  Uiso   1.00
C306   C     0.59223   0.88365   0.22385   0.00000  Uiso   1.00
H307   H     0.59536   0.84749   0.22588   0.00000  Uiso   1.00
O308   O     0.62831   0.90454   0.21091   0.00000  Uiso   1.00
F309   F     0.58657   0.78260   0.04220   0.00000  Uiso   1.00
F310   F     0.46636   0.67447   0.46498   0.00000  Uiso   1.00
C311   C     0.83228   0.66402   0.24986   0.00000  Uiso   1.00
C312   C     0.83422   0.83595   0.25012   0.00000  Uiso   1.00
C313   C     0.79080   0.73286   0.04669   0.00000  Uiso   1.00
C314   C     0.85097   0.78710   0.44999   0.00000  Uiso   1.00
C315   C     0.79151   0.73307   0.09641   0.00000  Uiso   1.00
C316   C     0.85081   0.78653   0.40034   0.00000  Uiso   1.00
C317   C     0.87529   0.76690   0.10800   0.00000  Uiso   1.00
C318   C     0.81580   0.71335   0.39531   0.00000  Uiso   1.00
C319   C     0.87647   0.76696   0.05852   0.00000  Uiso   1.00
C320   C     0.81570   0.71231   0.44495   0.00000  Uiso   1.00
C321   C     0.83369   0.74979   0.02672   0.00000  Uiso   1.00
C322   C     0.83347   0.74965   0.47338   0.00000  Uiso   1.00
C323   C     0.73367   0.75004   0.23753   0.00000  Uiso   1.00
C324   C     0.93299   0.74998   0.26246   0.00000  Uiso   1.00
C325   C     0.67865   0.75004   0.23079   0.00000  Uiso   1.00
C326   C     0.98802   0.75006   0.26918   0.00000  Uiso   1.00
C327   C     0.87272   0.54755   0.27796   0.00000  Uiso   1.00
C328   C     0.79171   0.95228   0.26394   0.00000  Uiso   1.00
C329   C     0.87154   0.59370   0.27792   0.00000  Uiso   1.00
C330   C     0.79291   0.90614   0.26423   0.00000  Uiso   1.00
C331   C     0.83055   0.61618   0.24970   0.00000  Uiso   1.00
C332   C     0.83576   0.88375   0.25037   0.00000  Uiso   1.00
C333   C     0.78927   0.59278   0.22182   0.00000  Uiso   1.00
C334   C     0.87875   0.90715   0.23686   0.00000  Uiso   1.00
C335   C     0.79086   0.54618   0.22252   0.00000  Uiso   1.00
C336   C     0.87715   0.95375   0.23715   0.00000  Uiso   1.00
C337   C     0.83248   0.52401   0.25025   0.00000  Uiso   1.00
C338   C     0.83377   0.97588   0.25041   0.00000  Uiso   1.00
H339   H     0.99136   0.74996   0.19438   0.00000  Uiso   1.00
H340   H     0.67532   0.75013   0.30559   0.00000  Uiso   1.00
H341   H     0.90470   0.53016   0.29967   0.00000  Uiso   1.00
H342   H     0.75832   0.96963   0.27449   0.00000  Uiso   1.00
H343   H     0.90298   0.61199   0.29931   0.00000  Uiso   1.00
H344   H     0.76014   0.88778   0.27463   0.00000  Uiso   1.00
H345   H     0.75999   0.52693   0.20154   0.00000  Uiso   1.00
H346   H     0.90933   0.97303   0.22695   0.00000  Uiso   1.00
H347   H     0.75651   0.71999   0.02401   0.00000  Uiso   1.00
H348   H     0.86417   0.81698   0.46982   0.00000  Uiso   1.00
H349   H     0.75836   0.71975   0.11113   0.00000  Uiso   1.00
H350   H     0.86463   0.81552   0.38309   0.00000  Uiso   1.00
H351   H     0.90829   0.78028   0.13189   0.00000  Uiso   1.00
H352   H     0.80201   0.68450   0.37402   0.00000  Uiso   1.00
N353   N     0.83333   0.74999   0.12623   0.00000  Uiso   1.00
N354   N     0.83333   0.75001   0.37376   0.00000  Uiso   1.00
O355   O     0.83334   0.68453   0.28974   0.00000  Uiso   1.00
O356   O     0.83333   0.81546   0.21026   0.00000  Uiso   1.00
O357   O     0.83334   0.68453   0.21026   0.00000  Uiso   1.00
O358   O     0.83333   0.81547   0.28974   0.00000  Uiso   1.00
O359   O     0.75725   0.75000   0.28044   0.00000  Uiso   1.00
O360   O     0.90942   0.75000   0.21956   0.00000  Uiso   1.00
O361   O     0.75725   0.74999   0.20096   0.00000  Uiso   1.00
O362   O     0.90942   0.75000   0.29903   0.00000  Uiso   1.00
Zn363  Zn    0.83333   0.75000   0.30307   0.00000  Uiso   1.00
Zn364  Zn    0.83333   0.74999   0.19693   0.00000  Uiso   1.00
C365   C     0.74400   0.61624   0.19345   0.00000  Uiso   1.00
H366   H     0.73983   0.65227   0.19557   0.00000  Uiso   1.00
O367   O     0.71033   0.59544   0.16743   0.00000  Uiso   1.00
C368   C     0.92557   0.88365   0.22385   0.00000  Uiso   1.00
H369   H     0.92869   0.84749   0.22588   0.00000  Uiso   1.00
O370   O     0.96165   0.90454   0.21091   0.00000  Uiso   1.00
F371   F     0.91991   0.78260   0.04220   0.00000  Uiso   1.00
F372   F     0.79970   0.67447   0.46498   0.00000  Uiso   1.00
C373   C     0.16562   0.16402   0.74986   0.00000  Uiso   1.00
C374   C     0.16756   0.33595   0.75012   0.00000  Uiso   1.00
C375   C     0.12413   0.23286   0.54669   0.00000  Uiso   1.00
C376   C     0.18431   0.28710   0.94999   0.00000  Uiso   1.00
C377   C     0.12485   0.23307   0.59641   0.00000  Uiso   1.00
C378   C     0.18414   0.28653   0.90034   0.00000  Uiso   1.00
C379   C     0.20862   0.26690   0.60800   0.00000  Uiso   1.00
C380   C     0.14914   0.21335   0.89531   0.00000  Uiso   1.00
C381   C     0.20980   0.26696   0.55852   0.00000  Uiso   1.00
C382   C     0.14904   0.21231   0.94495   0.00000  Uiso   1.00
C383   C     0.16702   0.24979   0.52672   0.00000  Uiso   1.00
C384   C     0.16681   0.24965   0.97338   0.00000  Uiso   1.00
C385   C     0.06701   0.25004   0.73753   0.00000  Uiso   1.00
C386   C     0.26633   0.24998   0.76246   0.00000  Uiso   1.00
C387   C     0.01198   0.25004   0.73079   0.00000  Uiso   1.00
C388   C     0.32135   0.25006   0.76918   0.00000  Uiso   1.00
C389   C     0.20605   0.04755   0.77796   0.00000  Uiso   1.00
C390   C     0.12505   0.45228   0.76394   0.00000  Uiso   1.00
C391   C     0.20487   0.09370   0.77792   0.00000  Uiso   1.00
C392   C     0.12624   0.40614   0.76423   0.00000  Uiso   1.00
C393   C     0.16388   0.11618   0.74970   0.00000  Uiso   1.00
C394   C     0.16909   0.38375   0.75037   0.00000  Uiso   1.00
C395   C     0.12261   0.09278   0.72182   0.00000  Uiso   1.00
C396   C     0.21209   0.40715   0.73686   0.00000  Uiso   1.00
C397   C     0.12420   0.04618   0.72252   0.00000  Uiso   1.00
C398   C     0.21048   0.45375   0.73715   0.00000  Uiso   1.00
C399   C     0.16581   0.02401   0.75025   0.00000  Uiso   1.00
C400   C     0.16710   0.47588   0.75041   0.00000  Uiso   1.00
H401   H     0.32469   0.24996   0.69438   0.00000  Uiso   1.00
H402   H     0.00865   0.25013   0.80559   0.00000  Uiso   1.00
H403   H     0.23803   0.03016   0.79967   0.00000  Uiso   1.00
H404   H     0.09166   0.46963   0.77449   0.00000  Uiso   1.00
H405   H     0.23631   0.11199   0.79931   0.00000  Uiso   1.00
H406   H     0.09348   0.38778   0.77463   0.00000  Uiso   1.00
H407   H     0.09332   0.02693   0.70154   0.00000  Uiso   1.00
H408   H     0.24266   0.47303   0.72695   0.00000  Uiso   1.00
H409   H     0.08985   0.21999   0.52401   0.00000  Uiso   1.00
H410   H     0.19751   0.31698   0.96982   0.00000  Uiso   1.00
H411   H     0.09170   0.21975   0.61113   0.00000  Uiso   1.00
H412   H     0.19796   0.31552   0.88309   0.00000  Uiso   1.00
H413   H     0.24162   0.28028   0.63189   0.00000  Uiso   1.00
H414   H     0.13535   0.18450   0.87402   0.00000  Uiso   1.00
N415   N     0.16667   0.24999   0.62623   0.00000  Uiso   1.00
N416   N     0.16667   0.25001   0.87376   0.00000  Uiso   1.00
O417   O     0.16667   0.18453   0.78974   0.00000  Uiso   1.00
O418   O     0.16666   0.31546   0.71026   0.00000  Uiso   1.00
O419   O     0.16667   0.18453   0.71026   0.00000  Uiso   1.00
O420   O     0.16666   0.31547   0.78974   0.00000  Uiso   1.00
O421   O     0.09058   0.25000   0.78044   0.00000  Uiso   1.00
O422   O     0.24275   0.25000   0.71956   0.00000  Uiso   1.00
O423   O     0.09058   0.24999   0.70096   0.00000  Uiso   1.00
O424   O     0.24275   0.25000   0.79903   0.00000  Uiso   1.00
Zn425  Zn    0.16667   0.25000   0.80307   0.00000  Uiso   1.00
Zn426  Zn    0.16667   0.24999   0.69693   0.00000  Uiso   1.00
C427   C     0.07734   0.11624   0.69345   0.00000  Uiso   1.00
H428   H     0.07317   0.15227   0.69557   0.00000  Uiso   1.00
O429   O     0.04366   0.09544   0.66743   0.00000  Uiso   1.00
C430   C     0.25890   0.38365   0.72385   0.00000  Uiso   1.00
H431   H     0.26202   0.34749   0.72588   0.00000  Uiso   1.00
O432   O     0.29498   0.40454   0.71091   0.00000  Uiso   1.00
F433   F     0.25324   0.28260   0.54220   0.00000  Uiso   1.00
F434   F     0.13303   0.17447   0.96498   0.00000  Uiso   1.00
C435   C     0.49895   0.16402   0.74986   0.00000  Uiso   1.00
C436   C     0.50089   0.33595   0.75012   0.00000  Uiso   1.00
C437   C     0.45746   0.23286   0.54669   0.00000  Uiso   1.00
C438   C     0.51764   0.28710   0.94999   0.00000  Uiso   1.00
C439   C     0.45818   0.23307   0.59641   0.00000  Uiso   1.00
C440   C     0.51748   0.28653   0.90034   0.00000  Uiso   1.00
C441   C     0.54195   0.26690   0.60800   0.00000  Uiso   1.00
C442   C     0.48247   0.21335   0.89531   0.00000  Uiso   1.00
C443   C     0.54314   0.26696   0.55852   0.00000  Uiso   1.00
C444   C     0.48237   0.21231   0.94495   0.00000  Uiso   1.00
C445   C     0.50035   0.24979   0.52672   0.00000  Uiso   1.00
C446   C     0.50014   0.24965   0.97338   0.00000  Uiso   1.00
C447   C     0.40034   0.25004   0.73753   0.00000  Uiso   1.00
C448   C     0.59966   0.24998   0.76246   0.00000  Uiso   1.00
C449   C     0.34531   0.25004   0.73079   0.00000  Uiso   1.00
C450   C     0.65468   0.25006   0.76918   0.00000  Uiso   1.00
C451   C     0.53939   0.04755   0.77796   0.00000  Uiso   1.00
C452   C     0.45838   0.45228   0.76394   0.00000  Uiso   1.00
C453   C     0.53820   0.09370   0.77792   0.00000  Uiso   1.00
C454   C     0.45958   0.40614   0.76423   0.00000  Uiso   1.00
C455   C     0.49721   0.11618   0.74970   0.00000  Uiso   1.00
C456   C     0.50243   0.38375   0.75037   0.00000  Uiso   1.00
C457   C     0.45594   0.09278   0.72182   0.00000  Uiso   1.00
C458   C     0.54542   0.40715   0.73686   0.00000  Uiso   1.00
C459   C     0.45753   0.04618   0.72252   0.00000  Uiso   1.00
C460   C     0.54382   0.45375   0.73715   0.00000  Uiso   1.00
C461   C     0.49914   0.02401   0.75025   0.00000  Uiso   1.00
C462   C     0.50043   0.47588   0.75041   0.00000  Uiso   1.00
H463   H     0.65802   0.24996   0.69438   0.00000  Uiso   1.00
H464   H     0.34199   0.25013   0.80559   0.00000  Uiso   1.00
H465   H     0.57137   0.03016   0.79967   0.00000  Uiso   1.00
H466   H     0.42499   0.46963   0.77449   0.00000  Uiso   1.00
H467   H     0.56964   0.11199   0.79931   0.00000  Uiso   1.00
H468   H     0.42681   0.38778   0.77463   0.00000  Uiso   1.00
H469   H     0.42665   0.02693   0.70154   0.00000  Uiso   1.00
H470   H     0.57599   0.47303   0.72695   0.00000  Uiso   1.00
H471   H     0.42318   0.21999   0.52401   0.00000  Uiso   1.00
H472   H     0.53084   0.31698   0.96982   0.00000  Uiso   1.00
H473   H     0.42503   0.21975   0.61113   0.00000  Uiso   1.00
H474   H     0.53129   0.31552   0.88309   0.00000  Uiso   1.00
H475   H     0.57496   0.28028   0.63189   0.00000  Uiso   1.00
H476   H     0.46868   0.18450   0.87402   0.00000  Uiso   1.00
N477   N     0.50000   0.24999   0.62623   0.00000  Uiso   1.00
N478   N     0.50000   0.25001   0.87376   0.00000  Uiso   1.00
O479   O     0.50000   0.18453   0.78974   0.00000  Uiso   1.00
O480   O     0.50000   0.31546   0.71026   0.00000  Uiso   1.00
O481   O     0.50000   0.18453   0.71026   0.00000  Uiso   1.00
O482   O     0.50000   0.31547   0.78974   0.00000  Uiso   1.00
O483   O     0.42392   0.25000   0.78044   0.00000  Uiso   1.00
O484   O     0.57608   0.25000   0.71956   0.00000  Uiso   1.00
O485   O     0.42392   0.24999   0.70096   0.00000  Uiso   1.00
O486   O     0.57608   0.25000   0.79903   0.00000  Uiso   1.00
Zn487  Zn    0.50000   0.25000   0.80307   0.00000  Uiso   1.00
Zn488  Zn    0.50000   0.24999   0.69693   0.00000  Uiso   1.00
C489   C     0.41067   0.11624   0.69345   0.00000  Uiso   1.00
H490   H     0.40650   0.15227   0.69557   0.00000  Uiso   1.00
O491   O     0.37699   0.09544   0.66743   0.00000  Uiso   1.00
C492   C     0.59223   0.38365   0.72385   0.00000  Uiso   1.00
H493   H     0.59536   0.34749   0.72588   0.00000  Uiso   1.00
O494   O     0.62831   0.40454   0.71091   0.00000  Uiso   1.00
F495   F     0.58657   0.28260   0.54220   0.00000  Uiso   1.00
F496   F     0.46636   0.17447   0.96498   0.00000  Uiso   1.00
C497   C     0.83228   0.16402   0.74986   0.00000  Uiso   1.00
C498   C     0.83422   0.33595   0.75012   0.00000  Uiso   1.00
C499   C     0.79080   0.23286   0.54669   0.00000  Uiso   1.00
C500   C     0.85097   0.28710   0.94999   0.00000  Uiso   1.00
C501   C     0.79151   0.23307   0.59641   0.00000  Uiso   1.00
C502   C     0.85081   0.28653   0.90034   0.00000  Uiso   1.00
C503   C     0.87529   0.26690   0.60800   0.00000  Uiso   1.00
C504   C     0.81580   0.21335   0.89531   0.00000  Uiso   1.00
C505   C     0.87647   0.26696   0.55852   0.00000  Uiso   1.00
C506   C     0.81570   0.21231   0.94495   0.00000  Uiso   1.00
C507   C     0.83369   0.24979   0.52672   0.00000  Uiso   1.00
C508   C     0.83347   0.24965   0.97338   0.00000  Uiso   1.00
C509   C     0.73367   0.25004   0.73753   0.00000  Uiso   1.00
C510   C     0.93299   0.24998   0.76246   0.00000  Uiso   1.00
C511   C     0.67865   0.25004   0.73079   0.00000  Uiso   1.00
C512   C     0.98802   0.25006   0.76918   0.00000  Uiso   1.00
C513   C     0.87272   0.04755   0.77796   0.00000  Uiso   1.00
C514   C     0.79171   0.45228   0.76394   0.00000  Uiso   1.00
C515   C     0.87154   0.09370   0.77792   0.00000  Uiso   1.00
C516   C     0.79291   0.40614   0.76423   0.00000  Uiso   1.00
C517   C     0.83055   0.11618   0.74970   0.00000  Uiso   1.00
C518   C     0.83576   0.38375   0.75037   0.00000  Uiso   1.00
C519   C     0.78927   0.09278   0.72182   0.00000  Uiso   1.00
C520   C     0.87875   0.40715   0.73686   0.00000  Uiso   1.00
C521   C     0.79086   0.04618   0.72252   0.00000  Uiso   1.00
C522   C     0.87715   0.45375   0.73715   0.00000  Uiso   1.00
C523   C     0.83248   0.02401   0.75025   0.00000  Uiso   1.00
C524   C     0.83377   0.47588   0.75041   0.00000  Uiso   1.00
H525   H     0.99136   0.24996   0.69438   0.00000  Uiso   1.00
H526   H     0.67532   0.25013   0.80559   0.00000  Uiso   1.00
H527   H     0.90470   0.03016   0.79967   0.00000  Uiso   1.00
H528   H     0.75832   0.46963   0.77449   0.00000  Uiso   1.00
H529   H     0.90298   0.11199   0.79931   0.00000  Uiso   1.00
H530   H     0.76014   0.38778   0.77463   0.00000  Uiso   1.00
H531   H     0.75999   0.02693   0.70154   0.00000  Uiso   1.00
H532   H     0.90933   0.47303   0.72695   0.00000  Uiso   1.00
H533   H     0.75651   0.21999   0.52401   0.00000  Uiso   1.00
H534   H     0.86417   0.31698   0.96982   0.00000  Uiso   1.00
H535   H     0.75836   0.21975   0.61113   0.00000  Uiso   1.00
H536   H     0.86463   0.31552   0.88309   0.00000  Uiso   1.00
H537   H     0.90829   0.28028   0.63189   0.00000  Uiso   1.00
H538   H     0.80201   0.18450   0.87402   0.00000  Uiso   1.00
N539   N     0.83333   0.24999   0.62623   0.00000  Uiso   1.00
N540   N     0.83333   0.25001   0.87376   0.00000  Uiso   1.00
O541   O     0.83334   0.18453   0.78974   0.00000  Uiso   1.00
O542   O     0.83333   0.31546   0.71026   0.00000  Uiso   1.00
O543   O     0.83334   0.18453   0.71026   0.00000  Uiso   1.00
O544   O     0.83333   0.31547   0.78974   0.00000  Uiso   1.00
O545   O     0.75725   0.25000   0.78044   0.00000  Uiso   1.00
O546   O     0.90942   0.25000   0.71956   0.00000  Uiso   1.00
O547   O     0.75725   0.24999   0.70096   0.00000  Uiso   1.00
O548   O     0.90942   0.25000   0.79903   0.00000  Uiso   1.00
Zn549  Zn    0.83333   0.25000   0.80307   0.00000  Uiso   1.00
Zn550  Zn    0.83333   0.24999   0.69693   0.00000  Uiso   1.00
C551   C     0.74400   0.11624   0.69345   0.00000  Uiso   1.00
H552   H     0.73983   0.15227   0.69557   0.00000  Uiso   1.00
O553   O     0.71033   0.09544   0.66743   0.00000  Uiso   1.00
C554   C     0.92557   0.38365   0.72385   0.00000  Uiso   1.00
H555   H     0.92869   0.34749   0.72588   0.00000  Uiso   1.00
O556   O     0.96165   0.40454   0.71091   0.00000  Uiso   1.00
F557   F     0.91991   0.28260   0.54220   0.00000  Uiso   1.00
F558   F     0.79970   0.17447   0.96498   0.00000  Uiso   1.00
C559   C     0.16562   0.66402   0.74986   0.00000  Uiso   1.00
C560   C     0.16756   0.83595   0.75012   0.00000  Uiso   1.00
C561   C     0.12413   0.73286   0.54669   0.00000  Uiso   1.00
C562   C     0.18431   0.78710   0.94999   0.00000  Uiso   1.00
C563   C     0.12485   0.73307   0.59641   0.00000  Uiso   1.00
C564   C     0.18414   0.78653   0.90034   0.00000  Uiso   1.00
C565   C     0.20862   0.76690   0.60800   0.00000  Uiso   1.00
C566   C     0.14914   0.71335   0.89531   0.00000  Uiso   1.00
C567   C     0.20980   0.76696   0.55852   0.00000  Uiso   1.00
C568   C     0.14904   0.71231   0.94495   0.00000  Uiso   1.00
C569   C     0.16702   0.74979   0.52672   0.00000  Uiso   1.00
C570   C     0.16681   0.74965   0.97338   0.00000  Uiso   1.00
C571   C     0.06701   0.75004   0.73753   0.00000  Uiso   1.00
C572   C     0.26633   0.74998   0.76246   0.00000  Uiso   1.00
C573   C     0.01198   0.75004   0.73079   0.00000  Uiso   1.00
C574   C     0.32135   0.75006   0.76918   0.00000  Uiso   1.00
C575   C     0.20605   0.54755   0.77796   0.00000  Uiso   1.00
C576   C     0.12505   0.95228   0.76394   0.00000  Uiso   1.00
C577   C     0.20487   0.59370   0.77792   0.00000  Uiso   1.00
C578   C     0.12624   0.90614   0.76423   0.00000  Uiso   1.00
C579   C     0.16388   0.61618   0.74970   0.00000  Uiso   1.00
C580   C     0.16909   0.88375   0.75037   0.00000  Uiso   1.00
C581   C     0.12261   0.59278   0.72182   0.00000  Uiso   1.00
C582   C     0.21209   0.90715   0.73686   0.00000  Uiso   1.00
C583   C     0.12420   0.54618   0.72252   0.00000  Uiso   1.00
C584   C     0.21048   0.95375   0.73715   0.00000  Uiso   1.00
C585   C     0.16581   0.52401   0.75025   0.00000  Uiso   1.00
C586   C     0.16710   0.97588   0.75041   0.00000  Uiso   1.00
H587   H     0.32469   0.74996   0.69438   0.00000  Uiso   1.00
H588   H     0.00865   0.75013   0.80559   0.00000  Uiso   1.00
H589   H     0.23803   0.53016   0.79967   0.00000  Uiso   1.00
H590   H     0.09166   0.96963   0.77449   0.00000  Uiso   1.00
H591   H     0.23631   0.61199   0.79931   0.00000  Uiso   1.00
H592   H     0.09348   0.88778   0.77463   0.00000  Uiso   1.00
H593   H     0.09332   0.52693   0.70154   0.00000  Uiso   1.00
H594   H     0.24266   0.97303   0.72695   0.00000  Uiso   1.00
H595   H     0.08985   0.71999   0.52401   0.00000  Uiso   1.00
H596   H     0.19751   0.81698   0.96982   0.00000  Uiso   1.00
H597   H     0.09170   0.71975   0.61113   0.00000  Uiso   1.00
H598   H     0.19796   0.81552   0.88309   0.00000  Uiso   1.00
H599   H     0.24162   0.78028   0.63189   0.00000  Uiso   1.00
H600   H     0.13535   0.68450   0.87402   0.00000  Uiso   1.00
N601   N     0.16667   0.74999   0.62623   0.00000  Uiso   1.00
N602   N     0.16667   0.75001   0.87376   0.00000  Uiso   1.00
O603   O     0.16667   0.68453   0.78974   0.00000  Uiso   1.00
O604   O     0.16666   0.81546   0.71026   0.00000  Uiso   1.00
O605   O     0.16667   0.68453   0.71026   0.00000  Uiso   1.00
O606   O     0.16666   0.81547   0.78974   0.00000  Uiso   1.00
O607   O     0.09058   0.75000   0.78044   0.00000  Uiso   1.00
O608   O     0.24275   0.75000   0.71956   0.00000  Uiso   1.00
O609   O     0.09058   0.74999   0.70096   0.00000  Uiso   1.00
O610   O     0.24275   0.75000   0.79903   0.00000  Uiso   1.00
Zn611  Zn    0.16667   0.75000   0.80307   0.00000  Uiso   1.00
Zn612  Zn    0.16667   0.74999   0.69693   0.00000  Uiso   1.00
C613   C     0.07734   0.61624   0.69345   0.00000  Uiso   1.00
H614   H     0.07317   0.65227   0.69557   0.00000  Uiso   1.00
O615   O     0.04366   0.59544   0.66743   0.00000  Uiso   1.00
C616   C     0.25890   0.88365   0.72385   0.00000  Uiso   1.00
H617   H     0.26202   0.84749   0.72588   0.00000  Uiso   1.00
O618   O     0.29498   0.90454   0.71091   0.00000  Uiso   1.00
F619   F     0.25324   0.78260   0.54220   0.00000  Uiso   1.00
F620   F     0.13303   0.67447   0.96498   0.00000  Uiso   1.00
C621   C     0.49895   0.66402   0.74986   0.00000  Uiso   1.00
C622   C     0.50089   0.83595   0.75012   0.00000  Uiso   1.00
C623   C     0.45746   0.73286   0.54669   0.00000  Uiso   1.00
C624   C     0.51764   0.78710   0.94999   0.00000  Uiso   1.00
C625   C     0.45818   0.73307   0.59641   0.00000  Uiso   1.00
C626   C     0.51748   0.78653   0.90034   0.00000  Uiso   1.00
C627   C     0.54195   0.76690   0.60800   0.00000  Uiso   1.00
C628   C     0.48247   0.71335   0.89531   0.00000  Uiso   1.00
C629   C     0.54314   0.76696   0.55852   0.00000  Uiso   1.00
C630   C     0.48237   0.71231   0.94495   0.00000  Uiso   1.00
C631   C     0.50035   0.74979   0.52672   0.00000  Uiso   1.00
C632   C     0.50014   0.74965   0.97338   0.00000  Uiso   1.00
C633   C     0.40034   0.75004   0.73753   0.00000  Uiso   1.00
C634   C     0.59966   0.74998   0.76246   0.00000  Uiso   1.00
C635   C     0.34531   0.75004   0.73079   0.00000  Uiso   1.00
C636   C     0.65468   0.75006   0.76918   0.00000  Uiso   1.00
C637   C     0.53939   0.54755   0.77796   0.00000  Uiso   1.00
C638   C     0.45838   0.95228   0.76394   0.00000  Uiso   1.00
C639   C     0.53820   0.59370   0.77792   0.00000  Uiso   1.00
C640   C     0.45958   0.90614   0.76423   0.00000  Uiso   1.00
C641   C     0.49721   0.61618   0.74970   0.00000  Uiso   1.00
C642   C     0.50243   0.88375   0.75037   0.00000  Uiso   1.00
C643   C     0.45594   0.59278   0.72182   0.00000  Uiso   1.00
C644   C     0.54542   0.90715   0.73686   0.00000  Uiso   1.00
C645   C     0.45753   0.54618   0.72252   0.00000  Uiso   1.00
C646   C     0.54382   0.95375   0.73715   0.00000  Uiso   1.00
C647   C     0.49914   0.52401   0.75025   0.00000  Uiso   1.00
C648   C     0.50043   0.97588   0.75041   0.00000  Uiso   1.00
H649   H     0.65802   0.74996   0.69438   0.00000  Uiso   1.00
H650   H     0.34199   0.75013   0.80559   0.00000  Uiso   1.00
H651   H     0.57137   0.53016   0.79967   0.00000  Uiso   1.00
H652   H     0.42499   0.96963   0.77449   0.00000  Uiso   1.00
H653   H     0.56964   0.61199   0.79931   0.00000  Uiso   1.00
H654   H     0.42681   0.88778   0.77463   0.00000  Uiso   1.00
H655   H     0.42665   0.52693   0.70154   0.00000  Uiso   1.00
H656   H     0.57599   0.97303   0.72695   0.00000  Uiso   1.00
H657   H     0.42318   0.71999   0.52401   0.00000  Uiso   1.00
H658   H     0.53084   0.81698   0.96982   0.00000  Uiso   1.00
H659   H     0.42503   0.71975   0.61113   0.00000  Uiso   1.00
H660   H     0.53129   0.81552   0.88309   0.00000  Uiso   1.00
H661   H     0.57496   0.78028   0.63189   0.00000  Uiso   1.00
H662   H     0.46868   0.68450   0.87402   0.00000  Uiso   1.00
N663   N     0.50000   0.74999   0.62623   0.00000  Uiso   1.00
N664   N     0.50000   0.75001   0.87376   0.00000  Uiso   1.00
O665   O     0.50000   0.68453   0.78974   0.00000  Uiso   1.00
O666   O     0.50000   0.81546   0.71026   0.00000  Uiso   1.00
O667   O     0.50000   0.68453   0.71026   0.00000  Uiso   1.00
O668   O     0.50000   0.81547   0.78974   0.00000  Uiso   1.00
O669   O     0.42392   0.75000   0.78044   0.00000  Uiso   1.00
O670   O     0.57608   0.75000   0.71956   0.00000  Uiso   1.00
O671   O     0.42392   0.74999   0.70096   0.00000  Uiso   1.00
O672   O     0.57608   0.75000   0.79903   0.00000  Uiso   1.00
Zn673  Zn    0.50000   0.75000   0.80307   0.00000  Uiso   1.00
Zn674  Zn    0.50000   0.74999   0.69693   0.00000  Uiso   1.00
C675   C     0.41067   0.61624   0.69345   0.00000  Uiso   1.00
H676   H     0.40650   0.65227   0.69557   0.00000  Uiso   1.00
O677   O     0.37699   0.59544   0.66743   0.00000  Uiso   1.00
C678   C     0.59223   0.88365   0.72385   0.00000  Uiso   1.00
H679   H     0.59536   0.84749   0.72588   0.00000  Uiso   1.00
O680   O     0.62831   0.90454   0.71091   0.00000  Uiso   1.00
F681   F     0.58657   0.78260   0.54220   0.00000  Uiso   1.00
F682   F     0.46636   0.67447   0.96498   0.00000  Uiso   1.00
C683   C     0.83228   0.66402   0.74986   0.00000  Uiso   1.00
C684   C     0.83422   0.83595   0.75012   0.00000  Uiso   1.00
C685   C     0.79080   0.73286   0.54669   0.00000  Uiso   1.00
C686   C     0.85097   0.78710   0.94999   0.00000  Uiso   1.00
C687   C     0.79151   0.73307   0.59641   0.00000  Uiso   1.00
C688   C     0.85081   0.78653   0.90034   0.00000  Uiso   1.00
C689   C     0.87529   0.76690   0.60800   0.00000  Uiso   1.00
C690   C     0.81580   0.71335   0.89531   0.00000  Uiso   1.00
C691   C     0.87647   0.76696   0.55852   0.00000  Uiso   1.00
C692   C     0.81570   0.71231   0.94495   0.00000  Uiso   1.00
C693   C     0.83369   0.74979   0.52672   0.00000  Uiso   1.00
C694   C     0.83347   0.74965   0.97338   0.00000  Uiso   1.00
C695   C     0.73367   0.75004   0.73753   0.00000  Uiso   1.00
C696   C     0.93299   0.74998   0.76246   0.00000  Uiso   1.00
C697   C     0.67865   0.75004   0.73079   0.00000  Uiso   1.00
C698   C     0.98802   0.75006   0.76918   0.00000  Uiso   1.00
C699   C     0.87272   0.54755   0.77796   0.00000  Uiso   1.00
C700   C     0.79171   0.95228   0.76394   0.00000  Uiso   1.00
C701   C     0.87154   0.59370   0.77792   0.00000  Uiso   1.00
C702   C     0.79291   0.90614   0.76423   0.00000  Uiso   1.00
C703   C     0.83055   0.61618   0.74970   0.00000  Uiso   1.00
C704   C     0.83576   0.88375   0.75037   0.00000  Uiso   1.00
C705   C     0.78927   0.59278   0.72182   0.00000  Uiso   1.00
C706   C     0.87875   0.90715   0.73686   0.00000  Uiso   1.00
C707   C     0.79086   0.54618   0.72252   0.00000  Uiso   1.00
C708   C     0.87715   0.95375   0.73715   0.00000  Uiso   1.00
C709   C     0.83248   0.52401   0.75025   0.00000  Uiso   1.00
C710   C     0.83377   0.97588   0.75041   0.00000  Uiso   1.00
H711   H     0.99136   0.74996   0.69438   0.00000  Uiso   1.00
H712   H     0.67532   0.75013   0.80559   0.00000  Uiso   1.00
H713   H     0.90470   0.53016   0.79967   0.00000  Uiso   1.00
H714   H     0.75832   0.96963   0.77449   0.00000  Uiso   1.00
H715   H     0.90298   0.61199   0.79931   0.00000  Uiso   1.00
H716   H     0.76014   0.88778   0.77463   0.00000  Uiso   1.00
H717   H     0.75999   0.52693   0.70154   0.00000  Uiso   1.00
H718   H     0.90933   0.97303   0.72695   0.00000  Uiso   1.00
H719   H     0.75651   0.71999   0.52401   0.00000  Uiso   1.00
H720   H     0.86417   0.81698   0.96982   0.00000  Uiso   1.00
H721   H     0.75836   0.71975   0.61113   0.00000  Uiso   1.00
H722   H     0.86463   0.81552   0.88309   0.00000  Uiso   1.00
H723   H     0.90829   0.78028   0.63189   0.00000  Uiso   1.00
H724   H     0.80201   0.68450   0.87402   0.00000  Uiso   1.00
N725   N     0.83333   0.74999   0.62623   0.00000  Uiso   1.00
N726   N     0.83333   0.75001   0.87376   0.00000  Uiso   1.00
O727   O     0.83334   0.68453   0.78974   0.00000  Uiso   1.00
O728   O     0.83333   0.81546   0.71026   0.00000  Uiso   1.00
O729   O     0.83334   0.68453   0.71026   0.00000  Uiso   1.00
O730   O     0.83333   0.81547   0.78974   0.00000  Uiso   1.00
O731   O     0.75725   0.75000   0.78044   0.00000  Uiso   1.00
O732   O     0.90942   0.75000   0.71956   0.00000  Uiso   1.00
O733   O     0.75725   0.74999   0.70096   0.00000  Uiso   1.00
O734   O     0.90942   0.75000   0.79903   0.00000  Uiso   1.00
Zn735  Zn    0.83333   0.75000   0.80307   0.00000  Uiso   1.00
Zn736  Zn    0.83333   0.74999   0.69693   0.00000  Uiso   1.00
C737   C     0.74400   0.61624   0.69345   0.00000  Uiso   1.00
H738   H     0.73983   0.65227   0.69557   0.00000  Uiso   1.00
O739   O     0.71033   0.59544   0.66743   0.00000  Uiso   1.00
C740   C     0.92557   0.88365   0.72385   0.00000  Uiso   1.00
H741   H     0.92869   0.84749   0.72588   0.00000  Uiso   1.00
O742   O     0.96165   0.90454   0.71091   0.00000  Uiso   1.00
F743   F     0.91991   0.78260   0.54220   0.00000  Uiso   1.00
F744   F     0.79970   0.67447   0.96498   0.00000  Uiso   1.00
loop_
_geom_bond_atom_site_label_1
_geom_bond_atom_site_label_2
_geom_bond_distance
_geom_bond_site_symmetry_2
_ccdc_geom_bond_type
C1     C21     1.430   .     S
C1     O45     1.283   .     A
C1     O47     1.283   .     A
C2     C22     1.428   .     S
C2     O48     1.283   .     A
C2     O46     1.283   .     A
C3     H37     1.082   .     S
C3     C11     1.409   .     A
C3     C5      1.407   .     A
C4     C12     1.409   .     A
C4     C6      1.407   .     A
C4     H38     1.082   .     S
C5     N43     1.363   .     A
C5     H39     1.082   .     S
C6     N44     1.364   .     A
C6     H40     1.081   .     S
C7     N43     1.364   .     A
C7     C9      1.408   .     A
C7     H41     1.081   .     S
C8     H42     1.081   .     S
C8     C10     1.408   .     A
C8     N44     1.364   .     A
C9     F61     1.357   .     S
C9     C11     1.412   .     A
C10    F62     1.357   .     S
C10    C12     1.412   .     A
C11    C384    1.512   1_554 S
C12    C383    1.512   .     S
C13    C15     1.402   .     S
C13    O49     1.276   .     A
C13    O51     1.278   .     A
C14    O52     1.278   .     A
C14    C16     1.402   .     S
C14    O50     1.276   .     A
C15    C140    1.330   1_455 S
C15    H153    1.088   1_455 S
C16    C77     1.330   .     S
C16    H92     1.088   .     S
C17    C19     1.379   .     A
C17    H31     1.084   .     S
C17    C27     1.394   .     A
C18    H32     1.084   .     S
C18    C28     1.394   .     A
C18    C20     1.378   .     A
C19    H33     1.084   .     S
C19    C21     1.397   .     A
C20    C22     1.396   .     A
C20    H34     1.084   .     S
C21    C23     1.412   .     A
C22    C24     1.411   .     A
C23    C55     1.488   .     S
C23    C25     1.392   .     A
C24    C58     1.488   .     S
C24    C26     1.392   .     A
C25    C27     1.397   .     A
C25    H35     1.084   .     S
C26    C28     1.397   .     A
C26    H36     1.084   .     S
C27    C214    1.438   1_545 S
C28    C213    1.438   .     S
H29    C77     1.088   .     S
H30    C140    1.088   1_455 S
N43    Zn54    2.005   .     S
N44    Zn53    2.005   .     S
O45    Zn53    1.992   .     S
O46    Zn54    1.992   .     S
O47    Zn54    1.991   .     S
O48    Zn53    1.991   .     S
O49    Zn53    1.969   .     S
O50    Zn54    1.969   .     S
O51    Zn54    1.981   .     S
O52    Zn53    1.981   .     S
C55    H56     1.084   .     S
C55    O57     1.221   .     D
C58    H59     1.084   .     S
C58    O60     1.221   .     D
C63    C83     1.430   .     S
C63    O107    1.283   .     A
C63    O109    1.283   .     A
C64    C84     1.428   .     S
C64    O110    1.283   .     A
C64    O108    1.283   .     A
C65    H99     1.082   .     S
C65    C73     1.409   .     A
C65    C67     1.407   .     A
C66    C74     1.409   .     A
C66    C68     1.407   .     A
C66    H100    1.082   .     S
C67    N105    1.363   .     A
C67    H101    1.082   .     S
C68    N106    1.364   .     A
C68    H102    1.081   .     S
C69    N105    1.364   .     A
C69    C71     1.408   .     A
C69    H103    1.081   .     S
C70    H104    1.081   .     S
C70    C72     1.408   .     A
C70    N106    1.364   .     A
C71    F123    1.357   .     S
C71    C73     1.412   .     A
C72    F124    1.357   .     S
C72    C74     1.412   .     A
C73    C446    1.512   1_554 S
C74    C445    1.512   .     S
C75    C77     1.402   .     S
C75    O111    1.276   .     A
C75    O113    1.278   .     A
C76    O114    1.278   .     A
C76    C78     1.402   .     S
C76    O112    1.276   .     A
C78    C139    1.330   .     S
C78    H154    1.088   .     S
C79    C81     1.379   .     A
C79    H93     1.084   .     S
C79    C89     1.394   .     A
C80    H94     1.084   .     S
C80    C90     1.394   .     A
C80    C82     1.378   .     A
C81    H95     1.084   .     S
C81    C83     1.397   .     A
C82    C84     1.396   .     A
C82    H96     1.084   .     S
C83    C85     1.412   .     A
C84    C86     1.411   .     A
C85    C117    1.488   .     S
C85    C87     1.392   .     A
C86    C120    1.488   .     S
C86    C88     1.392   .     A
C87    C89     1.397   .     A
C87    H97     1.084   .     S
C88    C90     1.397   .     A
C88    H98     1.084   .     S
C89    C276    1.438   1_545 S
C90    C275    1.438   .     S
H91    C139    1.088   .     S
N105   Zn116   2.005   .     S
N106   Zn115   2.005   .     S
O107   Zn115   1.992   .     S
O108   Zn116   1.992   .     S
O109   Zn116   1.991   .     S
O110   Zn115   1.991   .     S
O111   Zn115   1.969   .     S
O112   Zn116   1.969   .     S
O113   Zn116   1.981   .     S
O114   Zn115   1.981   .     S
C117   H118    1.084   .     S
C117   O119    1.221   .     D
C120   H121    1.084   .     S
C120   O122    1.221   .     D
C125   C145    1.430   .     S
C125   O169    1.283   .     A
C125   O171    1.283   .     A
C126   C146    1.428   .     S
C126   O172    1.283   .     A
C126   O170    1.283   .     A
C127   H161    1.082   .     S
C127   C135    1.409   .     A
C127   C129    1.407   .     A
C128   C136    1.409   .     A
C128   C130    1.407   .     A
C128   H162    1.082   .     S
C129   N167    1.363   .     A
C129   H163    1.082   .     S
C130   N168    1.364   .     A
C130   H164    1.081   .     S
C131   N167    1.364   .     A
C131   C133    1.408   .     A
C131   H165    1.081   .     S
C132   H166    1.081   .     S
C132   C134    1.408   .     A
C132   N168    1.364   .     A
C133   F185    1.357   .     S
C133   C135    1.412   .     A
C134   F186    1.357   .     S
C134   C136    1.412   .     A
C135   C508    1.512   1_554 S
C136   C507    1.512   .     S
C137   C139    1.402   .     S
C137   O173    1.276   .     A
C137   O175    1.278   .     A
C138   O176    1.278   .     A
C138   C140    1.402   .     S
C138   O174    1.276   .     A
C140   C15     1.330   1_655 S
C140   H30     1.088   1_655 S
C141   C143    1.379   .     A
C141   H155    1.084   .     S
C141   C151    1.394   .     A
C142   H156    1.084   .     S
C142   C152    1.394   .     A
C142   C144    1.378   .     A
C143   H157    1.084   .     S
C143   C145    1.397   .     A
C144   C146    1.396   .     A
C144   H158    1.084   .     S
C145   C147    1.412   .     A
C146   C148    1.411   .     A
C147   C179    1.488   .     S
C147   C149    1.392   .     A
C148   C182    1.488   .     S
C148   C150    1.392   .     A
C149   C151    1.397   .     A
C149   H159    1.084   .     S
C150   C152    1.397   .     A
C150   H160    1.084   .     S
C151   C338    1.438   1_545 S
C152   C337    1.438   .     S
H153   C15     1.088   1_655 S
N167   Zn178   2.005   .     S
N168   Zn177   2.005   .     S
O169   Zn177   1.992   .     S
O170   Zn178   1.992   .     S
O171   Zn178   1.991   .     S
O172   Zn177   1.991   .     S
O173   Zn177   1.969   .     S
O174   Zn178   1.969   .     S
O175   Zn178   1.981   .     S
O176   Zn177   1.981   .     S
C179   H180    1.084   .     S
C179   O181    1.221   .     D
C182   H183    1.084   .     S
C182   O184    1.221   .     D
C187   C207    1.430   .     S
C187   O231    1.283   .     A
C187   O233    1.283   .     A
C188   C208    1.428   .     S
C188   O234    1.283   .     A
C188   O232    1.283   .     A
C189   H223    1.082   .     S
C189   C197    1.409   .     A
C189   C191    1.407   .     A
C190   C198    1.409   .     A
C190   C192    1.407   .     A
C190   H224    1.082   .     S
C191   N229    1.363   .     A
C191   H225    1.082   .     S
C192   N230    1.364   .     A
C192   H226    1.081   .     S
C193   N229    1.364   .     A
C193   C195    1.408   .     A
C193   H227    1.081   .     S
C194   H228    1.081   .     S
C194   C196    1.408   .     A
C194   N230    1.364   .     A
C195   F247    1.357   .     S
C195   C197    1.412   .     A
C196   F248    1.357   .     S
C196   C198    1.412   .     A
C197   C570    1.512   1_554 S
C198   C569    1.512   .     S
C199   C201    1.402   .     S
C199   O235    1.276   .     A
C199   O237    1.278   .     A
C200   O238    1.278   .     A
C200   C202    1.402   .     S
C200   O236    1.276   .     A
C201   C326    1.330   1_455 S
C201   H339    1.088   1_455 S
C202   C263    1.330   .     S
C202   H278    1.088   .     S
C203   C205    1.379   .     A
C203   H217    1.084   .     S
C203   C213    1.394   .     A
C204   H218    1.084   .     S
C204   C214    1.394   .     A
C204   C206    1.378   .     A
C205   H219    1.084   .     S
C205   C207    1.397   .     A
C206   C208    1.396   .     A
C206   H220    1.084   .     S
C207   C209    1.412   .     A
C208   C210    1.411   .     A
C209   C241    1.488   .     S
C209   C211    1.392   .     A
C210   C244    1.488   .     S
C210   C212    1.392   .     A
C211   C213    1.397   .     A
C211   H221    1.084   .     S
C212   C214    1.397   .     A
C212   H222    1.084   .     S
C214   C27     1.438   1_565 S
H215   C263    1.088   .     S
H216   C326    1.088   1_455 S
N229   Zn240   2.005   .     S
N230   Zn239   2.005   .     S
O231   Zn239   1.992   .     S
O232   Zn240   1.992   .     S
O233   Zn240   1.991   .     S
O234   Zn239   1.991   .     S
O235   Zn239   1.969   .     S
O236   Zn240   1.969   .     S
O237   Zn240   1.981   .     S
O238   Zn239   1.981   .     S
C241   H242    1.084   .     S
C241   O243    1.221   .     D
C244   H245    1.084   .     S
C244   O246    1.221   .     D
C249   C269    1.430   .     S
C249   O293    1.283   .     A
C249   O295    1.283   .     A
C250   C270    1.428   .     S
C250   O296    1.283   .     A
C250   O294    1.283   .     A
C251   H285    1.082   .     S
C251   C259    1.409   .     A
C251   C253    1.407   .     A
C252   C260    1.409   .     A
C252   C254    1.407   .     A
C252   H286    1.082   .     S
C253   N291    1.363   .     A
C253   H287    1.082   .     S
C254   N292    1.364   .     A
C254   H288    1.081   .     S
C255   N291    1.364   .     A
C255   C257    1.408   .     A
C255   H289    1.081   .     S
C256   H290    1.081   .     S
C256   C258    1.408   .     A
C256   N292    1.364   .     A
C257   F309    1.357   .     S
C257   C259    1.412   .     A
C258   F310    1.357   .     S
C258   C260    1.412   .     A
C259   C632    1.512   1_554 S
C260   C631    1.512   .     S
C261   C263    1.402   .     S
C261   O297    1.276   .     A
C261   O299    1.278   .     A
C262   O300    1.278   .     A
C262   C264    1.402   .     S
C262   O298    1.276   .     A
C264   C325    1.330   .     S
C264   H340    1.088   .     S
C265   C267    1.379   .     A
C265   H279    1.084   .     S
C265   C275    1.394   .     A
C266   H280    1.084   .     S
C266   C276    1.394   .     A
C266   C268    1.378   .     A
C267   H281    1.084   .     S
C267   C269    1.397   .     A
C268   C270    1.396   .     A
C268   H282    1.084   .     S
C269   C271    1.412   .     A
C270   C272    1.411   .     A
C271   C303    1.488   .     S
C271   C273    1.392   .     A
C272   C306    1.488   .     S
C272   C274    1.392   .     A
C273   C275    1.397   .     A
C273   H283    1.084   .     S
C274   C276    1.397   .     A
C274   H284    1.084   .     S
C276   C89     1.438   1_565 S
H277   C325    1.088   .     S
N291   Zn302   2.005   .     S
N292   Zn301   2.005   .     S
O293   Zn301   1.992   .     S
O294   Zn302   1.992   .     S
O295   Zn302   1.991   .     S
O296   Zn301   1.991   .     S
O297   Zn301   1.969   .     S
O298   Zn302   1.969   .     S
O299   Zn302   1.981   .     S
O300   Zn301   1.981   .     S
C303   H304    1.084   .     S
C303   O305    1.221   .     D
C306   H307    1.084   .     S
C306   O308    1.221   .     D
C311   C331    1.430   .     S
C311   O355    1.283   .     A
C311   O357    1.283   .     A
C312   C332    1.428   .     S
C312   O358    1.283   .     A
C312   O356    1.283   .     A
C313   H347    1.082   .     S
C313   C321    1.409   .     A
C313   C315    1.407   .     A
C314   C322    1.409   .     A
C314   C316    1.407   .     A
C314   H348    1.082   .     S
C315   N353    1.363   .     A
C315   H349    1.082   .     S
C316   N354    1.364   .     A
C316   H350    1.081   .     S
C317   N353    1.364   .     A
C317   C319    1.408   .     A
C317   H351    1.081   .     S
C318   H352    1.081   .     S
C318   C320    1.408   .     A
C318   N354    1.364   .     A
C319   F371    1.357   .     S
C319   C321    1.412   .     A
C320   F372    1.357   .     S
C320   C322    1.412   .     A
C321   C694    1.512   1_554 S
C322   C693    1.512   .     S
C323   C325    1.402   .     S
C323   O359    1.276   .     A
C323   O361    1.278   .     A
C324   O362    1.278   .     A
C324   C326    1.402   .     S
C324   O360    1.276   .     A
C326   C201    1.330   1_655 S
C326   H216    1.088   1_655 S
C327   C329    1.379   .     A
C327   H341    1.084   .     S
C327   C337    1.394   .     A
C328   H342    1.084   .     S
C328   C338    1.394   .     A
C328   C330    1.378   .     A
C329   H343    1.084   .     S
C329   C331    1.397   .     A
C330   C332    1.396   .     A
C330   H344    1.084   .     S
C331   C333    1.412   .     A
C332   C334    1.411   .     A
C333   C365    1.488   .     S
C333   C335    1.392   .     A
C334   C368    1.488   .     S
C334   C336    1.392   .     A
C335   C337    1.397   .     A
C335   H345    1.084   .     S
C336   C338    1.397   .     A
C336   H346    1.084   .     S
C338   C151    1.438   1_565 S
H339   C201    1.088   1_655 S
N353   Zn364   2.005   .     S
N354   Zn363   2.005   .     S
O355   Zn363   1.992   .     S
O356   Zn364   1.992   .     S
O357   Zn364   1.991   .     S
O358   Zn363   1.991   .     S
O359   Zn363   1.969   .     S
O360   Zn364   1.969   .     S
O361   Zn364   1.981   .     S
O362   Zn363   1.981   .     S
C365   H366    1.084   .     S
C365   O367    1.221   .     D
C368   H369    1.084   .     S
C368   O370    1.221   .     D
C373   C393    1.430   .     S
C373   O417    1.283   .     A
C373   O419    1.283   .     A
C374   C394    1.428   .     S
C374   O420    1.283   .     A
C374   O418    1.283   .     A
C375   H409    1.082   .     S
C375   C383    1.409   .     A
C375   C377    1.407   .     A
C376   C384    1.409   .     A
C376   C378    1.407   .     A
C376   H410    1.082   .     S
C377   N415    1.363   .     A
C377   H411    1.082   .     S
C378   N416    1.364   .     A
C378   H412    1.081   .     S
C379   N415    1.364   .     A
C379   C381    1.408   .     A
C379   H413    1.081   .     S
C380   H414    1.081   .     S
C380   C382    1.408   .     A
C380   N416    1.364   .     A
C381   F433    1.357   .     S
C381   C383    1.412   .     A
C382   F434    1.357   .     S
C382   C384    1.412   .     A
C384   C11     1.512   1_556 S
C385   C387    1.402   .     S
C385   O421    1.276   .     A
C385   O423    1.278   .     A
C386   O424    1.278   .     A
C386   C388    1.402   .     S
C386   O422    1.276   .     A
C387   C512    1.330   1_455 S
C387   H525    1.088   1_455 S
C388   C449    1.330   .     S
C388   H464    1.088   .     S
C389   C391    1.379   .     A
C389   H403    1.084   .     S
C389   C399    1.394   .     A
C390   H404    1.084   .     S
C390   C400    1.394   .     A
C390   C392    1.378   .     A
C391   H405    1.084   .     S
C391   C393    1.397   .     A
C392   C394    1.396   .     A
C392   H406    1.084   .     S
C393   C395    1.412   .     A
C394   C396    1.411   .     A
C395   C427    1.488   .     S
C395   C397    1.392   .     A
C396   C430    1.488   .     S
C396   C398    1.392   .     A
C397   C399    1.397   .     A
C397   H407    1.084   .     S
C398   C400    1.397   .     A
C398   H408    1.084   .     S
C399   C586    1.438   1_545 S
C400   C585    1.438   .     S
H401   C449    1.088   .     S
H402   C512    1.088   1_455 S
N415   Zn426   2.005   .     S
N416   Zn425   2.005   .     S
O417   Zn425   1.992   .     S
O418   Zn426   1.992   .     S
O419   Zn426   1.991   .     S
O420   Zn425   1.991   .     S
O421   Zn425   1.969   .     S
O422   Zn426   1.969   .     S
O423   Zn426   1.981   .     S
O424   Zn425   1.981   .     S
C427   H428    1.084   .     S
C427   O429    1.221   .     D
C430   H431    1.084   .     S
C430   O432    1.221   .     D
C435   C455    1.430   .     S
C435   O479    1.283   .     A
C435   O481    1.283   .     A
C436   C456    1.428   .     S
C436   O482    1.283   .     A
C436   O480    1.283   .     A
C437   H471    1.082   .     S
C437   C445    1.409   .     A
C437   C439    1.407   .     A
C438   C446    1.409   .     A
C438   C440    1.407   .     A
C438   H472    1.082   .     S
C439   N477    1.363   .     A
C439   H473    1.082   .     S
C440   N478    1.364   .     A
C440   H474    1.081   .     S
C441   N477    1.364   .     A
C441   C443    1.408   .     A
C441   H475    1.081   .     S
C442   H476    1.081   .     S
C442   C444    1.408   .     A
C442   N478    1.364   .     A
C443   F495    1.357   .     S
C443   C445    1.412   .     A
C444   F496    1.357   .     S
C444   C446    1.412   .     A
C446   C73     1.512   1_556 S
C447   C449    1.402   .     S
C447   O483    1.276   .     A
C447   O485    1.278   .     A
C448   O486    1.278   .     A
C448   C450    1.402   .     S
C448   O484    1.276   .     A
C450   C511    1.330   .     S
C450   H526    1.088   .     S
C451   C453    1.379   .     A
C451   H465    1.084   .     S
C451   C461    1.394   .     A
C452   H466    1.084   .     S
C452   C462    1.394   .     A
C452   C454    1.378   .     A
C453   H467    1.084   .     S
C453   C455    1.397   .     A
C454   C456    1.396   .     A
C454   H468    1.084   .     S
C455   C457    1.412   .     A
C456   C458    1.411   .     A
C457   C489    1.488   .     S
C457   C459    1.392   .     A
C458   C492    1.488   .     S
C458   C460    1.392   .     A
C459   C461    1.397   .     A
C459   H469    1.084   .     S
C460   C462    1.397   .     A
C460   H470    1.084   .     S
C461   C648    1.438   1_545 S
C462   C647    1.438   .     S
H463   C511    1.088   .     S
N477   Zn488   2.005   .     S
N478   Zn487   2.005   .     S
O479   Zn487   1.992   .     S
O480   Zn488   1.992   .     S
O481   Zn488   1.991   .     S
O482   Zn487   1.991   .     S
O483   Zn487   1.969   .     S
O484   Zn488   1.969   .     S
O485   Zn488   1.981   .     S
O486   Zn487   1.981   .     S
C489   H490    1.084   .     S
C489   O491    1.221   .     D
C492   H493    1.084   .     S
C492   O494    1.221   .     D
C497   C517    1.430   .     S
C497   O541    1.283   .     A
C497   O543    1.283   .     A
C498   C518    1.428   .     S
C498   O544    1.283   .     A
C498   O542    1.283   .     A
C499   H533    1.082   .     S
C499   C507    1.409   .     A
C499   C501    1.407   .     A
C500   C508    1.409   .     A
C500   C502    1.407   .     A
C500   H534    1.082   .     S
C501   N539    1.363   .     A
C501   H535    1.082   .     S
C502   N540    1.364   .     A
C502   H536    1.081   .     S
C503   N539    1.364   .     A
C503   C505    1.408   .     A
C503   H537    1.081   .     S
C504   H538    1.081   .     S
C504   C506    1.408   .     A
C504   N540    1.364   .     A
C505   F557    1.357   .     S
C505   C507    1.412   .     A
C506   F558    1.357   .     S
C506   C508    1.412   .     A
C508   C135    1.512   1_556 S
C509   C511    1.402   .     S
C509   O545    1.276   .     A
C509   O547    1.278   .     A
C510   O548    1.278   .     A
C510   C512    1.402   .     S
C510   O546    1.276   .     A
C512   C387    1.330   1_655 S
C512   H402    1.088   1_655 S
C513   C515    1.379   .     A
C513   H527    1.084   .     S
C513   C523    1.394   .     A
C514   H528    1.084   .     S
C514   C524    1.394   .     A
C514   C516    1.378   .     A
C515   H529    1.084   .     S
C515   C517    1.397   .     A
C516   C518    1.396   .     A
C516   H530    1.084   .     S
C517   C519    1.412   .     A
C518   C520    1.411   .     A
C519   C551    1.488   .     S
C519   C521    1.392   .     A
C520   C554    1.488   .     S
C520   C522    1.392   .     A
C521   C523    1.397   .     A
C521   H531    1.084   .     S
C522   C524    1.397   .     A
C522   H532    1.084   .     S
C523   C710    1.438   1_545 S
C524   C709    1.438   .     S
H525   C387    1.088   1_655 S
N539   Zn550   2.005   .     S
N540   Zn549   2.005   .     S
O541   Zn549   1.992   .     S
O542   Zn550   1.992   .     S
O543   Zn550   1.991   .     S
O544   Zn549   1.991   .     S
O545   Zn549   1.969   .     S
O546   Zn550   1.969   .     S
O547   Zn550   1.981   .     S
O548   Zn549   1.981   .     S
C551   H552    1.084   .     S
C551   O553    1.221   .     D
C554   H555    1.084   .     S
C554   O556    1.221   .     D
C559   C579    1.430   .     S
C559   O603    1.283   .     A
C559   O605    1.283   .     A
C560   C580    1.428   .     S
C560   O606    1.283   .     A
C560   O604    1.283   .     A
C561   H595    1.082   .     S
C561   C569    1.409   .     A
C561   C563    1.407   .     A
C562   C570    1.409   .     A
C562   C564    1.407   .     A
C562   H596    1.082   .     S
C563   N601    1.363   .     A
C563   H597    1.082   .     S
C564   N602    1.364   .     A
C564   H598    1.081   .     S
C565   N601    1.364   .     A
C565   C567    1.408   .     A
C565   H599    1.081   .     S
C566   H600    1.081   .     S
C566   C568    1.408   .     A
C566   N602    1.364   .     A
C567   F619    1.357   .     S
C567   C569    1.412   .     A
C568   F620    1.357   .     S
C568   C570    1.412   .     A
C570   C197    1.512   1_556 S
C571   C573    1.402   .     S
C571   O607    1.276   .     A
C571   O609    1.278   .     A
C572   O610    1.278   .     A
C572   C574    1.402   .     S
C572   O608    1.276   .     A
C573   C698    1.330   1_455 S
C573   H711    1.088   1_455 S
C574   C635    1.330   .     S
C574   H650    1.088   .     S
C575   C577    1.379   .     A
C575   H589    1.084   .     S
C575   C585    1.394   .     A
C576   H590    1.084   .     S
C576   C586    1.394   .     A
C576   C578    1.378   .     A
C577   H591    1.084   .     S
C577   C579    1.397   .     A
C578   C580    1.396   .     A
C578   H592    1.084   .     S
C579   C581    1.412   .     A
C580   C582    1.411   .     A
C581   C613    1.488   .     S
C581   C583    1.392   .     A
C582   C616    1.488   .     S
C582   C584    1.392   .     A
C583   C585    1.397   .     A
C583   H593    1.084   .     S
C584   C586    1.397   .     A
C584   H594    1.084   .     S
C586   C399    1.438   1_565 S
H587   C635    1.088   .     S
H588   C698    1.088   1_455 S
N601   Zn612   2.005   .     S
N602   Zn611   2.005   .     S
O603   Zn611   1.992   .     S
O604   Zn612   1.992   .     S
O605   Zn612   1.991   .     S
O606   Zn611   1.991   .     S
O607   Zn611   1.969   .     S
O608   Zn612   1.969   .     S
O609   Zn612   1.981   .     S
O610   Zn611   1.981   .     S
C613   H614    1.084   .     S
C613   O615    1.221   .     D
C616   H617    1.084   .     S
C616   O618    1.221   .     D
C621   C641    1.430   .     S
C621   O665    1.283   .     A
C621   O667    1.283   .     A
C622   C642    1.428   .     S
C622   O668    1.283   .     A
C622   O666    1.283   .     A
C623   H657    1.082   .     S
C623   C631    1.409   .     A
C623   C625    1.407   .     A
C624   C632    1.409   .     A
C624   C626    1.407   .     A
C624   H658    1.082   .     S
C625   N663    1.363   .     A
C625   H659    1.082   .     S
C626   N664    1.364   .     A
C626   H660    1.081   .     S
C627   N663    1.364   .     A
C627   C629    1.408   .     A
C627   H661    1.081   .     S
C628   H662    1.081   .     S
C628   C630    1.408   .     A
C628   N664    1.364   .     A
C629   F681    1.357   .     S
C629   C631    1.412   .     A
C630   F682    1.357   .     S
C630   C632    1.412   .     A
C632   C259    1.512   1_556 S
C633   C635    1.402   .     S
C633   O669    1.276   .     A
C633   O671    1.278   .     A
C634   O672    1.278   .     A
C634   C636    1.402   .     S
C634   O670    1.276   .     A
C636   C697    1.330   .     S
C636   H712    1.088   .     S
C637   C639    1.379   .     A
C637   H651    1.084   .     S
C637   C647    1.394   .     A
C638   H652    1.084   .     S
C638   C648    1.394   .     A
C638   C640    1.378   .     A
C639   H653    1.084   .     S
C639   C641    1.397   .     A
C640   C642    1.396   .     A
C640   H654    1.084   .     S
C641   C643    1.412   .     A
C642   C644    1.411   .     A
C643   C675    1.488   .     S
C643   C645    1.392   .     A
C644   C678    1.488   .     S
C644   C646    1.392   .     A
C645   C647    1.397   .     A
C645   H655    1.084   .     S
C646   C648    1.397   .     A
C646   H656    1.084   .     S
C648   C461    1.438   1_565 S
H649   C697    1.088   .     S
N663   Zn674   2.005   .     S
N664   Zn673   2.005   .     S
O665   Zn673   1.992   .     S
O666   Zn674   1.992   .     S
O667   Zn674   1.991   .     S
O668   Zn673   1.991   .     S
O669   Zn673   1.969   .     S
O670   Zn674   1.969   .     S
O671   Zn674   1.981   .     S
O672   Zn673   1.981   .     S
C675   H676    1.084   .     S
C675   O677    1.221   .     D
C678   H679    1.084   .     S
C678   O680    1.221   .     D
C683   C703    1.430   .     S
C683   O727    1.283   .     A
C683   O729    1.283   .     A
C684   C704    1.428   .     S
C684   O730    1.283   .     A
C684   O728    1.283   .     A
C685   H719    1.082   .     S
C685   C693    1.409   .     A
C685   C687    1.407   .     A
C686   C694    1.409   .     A
C686   C688    1.407   .     A
C686   H720    1.082   .     S
C687   N725    1.363   .     A
C687   H721    1.082   .     S
C688   N726    1.364   .     A
C688   H722    1.081   .     S
C689   N725    1.364   .     A
C689   C691    1.408   .     A
C689   H723    1.081   .     S
C690   H724    1.081   .     S
C690   C692    1.408   .     A
C690   N726    1.364   .     A
C691   F743    1.357   .     S
C691   C693    1.412   .     A
C692   F744    1.357   .     S
C692   C694    1.412   .     A
C694   C321    1.512   1_556 S
C695   C697    1.402   .     S
C695   O731    1.276   .     A
C695   O733    1.278   .     A
C696   O734    1.278   .     A
C696   C698    1.402   .     S
C696   O732    1.276   .     A
C698   C573    1.330   1_655 S
C698   H588    1.088   1_655 S
C699   C701    1.379   .     A
C699   H713    1.084   .     S
C699   C709    1.394   .     A
C700   H714    1.084   .     S
C700   C710    1.394   .     A
C700   C702    1.378   .     A
C701   H715    1.084   .     S
C701   C703    1.397   .     A
C702   C704    1.396   .     A
C702   H716    1.084   .     S
C703   C705    1.412   .     A
C704   C706    1.411   .     A
C705   C737    1.488   .     S
C705   C707    1.392   .     A
C706   C740    1.488   .     S
C706   C708    1.392   .     A
C707   C709    1.397   .     A
C707   H717    1.084   .     S
C708   C710    1.397   .     A
C708   H718    1.084   .     S
C710   C523    1.438   1_565 S
H711   C573    1.088   1_655 S
N725   Zn736   2.005   .     S
N726   Zn735   2.005   .     S
O727   Zn735   1.992   .     S
O728   Zn736   1.992   .     S
O729   Zn736   1.991   .     S
O730   Zn735   1.991   .     S
O731   Zn735   1.969   .     S
O732   Zn736   1.969   .     S
O733   Zn736   1.981   .     S
O734   Zn735   1.981   .     S
C737   H738    1.084   .     S
C737   O739    1.221   .     D
C740   H741    1.084   .     S
C740   O742    1.221   .     D
