data_str_m3_o2_o10_pcu_sym.122
_audit_creation_date              2020-01-03
_audit_creation_method            'Materials Studio'
_symmetry_space_group_name_H-M    'P1'
_symmetry_Int_Tables_number       1
_symmetry_cell_setting            triclinic
loop_
_symmetry_equiv_pos_as_xyz
  x,y,z
_cell_length_a                    25.7818
_cell_length_b                    29.7787
_cell_length_c                    28.4676
_cell_angle_alpha                 88.7424
_cell_angle_beta                  97.4569
_cell_angle_gamma                 91.0796
loop_
_atom_site_label
_atom_site_type_symbol
_atom_site_fract_x
_atom_site_fract_y
_atom_site_fract_z
_atom_site_U_iso_or_equiv
_atom_site_adp_type
_atom_site_occupancy
C1     C     0.16651   0.16391   0.25042   0.00000  Uiso   1.00
C2     C     0.16688   0.33628   0.24951   0.00000  Uiso   1.00
C3     C     0.14198   0.21513   0.05063   0.00000  Uiso   1.00
C4     C     0.20753   0.27114   0.45152   0.00000  Uiso   1.00
C5     C     0.14206   0.21606   0.10017   0.00000  Uiso   1.00
C6     C     0.20637   0.27098   0.40182   0.00000  Uiso   1.00
C7     C     0.19161   0.28390   0.10366   0.00000  Uiso   1.00
C8     C     0.12706   0.22891   0.39445   0.00000  Uiso   1.00
C9     C     0.19048   0.28478   0.05423   0.00000  Uiso   1.00
C10    C     0.12607   0.23003   0.44356   0.00000  Uiso   1.00
C11    C     0.16642   0.24998   0.02659   0.00000  Uiso   1.00
C12    C     0.16683   0.25042   0.47341   0.00000  Uiso   1.00
C13    C     0.06727   0.24957   0.23811   0.00000  Uiso   1.00
C14    C     0.26607   0.25043   0.26188   0.00000  Uiso   1.00
C15    C     0.01330   0.24168   0.23351   0.00000  Uiso   1.00
C16    C     0.32003   0.25837   0.26646   0.00000  Uiso   1.00
C17    C     0.14396   0.04222   0.27249   0.00000  Uiso   1.00
C18    C     0.15826   0.45718   0.21243   0.00000  Uiso   1.00
C19    C     0.13627   0.08804   0.27128   0.00000  Uiso   1.00
C20    C     0.15016   0.41119   0.21110   0.00000  Uiso   1.00
C21    C     0.17244   0.11620   0.25199   0.00000  Uiso   1.00
C22    C     0.17315   0.38448   0.24924   0.00000  Uiso   1.00
C23    C     0.21584   0.09882   0.23418   0.00000  Uiso   1.00
C24    C     0.20459   0.40392   0.28762   0.00000  Uiso   1.00
C25    C     0.22379   0.05291   0.23512   0.00000  Uiso   1.00
C26    C     0.21268   0.44998   0.28917   0.00000  Uiso   1.00
C27    C     0.18695   0.02467   0.25424   0.00000  Uiso   1.00
C28    C     0.18845   0.47655   0.25130   0.00000  Uiso   1.00
H29    H     0.11540   0.01999   0.28613   0.00000  Uiso   1.00
H30    H     0.13904   0.47824   0.18407   0.00000  Uiso   1.00
H31    H     0.24370   0.12109   0.21961   0.00000  Uiso   1.00
H32    H     0.22313   0.38319   0.31659   0.00000  Uiso   1.00
H33    H     0.12334   0.18687   0.03161   0.00000  Uiso   1.00
H34    H     0.24060   0.28696   0.47246   0.00000  Uiso   1.00
H35    H     0.12275   0.18925   0.11779   0.00000  Uiso   1.00
H36    H     0.23770   0.28734   0.38577   0.00000  Uiso   1.00
H37    H     0.20911   0.31282   0.03786   0.00000  Uiso   1.00
H38    H     0.09330   0.21427   0.45803   0.00000  Uiso   1.00
N39    N     0.16667   0.24999   0.12624   0.00000  Uiso   1.00
N40    N     0.16667   0.25001   0.37377   0.00000  Uiso   1.00
O41    O     0.16667   0.18454   0.28974   0.00000  Uiso   1.00
O42    O     0.16666   0.31547   0.21026   0.00000  Uiso   1.00
O43    O     0.16667   0.18453   0.21026   0.00000  Uiso   1.00
O44    O     0.16666   0.31547   0.28974   0.00000  Uiso   1.00
O45    O     0.09058   0.25000   0.28045   0.00000  Uiso   1.00
O46    O     0.24275   0.25000   0.21956   0.00000  Uiso   1.00
O47    O     0.09058   0.25000   0.20097   0.00000  Uiso   1.00
O48    O     0.24275   0.25001   0.29904   0.00000  Uiso   1.00
Zn49   Zn    0.16667   0.25001   0.30307   0.00000  Uiso   1.00
Zn50   Zn    0.16667   0.25000   0.19693   0.00000  Uiso   1.00
Br51   Br    0.32037   0.19761   0.18659   0.00000  Uiso   1.00
Br52   Br    0.01291   0.30274   0.31308   0.00000  Uiso   1.00
Br53   Br    0.07374   0.10995   0.29216   0.00000  Uiso   1.00
Br54   Br    0.10384   0.38775   0.15860   0.00000  Uiso   1.00
O55    O     0.26697   0.03746   0.21663   0.00000  Uiso   1.00
H56    H     0.26956   0.00456   0.22160   0.00000  Uiso   1.00
O57    O     0.24311   0.46730   0.32838   0.00000  Uiso   1.00
H58    H     0.24882   0.49994   0.32366   0.00000  Uiso   1.00
O59    O     0.21886   0.31800   0.12809   0.00000  Uiso   1.00
H60    H     0.23119   0.30641   0.16010   0.00000  Uiso   1.00
O61    O     0.08741   0.20547   0.36840   0.00000  Uiso   1.00
H62    H     0.10131   0.19473   0.34020   0.00000  Uiso   1.00
C63    C     0.49985   0.16391   0.25042   0.00000  Uiso   1.00
C64    C     0.50022   0.33628   0.24951   0.00000  Uiso   1.00
C65    C     0.47531   0.21513   0.05063   0.00000  Uiso   1.00
C66    C     0.54087   0.27114   0.45152   0.00000  Uiso   1.00
C67    C     0.47540   0.21606   0.10017   0.00000  Uiso   1.00
C68    C     0.53970   0.27098   0.40182   0.00000  Uiso   1.00
C69    C     0.52495   0.28390   0.10366   0.00000  Uiso   1.00
C70    C     0.46040   0.22891   0.39445   0.00000  Uiso   1.00
C71    C     0.52381   0.28478   0.05423   0.00000  Uiso   1.00
C72    C     0.45940   0.23003   0.44356   0.00000  Uiso   1.00
C73    C     0.49976   0.24998   0.02659   0.00000  Uiso   1.00
C74    C     0.50017   0.25042   0.47341   0.00000  Uiso   1.00
C75    C     0.40060   0.24957   0.23811   0.00000  Uiso   1.00
C76    C     0.59940   0.25043   0.26188   0.00000  Uiso   1.00
C77    C     0.34664   0.24168   0.23351   0.00000  Uiso   1.00
C78    C     0.65336   0.25837   0.26646   0.00000  Uiso   1.00
C79    C     0.47729   0.04222   0.27249   0.00000  Uiso   1.00
C80    C     0.49159   0.45718   0.21243   0.00000  Uiso   1.00
C81    C     0.46960   0.08804   0.27128   0.00000  Uiso   1.00
C82    C     0.48350   0.41119   0.21110   0.00000  Uiso   1.00
C83    C     0.50578   0.11620   0.25199   0.00000  Uiso   1.00
C84    C     0.50648   0.38448   0.24924   0.00000  Uiso   1.00
C85    C     0.54917   0.09882   0.23418   0.00000  Uiso   1.00
C86    C     0.53792   0.40392   0.28762   0.00000  Uiso   1.00
C87    C     0.55712   0.05291   0.23512   0.00000  Uiso   1.00
C88    C     0.54601   0.44998   0.28917   0.00000  Uiso   1.00
C89    C     0.52029   0.02467   0.25424   0.00000  Uiso   1.00
C90    C     0.52179   0.47655   0.25130   0.00000  Uiso   1.00
H91    H     0.44873   0.01999   0.28613   0.00000  Uiso   1.00
H92    H     0.47238   0.47824   0.18407   0.00000  Uiso   1.00
H93    H     0.57704   0.12109   0.21961   0.00000  Uiso   1.00
H94    H     0.55647   0.38319   0.31659   0.00000  Uiso   1.00
H95    H     0.45667   0.18687   0.03161   0.00000  Uiso   1.00
H96    H     0.57394   0.28696   0.47246   0.00000  Uiso   1.00
H97    H     0.45608   0.18925   0.11779   0.00000  Uiso   1.00
H98    H     0.57103   0.28734   0.38577   0.00000  Uiso   1.00
H99    H     0.54244   0.31282   0.03786   0.00000  Uiso   1.00
H100   H     0.42663   0.21427   0.45803   0.00000  Uiso   1.00
N101   N     0.50000   0.24999   0.12624   0.00000  Uiso   1.00
N102   N     0.50000   0.25001   0.37377   0.00000  Uiso   1.00
O103   O     0.50000   0.18454   0.28974   0.00000  Uiso   1.00
O104   O     0.50000   0.31547   0.21026   0.00000  Uiso   1.00
O105   O     0.50000   0.18453   0.21026   0.00000  Uiso   1.00
O106   O     0.50000   0.31547   0.28974   0.00000  Uiso   1.00
O107   O     0.42392   0.25000   0.28045   0.00000  Uiso   1.00
O108   O     0.57608   0.25000   0.21956   0.00000  Uiso   1.00
O109   O     0.42392   0.25000   0.20097   0.00000  Uiso   1.00
O110   O     0.57608   0.25001   0.29904   0.00000  Uiso   1.00
Zn111  Zn    0.50000   0.25001   0.30307   0.00000  Uiso   1.00
Zn112  Zn    0.50000   0.25000   0.19693   0.00000  Uiso   1.00
Br113  Br    0.65371   0.19761   0.18659   0.00000  Uiso   1.00
Br114  Br    0.34624   0.30274   0.31308   0.00000  Uiso   1.00
Br115  Br    0.40708   0.10995   0.29216   0.00000  Uiso   1.00
Br116  Br    0.43717   0.38775   0.15860   0.00000  Uiso   1.00
O117   O     0.60030   0.03746   0.21663   0.00000  Uiso   1.00
H118   H     0.60290   0.00456   0.22160   0.00000  Uiso   1.00
O119   O     0.57644   0.46730   0.32838   0.00000  Uiso   1.00
H120   H     0.58215   0.49994   0.32366   0.00000  Uiso   1.00
O121   O     0.55219   0.31800   0.12809   0.00000  Uiso   1.00
H122   H     0.56452   0.30641   0.16010   0.00000  Uiso   1.00
O123   O     0.42074   0.20547   0.36840   0.00000  Uiso   1.00
H124   H     0.43464   0.19473   0.34020   0.00000  Uiso   1.00
C125   C     0.83318   0.16391   0.25042   0.00000  Uiso   1.00
C126   C     0.83355   0.33628   0.24951   0.00000  Uiso   1.00
C127   C     0.80864   0.21513   0.05063   0.00000  Uiso   1.00
C128   C     0.87420   0.27114   0.45152   0.00000  Uiso   1.00
C129   C     0.80873   0.21606   0.10017   0.00000  Uiso   1.00
C130   C     0.87303   0.27098   0.40182   0.00000  Uiso   1.00
C131   C     0.85828   0.28390   0.10366   0.00000  Uiso   1.00
C132   C     0.79373   0.22891   0.39445   0.00000  Uiso   1.00
C133   C     0.85715   0.28478   0.05423   0.00000  Uiso   1.00
C134   C     0.79273   0.23003   0.44356   0.00000  Uiso   1.00
C135   C     0.83309   0.24998   0.02659   0.00000  Uiso   1.00
C136   C     0.83350   0.25042   0.47341   0.00000  Uiso   1.00
C137   C     0.73393   0.24957   0.23811   0.00000  Uiso   1.00
C138   C     0.93273   0.25043   0.26188   0.00000  Uiso   1.00
C139   C     0.67997   0.24168   0.23351   0.00000  Uiso   1.00
C140   C     0.98670   0.25837   0.26646   0.00000  Uiso   1.00
C141   C     0.81063   0.04222   0.27249   0.00000  Uiso   1.00
C142   C     0.82493   0.45718   0.21243   0.00000  Uiso   1.00
C143   C     0.80294   0.08804   0.27128   0.00000  Uiso   1.00
C144   C     0.81683   0.41119   0.21110   0.00000  Uiso   1.00
C145   C     0.83911   0.11620   0.25199   0.00000  Uiso   1.00
C146   C     0.83981   0.38448   0.24924   0.00000  Uiso   1.00
C147   C     0.88251   0.09882   0.23418   0.00000  Uiso   1.00
C148   C     0.87125   0.40392   0.28762   0.00000  Uiso   1.00
C149   C     0.89046   0.05291   0.23512   0.00000  Uiso   1.00
C150   C     0.87934   0.44998   0.28917   0.00000  Uiso   1.00
C151   C     0.85362   0.02467   0.25424   0.00000  Uiso   1.00
C152   C     0.85512   0.47655   0.25130   0.00000  Uiso   1.00
H153   H     0.78207   0.01999   0.28613   0.00000  Uiso   1.00
H154   H     0.80571   0.47824   0.18407   0.00000  Uiso   1.00
H155   H     0.91037   0.12109   0.21961   0.00000  Uiso   1.00
H156   H     0.88980   0.38319   0.31659   0.00000  Uiso   1.00
H157   H     0.79001   0.18687   0.03161   0.00000  Uiso   1.00
H158   H     0.90727   0.28696   0.47246   0.00000  Uiso   1.00
H159   H     0.78941   0.18925   0.11779   0.00000  Uiso   1.00
H160   H     0.90437   0.28734   0.38577   0.00000  Uiso   1.00
H161   H     0.87577   0.31282   0.03786   0.00000  Uiso   1.00
H162   H     0.75996   0.21427   0.45803   0.00000  Uiso   1.00
N163   N     0.83333   0.24999   0.12624   0.00000  Uiso   1.00
N164   N     0.83333   0.25001   0.37377   0.00000  Uiso   1.00
O165   O     0.83334   0.18454   0.28974   0.00000  Uiso   1.00
O166   O     0.83333   0.31547   0.21026   0.00000  Uiso   1.00
O167   O     0.83334   0.18453   0.21026   0.00000  Uiso   1.00
O168   O     0.83333   0.31547   0.28974   0.00000  Uiso   1.00
O169   O     0.75725   0.25000   0.28045   0.00000  Uiso   1.00
O170   O     0.90942   0.25000   0.21956   0.00000  Uiso   1.00
O171   O     0.75725   0.25000   0.20097   0.00000  Uiso   1.00
O172   O     0.90942   0.25001   0.29904   0.00000  Uiso   1.00
Zn173  Zn    0.83333   0.25001   0.30307   0.00000  Uiso   1.00
Zn174  Zn    0.83333   0.25000   0.19693   0.00000  Uiso   1.00
Br175  Br    0.98704   0.19761   0.18659   0.00000  Uiso   1.00
Br176  Br    0.67958   0.30274   0.31308   0.00000  Uiso   1.00
Br177  Br    0.74041   0.10995   0.29216   0.00000  Uiso   1.00
Br178  Br    0.77051   0.38775   0.15860   0.00000  Uiso   1.00
O179   O     0.93364   0.03746   0.21663   0.00000  Uiso   1.00
H180   H     0.93623   0.00456   0.22160   0.00000  Uiso   1.00
O181   O     0.90977   0.46730   0.32838   0.00000  Uiso   1.00
H182   H     0.91549   0.49994   0.32366   0.00000  Uiso   1.00
O183   O     0.88553   0.31800   0.12809   0.00000  Uiso   1.00
H184   H     0.89786   0.30641   0.16010   0.00000  Uiso   1.00
O185   O     0.75408   0.20547   0.36840   0.00000  Uiso   1.00
H186   H     0.76797   0.19473   0.34020   0.00000  Uiso   1.00
C187   C     0.16651   0.66391   0.25042   0.00000  Uiso   1.00
C188   C     0.16688   0.83628   0.24951   0.00000  Uiso   1.00
C189   C     0.14198   0.71513   0.05063   0.00000  Uiso   1.00
C190   C     0.20753   0.77114   0.45152   0.00000  Uiso   1.00
C191   C     0.14206   0.71606   0.10017   0.00000  Uiso   1.00
C192   C     0.20637   0.77098   0.40182   0.00000  Uiso   1.00
C193   C     0.19161   0.78390   0.10366   0.00000  Uiso   1.00
C194   C     0.12706   0.72891   0.39445   0.00000  Uiso   1.00
C195   C     0.19048   0.78478   0.05423   0.00000  Uiso   1.00
C196   C     0.12607   0.73003   0.44356   0.00000  Uiso   1.00
C197   C     0.16642   0.74998   0.02659   0.00000  Uiso   1.00
C198   C     0.16683   0.75042   0.47341   0.00000  Uiso   1.00
C199   C     0.06727   0.74957   0.23811   0.00000  Uiso   1.00
C200   C     0.26607   0.75043   0.26188   0.00000  Uiso   1.00
C201   C     0.01330   0.74168   0.23351   0.00000  Uiso   1.00
C202   C     0.32003   0.75837   0.26646   0.00000  Uiso   1.00
C203   C     0.14396   0.54222   0.27249   0.00000  Uiso   1.00
C204   C     0.15826   0.95718   0.21243   0.00000  Uiso   1.00
C205   C     0.13627   0.58804   0.27128   0.00000  Uiso   1.00
C206   C     0.15016   0.91119   0.21110   0.00000  Uiso   1.00
C207   C     0.17244   0.61620   0.25199   0.00000  Uiso   1.00
C208   C     0.17315   0.88448   0.24924   0.00000  Uiso   1.00
C209   C     0.21584   0.59882   0.23418   0.00000  Uiso   1.00
C210   C     0.20459   0.90392   0.28762   0.00000  Uiso   1.00
C211   C     0.22379   0.55291   0.23512   0.00000  Uiso   1.00
C212   C     0.21268   0.94998   0.28917   0.00000  Uiso   1.00
C213   C     0.18695   0.52467   0.25424   0.00000  Uiso   1.00
C214   C     0.18845   0.97655   0.25130   0.00000  Uiso   1.00
H215   H     0.11540   0.51999   0.28613   0.00000  Uiso   1.00
H216   H     0.13904   0.97824   0.18407   0.00000  Uiso   1.00
H217   H     0.24370   0.62109   0.21961   0.00000  Uiso   1.00
H218   H     0.22313   0.88319   0.31659   0.00000  Uiso   1.00
H219   H     0.12334   0.68687   0.03161   0.00000  Uiso   1.00
H220   H     0.24060   0.78696   0.47246   0.00000  Uiso   1.00
H221   H     0.12275   0.68925   0.11779   0.00000  Uiso   1.00
H222   H     0.23770   0.78734   0.38577   0.00000  Uiso   1.00
H223   H     0.20911   0.81282   0.03786   0.00000  Uiso   1.00
H224   H     0.09330   0.71427   0.45803   0.00000  Uiso   1.00
N225   N     0.16667   0.74999   0.12624   0.00000  Uiso   1.00
N226   N     0.16667   0.75001   0.37377   0.00000  Uiso   1.00
O227   O     0.16667   0.68454   0.28974   0.00000  Uiso   1.00
O228   O     0.16666   0.81547   0.21026   0.00000  Uiso   1.00
O229   O     0.16667   0.68453   0.21026   0.00000  Uiso   1.00
O230   O     0.16666   0.81547   0.28974   0.00000  Uiso   1.00
O231   O     0.09058   0.75000   0.28045   0.00000  Uiso   1.00
O232   O     0.24275   0.75000   0.21956   0.00000  Uiso   1.00
O233   O     0.09058   0.75000   0.20097   0.00000  Uiso   1.00
O234   O     0.24275   0.75001   0.29904   0.00000  Uiso   1.00
Zn235  Zn    0.16667   0.75001   0.30307   0.00000  Uiso   1.00
Zn236  Zn    0.16667   0.75000   0.19693   0.00000  Uiso   1.00
Br237  Br    0.32037   0.69761   0.18659   0.00000  Uiso   1.00
Br238  Br    0.01291   0.80274   0.31308   0.00000  Uiso   1.00
Br239  Br    0.07374   0.60995   0.29216   0.00000  Uiso   1.00
Br240  Br    0.10384   0.88775   0.15860   0.00000  Uiso   1.00
O241   O     0.26697   0.53746   0.21663   0.00000  Uiso   1.00
H242   H     0.26956   0.50456   0.22160   0.00000  Uiso   1.00
O243   O     0.24311   0.96730   0.32838   0.00000  Uiso   1.00
H244   H     0.24882   0.99994   0.32366   0.00000  Uiso   1.00
O245   O     0.21886   0.81800   0.12809   0.00000  Uiso   1.00
H246   H     0.23119   0.80641   0.16010   0.00000  Uiso   1.00
O247   O     0.08741   0.70547   0.36840   0.00000  Uiso   1.00
H248   H     0.10131   0.69473   0.34020   0.00000  Uiso   1.00
C249   C     0.49985   0.66391   0.25042   0.00000  Uiso   1.00
C250   C     0.50022   0.83628   0.24951   0.00000  Uiso   1.00
C251   C     0.47531   0.71513   0.05063   0.00000  Uiso   1.00
C252   C     0.54087   0.77114   0.45152   0.00000  Uiso   1.00
C253   C     0.47540   0.71606   0.10017   0.00000  Uiso   1.00
C254   C     0.53970   0.77098   0.40182   0.00000  Uiso   1.00
C255   C     0.52495   0.78390   0.10366   0.00000  Uiso   1.00
C256   C     0.46040   0.72891   0.39445   0.00000  Uiso   1.00
C257   C     0.52381   0.78478   0.05423   0.00000  Uiso   1.00
C258   C     0.45940   0.73003   0.44356   0.00000  Uiso   1.00
C259   C     0.49976   0.74998   0.02659   0.00000  Uiso   1.00
C260   C     0.50017   0.75042   0.47341   0.00000  Uiso   1.00
C261   C     0.40060   0.74957   0.23811   0.00000  Uiso   1.00
C262   C     0.59940   0.75043   0.26188   0.00000  Uiso   1.00
C263   C     0.34664   0.74168   0.23351   0.00000  Uiso   1.00
C264   C     0.65336   0.75837   0.26646   0.00000  Uiso   1.00
C265   C     0.47729   0.54222   0.27249   0.00000  Uiso   1.00
C266   C     0.49159   0.95718   0.21243   0.00000  Uiso   1.00
C267   C     0.46960   0.58804   0.27128   0.00000  Uiso   1.00
C268   C     0.48350   0.91119   0.21110   0.00000  Uiso   1.00
C269   C     0.50578   0.61620   0.25199   0.00000  Uiso   1.00
C270   C     0.50648   0.88448   0.24924   0.00000  Uiso   1.00
C271   C     0.54917   0.59882   0.23418   0.00000  Uiso   1.00
C272   C     0.53792   0.90392   0.28762   0.00000  Uiso   1.00
C273   C     0.55712   0.55291   0.23512   0.00000  Uiso   1.00
C274   C     0.54601   0.94998   0.28917   0.00000  Uiso   1.00
C275   C     0.52029   0.52467   0.25424   0.00000  Uiso   1.00
C276   C     0.52179   0.97655   0.25130   0.00000  Uiso   1.00
H277   H     0.44873   0.51999   0.28613   0.00000  Uiso   1.00
H278   H     0.47238   0.97824   0.18407   0.00000  Uiso   1.00
H279   H     0.57704   0.62109   0.21961   0.00000  Uiso   1.00
H280   H     0.55647   0.88319   0.31659   0.00000  Uiso   1.00
H281   H     0.45667   0.68687   0.03161   0.00000  Uiso   1.00
H282   H     0.57394   0.78696   0.47246   0.00000  Uiso   1.00
H283   H     0.45608   0.68925   0.11779   0.00000  Uiso   1.00
H284   H     0.57103   0.78734   0.38577   0.00000  Uiso   1.00
H285   H     0.54244   0.81282   0.03786   0.00000  Uiso   1.00
H286   H     0.42663   0.71427   0.45803   0.00000  Uiso   1.00
N287   N     0.50000   0.74999   0.12624   0.00000  Uiso   1.00
N288   N     0.50000   0.75001   0.37377   0.00000  Uiso   1.00
O289   O     0.50000   0.68454   0.28974   0.00000  Uiso   1.00
O290   O     0.50000   0.81547   0.21026   0.00000  Uiso   1.00
O291   O     0.50000   0.68453   0.21026   0.00000  Uiso   1.00
O292   O     0.50000   0.81547   0.28974   0.00000  Uiso   1.00
O293   O     0.42392   0.75000   0.28045   0.00000  Uiso   1.00
O294   O     0.57608   0.75000   0.21956   0.00000  Uiso   1.00
O295   O     0.42392   0.75000   0.20097   0.00000  Uiso   1.00
O296   O     0.57608   0.75001   0.29904   0.00000  Uiso   1.00
Zn297  Zn    0.50000   0.75001   0.30307   0.00000  Uiso   1.00
Zn298  Zn    0.50000   0.75000   0.19693   0.00000  Uiso   1.00
Br299  Br    0.65371   0.69761   0.18659   0.00000  Uiso   1.00
Br300  Br    0.34624   0.80274   0.31308   0.00000  Uiso   1.00
Br301  Br    0.40708   0.60995   0.29216   0.00000  Uiso   1.00
Br302  Br    0.43717   0.88775   0.15860   0.00000  Uiso   1.00
O303   O     0.60030   0.53746   0.21663   0.00000  Uiso   1.00
H304   H     0.60290   0.50456   0.22160   0.00000  Uiso   1.00
O305   O     0.57644   0.96730   0.32838   0.00000  Uiso   1.00
H306   H     0.58215   0.99994   0.32366   0.00000  Uiso   1.00
O307   O     0.55219   0.81800   0.12809   0.00000  Uiso   1.00
H308   H     0.56452   0.80641   0.16010   0.00000  Uiso   1.00
O309   O     0.42074   0.70547   0.36840   0.00000  Uiso   1.00
H310   H     0.43464   0.69473   0.34020   0.00000  Uiso   1.00
C311   C     0.83318   0.66391   0.25042   0.00000  Uiso   1.00
C312   C     0.83355   0.83628   0.24951   0.00000  Uiso   1.00
C313   C     0.80864   0.71513   0.05063   0.00000  Uiso   1.00
C314   C     0.87420   0.77114   0.45152   0.00000  Uiso   1.00
C315   C     0.80873   0.71606   0.10017   0.00000  Uiso   1.00
C316   C     0.87303   0.77098   0.40182   0.00000  Uiso   1.00
C317   C     0.85828   0.78390   0.10366   0.00000  Uiso   1.00
C318   C     0.79373   0.72891   0.39445   0.00000  Uiso   1.00
C319   C     0.85715   0.78478   0.05423   0.00000  Uiso   1.00
C320   C     0.79273   0.73003   0.44356   0.00000  Uiso   1.00
C321   C     0.83309   0.74998   0.02659   0.00000  Uiso   1.00
C322   C     0.83350   0.75042   0.47341   0.00000  Uiso   1.00
C323   C     0.73393   0.74957   0.23811   0.00000  Uiso   1.00
C324   C     0.93273   0.75043   0.26188   0.00000  Uiso   1.00
C325   C     0.67997   0.74168   0.23351   0.00000  Uiso   1.00
C326   C     0.98670   0.75837   0.26646   0.00000  Uiso   1.00
C327   C     0.81063   0.54222   0.27249   0.00000  Uiso   1.00
C328   C     0.82493   0.95718   0.21243   0.00000  Uiso   1.00
C329   C     0.80294   0.58804   0.27128   0.00000  Uiso   1.00
C330   C     0.81683   0.91119   0.21110   0.00000  Uiso   1.00
C331   C     0.83911   0.61620   0.25199   0.00000  Uiso   1.00
C332   C     0.83981   0.88448   0.24924   0.00000  Uiso   1.00
C333   C     0.88251   0.59882   0.23418   0.00000  Uiso   1.00
C334   C     0.87125   0.90392   0.28762   0.00000  Uiso   1.00
C335   C     0.89046   0.55291   0.23512   0.00000  Uiso   1.00
C336   C     0.87934   0.94998   0.28917   0.00000  Uiso   1.00
C337   C     0.85362   0.52467   0.25424   0.00000  Uiso   1.00
C338   C     0.85512   0.97655   0.25130   0.00000  Uiso   1.00
H339   H     0.78207   0.51999   0.28613   0.00000  Uiso   1.00
H340   H     0.80571   0.97824   0.18407   0.00000  Uiso   1.00
H341   H     0.91037   0.62109   0.21961   0.00000  Uiso   1.00
H342   H     0.88980   0.88319   0.31659   0.00000  Uiso   1.00
H343   H     0.79001   0.68687   0.03161   0.00000  Uiso   1.00
H344   H     0.90727   0.78696   0.47246   0.00000  Uiso   1.00
H345   H     0.78941   0.68925   0.11779   0.00000  Uiso   1.00
H346   H     0.90437   0.78734   0.38577   0.00000  Uiso   1.00
H347   H     0.87577   0.81282   0.03786   0.00000  Uiso   1.00
H348   H     0.75996   0.71427   0.45803   0.00000  Uiso   1.00
N349   N     0.83333   0.74999   0.12624   0.00000  Uiso   1.00
N350   N     0.83333   0.75001   0.37377   0.00000  Uiso   1.00
O351   O     0.83334   0.68454   0.28974   0.00000  Uiso   1.00
O352   O     0.83333   0.81547   0.21026   0.00000  Uiso   1.00
O353   O     0.83334   0.68453   0.21026   0.00000  Uiso   1.00
O354   O     0.83333   0.81547   0.28974   0.00000  Uiso   1.00
O355   O     0.75725   0.75000   0.28045   0.00000  Uiso   1.00
O356   O     0.90942   0.75000   0.21956   0.00000  Uiso   1.00
O357   O     0.75725   0.75000   0.20097   0.00000  Uiso   1.00
O358   O     0.90942   0.75001   0.29904   0.00000  Uiso   1.00
Zn359  Zn    0.83333   0.75001   0.30307   0.00000  Uiso   1.00
Zn360  Zn    0.83333   0.75000   0.19693   0.00000  Uiso   1.00
Br361  Br    0.98704   0.69761   0.18659   0.00000  Uiso   1.00
Br362  Br    0.67958   0.80274   0.31308   0.00000  Uiso   1.00
Br363  Br    0.74041   0.60995   0.29216   0.00000  Uiso   1.00
Br364  Br    0.77051   0.88775   0.15860   0.00000  Uiso   1.00
O365   O     0.93364   0.53746   0.21663   0.00000  Uiso   1.00
H366   H     0.93623   0.50456   0.22160   0.00000  Uiso   1.00
O367   O     0.90977   0.96730   0.32838   0.00000  Uiso   1.00
H368   H     0.91549   0.99994   0.32366   0.00000  Uiso   1.00
O369   O     0.88553   0.81800   0.12809   0.00000  Uiso   1.00
H370   H     0.89786   0.80641   0.16010   0.00000  Uiso   1.00
O371   O     0.75408   0.70547   0.36840   0.00000  Uiso   1.00
H372   H     0.76797   0.69473   0.34020   0.00000  Uiso   1.00
C373   C     0.16651   0.16391   0.75042   0.00000  Uiso   1.00
C374   C     0.16688   0.33628   0.74951   0.00000  Uiso   1.00
C375   C     0.14198   0.21513   0.55063   0.00000  Uiso   1.00
C376   C     0.20753   0.27114   0.95152   0.00000  Uiso   1.00
C377   C     0.14206   0.21606   0.60017   0.00000  Uiso   1.00
C378   C     0.20637   0.27098   0.90182   0.00000  Uiso   1.00
C379   C     0.19161   0.28390   0.60366   0.00000  Uiso   1.00
C380   C     0.12706   0.22891   0.89445   0.00000  Uiso   1.00
C381   C     0.19048   0.28478   0.55423   0.00000  Uiso   1.00
C382   C     0.12607   0.23003   0.94356   0.00000  Uiso   1.00
C383   C     0.16642   0.24998   0.52659   0.00000  Uiso   1.00
C384   C     0.16683   0.25042   0.97341   0.00000  Uiso   1.00
C385   C     0.06727   0.24957   0.73811   0.00000  Uiso   1.00
C386   C     0.26607   0.25043   0.76188   0.00000  Uiso   1.00
C387   C     0.01330   0.24168   0.73351   0.00000  Uiso   1.00
C388   C     0.32003   0.25837   0.76646   0.00000  Uiso   1.00
C389   C     0.14396   0.04222   0.77249   0.00000  Uiso   1.00
C390   C     0.15826   0.45718   0.71243   0.00000  Uiso   1.00
C391   C     0.13627   0.08804   0.77128   0.00000  Uiso   1.00
C392   C     0.15016   0.41119   0.71110   0.00000  Uiso   1.00
C393   C     0.17244   0.11620   0.75199   0.00000  Uiso   1.00
C394   C     0.17315   0.38448   0.74924   0.00000  Uiso   1.00
C395   C     0.21584   0.09882   0.73418   0.00000  Uiso   1.00
C396   C     0.20459   0.40392   0.78762   0.00000  Uiso   1.00
C397   C     0.22379   0.05291   0.73512   0.00000  Uiso   1.00
C398   C     0.21268   0.44998   0.78917   0.00000  Uiso   1.00
C399   C     0.18695   0.02467   0.75424   0.00000  Uiso   1.00
C400   C     0.18845   0.47655   0.75130   0.00000  Uiso   1.00
H401   H     0.11540   0.01999   0.78613   0.00000  Uiso   1.00
H402   H     0.13904   0.47824   0.68407   0.00000  Uiso   1.00
H403   H     0.24370   0.12109   0.71961   0.00000  Uiso   1.00
H404   H     0.22313   0.38319   0.81659   0.00000  Uiso   1.00
H405   H     0.12334   0.18687   0.53161   0.00000  Uiso   1.00
H406   H     0.24060   0.28696   0.97246   0.00000  Uiso   1.00
H407   H     0.12275   0.18925   0.61779   0.00000  Uiso   1.00
H408   H     0.23770   0.28734   0.88577   0.00000  Uiso   1.00
H409   H     0.20911   0.31282   0.53786   0.00000  Uiso   1.00
H410   H     0.09330   0.21427   0.95803   0.00000  Uiso   1.00
N411   N     0.16667   0.24999   0.62624   0.00000  Uiso   1.00
N412   N     0.16667   0.25001   0.87377   0.00000  Uiso   1.00
O413   O     0.16667   0.18454   0.78974   0.00000  Uiso   1.00
O414   O     0.16666   0.31547   0.71026   0.00000  Uiso   1.00
O415   O     0.16667   0.18453   0.71026   0.00000  Uiso   1.00
O416   O     0.16666   0.31547   0.78974   0.00000  Uiso   1.00
O417   O     0.09058   0.25000   0.78045   0.00000  Uiso   1.00
O418   O     0.24275   0.25000   0.71956   0.00000  Uiso   1.00
O419   O     0.09058   0.25000   0.70097   0.00000  Uiso   1.00
O420   O     0.24275   0.25001   0.79904   0.00000  Uiso   1.00
Zn421  Zn    0.16667   0.25001   0.80307   0.00000  Uiso   1.00
Zn422  Zn    0.16667   0.25000   0.69693   0.00000  Uiso   1.00
Br423  Br    0.32037   0.19761   0.68659   0.00000  Uiso   1.00
Br424  Br    0.01291   0.30274   0.81308   0.00000  Uiso   1.00
Br425  Br    0.07374   0.10995   0.79216   0.00000  Uiso   1.00
Br426  Br    0.10384   0.38775   0.65860   0.00000  Uiso   1.00
O427   O     0.26697   0.03746   0.71663   0.00000  Uiso   1.00
H428   H     0.26956   0.00456   0.72160   0.00000  Uiso   1.00
O429   O     0.24311   0.46730   0.82838   0.00000  Uiso   1.00
H430   H     0.24882   0.49994   0.82366   0.00000  Uiso   1.00
O431   O     0.21886   0.31800   0.62809   0.00000  Uiso   1.00
H432   H     0.23119   0.30641   0.66010   0.00000  Uiso   1.00
O433   O     0.08741   0.20547   0.86840   0.00000  Uiso   1.00
H434   H     0.10131   0.19473   0.84020   0.00000  Uiso   1.00
C435   C     0.49985   0.16391   0.75042   0.00000  Uiso   1.00
C436   C     0.50022   0.33628   0.74951   0.00000  Uiso   1.00
C437   C     0.47531   0.21513   0.55063   0.00000  Uiso   1.00
C438   C     0.54087   0.27114   0.95152   0.00000  Uiso   1.00
C439   C     0.47540   0.21606   0.60017   0.00000  Uiso   1.00
C440   C     0.53970   0.27098   0.90182   0.00000  Uiso   1.00
C441   C     0.52495   0.28390   0.60366   0.00000  Uiso   1.00
C442   C     0.46040   0.22891   0.89445   0.00000  Uiso   1.00
C443   C     0.52381   0.28478   0.55423   0.00000  Uiso   1.00
C444   C     0.45940   0.23003   0.94356   0.00000  Uiso   1.00
C445   C     0.49976   0.24998   0.52659   0.00000  Uiso   1.00
C446   C     0.50017   0.25042   0.97341   0.00000  Uiso   1.00
C447   C     0.40060   0.24957   0.73811   0.00000  Uiso   1.00
C448   C     0.59940   0.25043   0.76188   0.00000  Uiso   1.00
C449   C     0.34664   0.24168   0.73351   0.00000  Uiso   1.00
C450   C     0.65336   0.25837   0.76646   0.00000  Uiso   1.00
C451   C     0.47729   0.04222   0.77249   0.00000  Uiso   1.00
C452   C     0.49159   0.45718   0.71243   0.00000  Uiso   1.00
C453   C     0.46960   0.08804   0.77128   0.00000  Uiso   1.00
C454   C     0.48350   0.41119   0.71110   0.00000  Uiso   1.00
C455   C     0.50578   0.11620   0.75199   0.00000  Uiso   1.00
C456   C     0.50648   0.38448   0.74924   0.00000  Uiso   1.00
C457   C     0.54917   0.09882   0.73418   0.00000  Uiso   1.00
C458   C     0.53792   0.40392   0.78762   0.00000  Uiso   1.00
C459   C     0.55712   0.05291   0.73512   0.00000  Uiso   1.00
C460   C     0.54601   0.44998   0.78917   0.00000  Uiso   1.00
C461   C     0.52029   0.02467   0.75424   0.00000  Uiso   1.00
C462   C     0.52179   0.47655   0.75130   0.00000  Uiso   1.00
H463   H     0.44873   0.01999   0.78613   0.00000  Uiso   1.00
H464   H     0.47238   0.47824   0.68407   0.00000  Uiso   1.00
H465   H     0.57704   0.12109   0.71961   0.00000  Uiso   1.00
H466   H     0.55647   0.38319   0.81659   0.00000  Uiso   1.00
H467   H     0.45667   0.18687   0.53161   0.00000  Uiso   1.00
H468   H     0.57394   0.28696   0.97246   0.00000  Uiso   1.00
H469   H     0.45608   0.18925   0.61779   0.00000  Uiso   1.00
H470   H     0.57103   0.28734   0.88577   0.00000  Uiso   1.00
H471   H     0.54244   0.31282   0.53786   0.00000  Uiso   1.00
H472   H     0.42663   0.21427   0.95803   0.00000  Uiso   1.00
N473   N     0.50000   0.24999   0.62624   0.00000  Uiso   1.00
N474   N     0.50000   0.25001   0.87377   0.00000  Uiso   1.00
O475   O     0.50000   0.18454   0.78974   0.00000  Uiso   1.00
O476   O     0.50000   0.31547   0.71026   0.00000  Uiso   1.00
O477   O     0.50000   0.18453   0.71026   0.00000  Uiso   1.00
O478   O     0.50000   0.31547   0.78974   0.00000  Uiso   1.00
O479   O     0.42392   0.25000   0.78045   0.00000  Uiso   1.00
O480   O     0.57608   0.25000   0.71956   0.00000  Uiso   1.00
O481   O     0.42392   0.25000   0.70097   0.00000  Uiso   1.00
O482   O     0.57608   0.25001   0.79904   0.00000  Uiso   1.00
Zn483  Zn    0.50000   0.25001   0.80307   0.00000  Uiso   1.00
Zn484  Zn    0.50000   0.25000   0.69693   0.00000  Uiso   1.00
Br485  Br    0.65371   0.19761   0.68659   0.00000  Uiso   1.00
Br486  Br    0.34624   0.30274   0.81308   0.00000  Uiso   1.00
Br487  Br    0.40708   0.10995   0.79216   0.00000  Uiso   1.00
Br488  Br    0.43717   0.38775   0.65860   0.00000  Uiso   1.00
O489   O     0.60030   0.03746   0.71663   0.00000  Uiso   1.00
H490   H     0.60290   0.00456   0.72160   0.00000  Uiso   1.00
O491   O     0.57644   0.46730   0.82838   0.00000  Uiso   1.00
H492   H     0.58215   0.49994   0.82366   0.00000  Uiso   1.00
O493   O     0.55219   0.31800   0.62809   0.00000  Uiso   1.00
H494   H     0.56452   0.30641   0.66010   0.00000  Uiso   1.00
O495   O     0.42074   0.20547   0.86840   0.00000  Uiso   1.00
H496   H     0.43464   0.19473   0.84020   0.00000  Uiso   1.00
C497   C     0.83318   0.16391   0.75042   0.00000  Uiso   1.00
C498   C     0.83355   0.33628   0.74951   0.00000  Uiso   1.00
C499   C     0.80864   0.21513   0.55063   0.00000  Uiso   1.00
C500   C     0.87420   0.27114   0.95152   0.00000  Uiso   1.00
C501   C     0.80873   0.21606   0.60017   0.00000  Uiso   1.00
C502   C     0.87303   0.27098   0.90182   0.00000  Uiso   1.00
C503   C     0.85828   0.28390   0.60366   0.00000  Uiso   1.00
C504   C     0.79373   0.22891   0.89445   0.00000  Uiso   1.00
C505   C     0.85715   0.28478   0.55423   0.00000  Uiso   1.00
C506   C     0.79273   0.23003   0.94356   0.00000  Uiso   1.00
C507   C     0.83309   0.24998   0.52659   0.00000  Uiso   1.00
C508   C     0.83350   0.25042   0.97341   0.00000  Uiso   1.00
C509   C     0.73393   0.24957   0.73811   0.00000  Uiso   1.00
C510   C     0.93273   0.25043   0.76188   0.00000  Uiso   1.00
C511   C     0.67997   0.24168   0.73351   0.00000  Uiso   1.00
C512   C     0.98670   0.25837   0.76646   0.00000  Uiso   1.00
C513   C     0.81063   0.04222   0.77249   0.00000  Uiso   1.00
C514   C     0.82493   0.45718   0.71243   0.00000  Uiso   1.00
C515   C     0.80294   0.08804   0.77128   0.00000  Uiso   1.00
C516   C     0.81683   0.41119   0.71110   0.00000  Uiso   1.00
C517   C     0.83911   0.11620   0.75199   0.00000  Uiso   1.00
C518   C     0.83981   0.38448   0.74924   0.00000  Uiso   1.00
C519   C     0.88251   0.09882   0.73418   0.00000  Uiso   1.00
C520   C     0.87125   0.40392   0.78762   0.00000  Uiso   1.00
C521   C     0.89046   0.05291   0.73512   0.00000  Uiso   1.00
C522   C     0.87934   0.44998   0.78917   0.00000  Uiso   1.00
C523   C     0.85362   0.02467   0.75424   0.00000  Uiso   1.00
C524   C     0.85512   0.47655   0.75130   0.00000  Uiso   1.00
H525   H     0.78207   0.01999   0.78613   0.00000  Uiso   1.00
H526   H     0.80571   0.47824   0.68407   0.00000  Uiso   1.00
H527   H     0.91037   0.12109   0.71961   0.00000  Uiso   1.00
H528   H     0.88980   0.38319   0.81659   0.00000  Uiso   1.00
H529   H     0.79001   0.18687   0.53161   0.00000  Uiso   1.00
H530   H     0.90727   0.28696   0.97246   0.00000  Uiso   1.00
H531   H     0.78941   0.18925   0.61779   0.00000  Uiso   1.00
H532   H     0.90437   0.28734   0.88577   0.00000  Uiso   1.00
H533   H     0.87577   0.31282   0.53786   0.00000  Uiso   1.00
H534   H     0.75996   0.21427   0.95803   0.00000  Uiso   1.00
N535   N     0.83333   0.24999   0.62624   0.00000  Uiso   1.00
N536   N     0.83333   0.25001   0.87377   0.00000  Uiso   1.00
O537   O     0.83334   0.18454   0.78974   0.00000  Uiso   1.00
O538   O     0.83333   0.31547   0.71026   0.00000  Uiso   1.00
O539   O     0.83334   0.18453   0.71026   0.00000  Uiso   1.00
O540   O     0.83333   0.31547   0.78974   0.00000  Uiso   1.00
O541   O     0.75725   0.25000   0.78045   0.00000  Uiso   1.00
O542   O     0.90942   0.25000   0.71956   0.00000  Uiso   1.00
O543   O     0.75725   0.25000   0.70097   0.00000  Uiso   1.00
O544   O     0.90942   0.25001   0.79904   0.00000  Uiso   1.00
Zn545  Zn    0.83333   0.25001   0.80307   0.00000  Uiso   1.00
Zn546  Zn    0.83333   0.25000   0.69693   0.00000  Uiso   1.00
Br547  Br    0.98704   0.19761   0.68659   0.00000  Uiso   1.00
Br548  Br    0.67958   0.30274   0.81308   0.00000  Uiso   1.00
Br549  Br    0.74041   0.10995   0.79216   0.00000  Uiso   1.00
Br550  Br    0.77051   0.38775   0.65860   0.00000  Uiso   1.00
O551   O     0.93364   0.03746   0.71663   0.00000  Uiso   1.00
H552   H     0.93623   0.00456   0.72160   0.00000  Uiso   1.00
O553   O     0.90977   0.46730   0.82838   0.00000  Uiso   1.00
H554   H     0.91549   0.49994   0.82366   0.00000  Uiso   1.00
O555   O     0.88553   0.31800   0.62809   0.00000  Uiso   1.00
H556   H     0.89786   0.30641   0.66010   0.00000  Uiso   1.00
O557   O     0.75408   0.20547   0.86840   0.00000  Uiso   1.00
H558   H     0.76797   0.19473   0.84020   0.00000  Uiso   1.00
C559   C     0.16651   0.66391   0.75042   0.00000  Uiso   1.00
C560   C     0.16688   0.83628   0.74951   0.00000  Uiso   1.00
C561   C     0.14198   0.71513   0.55063   0.00000  Uiso   1.00
C562   C     0.20753   0.77114   0.95152   0.00000  Uiso   1.00
C563   C     0.14206   0.71606   0.60017   0.00000  Uiso   1.00
C564   C     0.20637   0.77098   0.90182   0.00000  Uiso   1.00
C565   C     0.19161   0.78390   0.60366   0.00000  Uiso   1.00
C566   C     0.12706   0.72891   0.89445   0.00000  Uiso   1.00
C567   C     0.19048   0.78478   0.55423   0.00000  Uiso   1.00
C568   C     0.12607   0.73003   0.94356   0.00000  Uiso   1.00
C569   C     0.16642   0.74998   0.52659   0.00000  Uiso   1.00
C570   C     0.16683   0.75042   0.97341   0.00000  Uiso   1.00
C571   C     0.06727   0.74957   0.73811   0.00000  Uiso   1.00
C572   C     0.26607   0.75043   0.76188   0.00000  Uiso   1.00
C573   C     0.01330   0.74168   0.73351   0.00000  Uiso   1.00
C574   C     0.32003   0.75837   0.76646   0.00000  Uiso   1.00
C575   C     0.14396   0.54222   0.77249   0.00000  Uiso   1.00
C576   C     0.15826   0.95718   0.71243   0.00000  Uiso   1.00
C577   C     0.13627   0.58804   0.77128   0.00000  Uiso   1.00
C578   C     0.15016   0.91119   0.71110   0.00000  Uiso   1.00
C579   C     0.17244   0.61620   0.75199   0.00000  Uiso   1.00
C580   C     0.17315   0.88448   0.74924   0.00000  Uiso   1.00
C581   C     0.21584   0.59882   0.73418   0.00000  Uiso   1.00
C582   C     0.20459   0.90392   0.78762   0.00000  Uiso   1.00
C583   C     0.22379   0.55291   0.73512   0.00000  Uiso   1.00
C584   C     0.21268   0.94998   0.78917   0.00000  Uiso   1.00
C585   C     0.18695   0.52467   0.75424   0.00000  Uiso   1.00
C586   C     0.18845   0.97655   0.75130   0.00000  Uiso   1.00
H587   H     0.11540   0.51999   0.78613   0.00000  Uiso   1.00
H588   H     0.13904   0.97824   0.68407   0.00000  Uiso   1.00
H589   H     0.24370   0.62109   0.71961   0.00000  Uiso   1.00
H590   H     0.22313   0.88319   0.81659   0.00000  Uiso   1.00
H591   H     0.12334   0.68687   0.53161   0.00000  Uiso   1.00
H592   H     0.24060   0.78696   0.97246   0.00000  Uiso   1.00
H593   H     0.12275   0.68925   0.61779   0.00000  Uiso   1.00
H594   H     0.23770   0.78734   0.88577   0.00000  Uiso   1.00
H595   H     0.20911   0.81282   0.53786   0.00000  Uiso   1.00
H596   H     0.09330   0.71427   0.95803   0.00000  Uiso   1.00
N597   N     0.16667   0.74999   0.62624   0.00000  Uiso   1.00
N598   N     0.16667   0.75001   0.87377   0.00000  Uiso   1.00
O599   O     0.16667   0.68454   0.78974   0.00000  Uiso   1.00
O600   O     0.16666   0.81547   0.71026   0.00000  Uiso   1.00
O601   O     0.16667   0.68453   0.71026   0.00000  Uiso   1.00
O602   O     0.16666   0.81547   0.78974   0.00000  Uiso   1.00
O603   O     0.09058   0.75000   0.78045   0.00000  Uiso   1.00
O604   O     0.24275   0.75000   0.71956   0.00000  Uiso   1.00
O605   O     0.09058   0.75000   0.70097   0.00000  Uiso   1.00
O606   O     0.24275   0.75001   0.79904   0.00000  Uiso   1.00
Zn607  Zn    0.16667   0.75001   0.80307   0.00000  Uiso   1.00
Zn608  Zn    0.16667   0.75000   0.69693   0.00000  Uiso   1.00
Br609  Br    0.32037   0.69761   0.68659   0.00000  Uiso   1.00
Br610  Br    0.01291   0.80274   0.81308   0.00000  Uiso   1.00
Br611  Br    0.07374   0.60995   0.79216   0.00000  Uiso   1.00
Br612  Br    0.10384   0.88775   0.65860   0.00000  Uiso   1.00
O613   O     0.26697   0.53746   0.71663   0.00000  Uiso   1.00
H614   H     0.26956   0.50456   0.72160   0.00000  Uiso   1.00
O615   O     0.24311   0.96730   0.82838   0.00000  Uiso   1.00
H616   H     0.24882   0.99994   0.82366   0.00000  Uiso   1.00
O617   O     0.21886   0.81800   0.62809   0.00000  Uiso   1.00
H618   H     0.23119   0.80641   0.66010   0.00000  Uiso   1.00
O619   O     0.08741   0.70547   0.86840   0.00000  Uiso   1.00
H620   H     0.10131   0.69473   0.84020   0.00000  Uiso   1.00
C621   C     0.49985   0.66391   0.75042   0.00000  Uiso   1.00
C622   C     0.50022   0.83628   0.74951   0.00000  Uiso   1.00
C623   C     0.47531   0.71513   0.55063   0.00000  Uiso   1.00
C624   C     0.54087   0.77114   0.95152   0.00000  Uiso   1.00
C625   C     0.47540   0.71606   0.60017   0.00000  Uiso   1.00
C626   C     0.53970   0.77098   0.90182   0.00000  Uiso   1.00
C627   C     0.52495   0.78390   0.60366   0.00000  Uiso   1.00
C628   C     0.46040   0.72891   0.89445   0.00000  Uiso   1.00
C629   C     0.52381   0.78478   0.55423   0.00000  Uiso   1.00
C630   C     0.45940   0.73003   0.94356   0.00000  Uiso   1.00
C631   C     0.49976   0.74998   0.52659   0.00000  Uiso   1.00
C632   C     0.50017   0.75042   0.97341   0.00000  Uiso   1.00
C633   C     0.40060   0.74957   0.73811   0.00000  Uiso   1.00
C634   C     0.59940   0.75043   0.76188   0.00000  Uiso   1.00
C635   C     0.34664   0.74168   0.73351   0.00000  Uiso   1.00
C636   C     0.65336   0.75837   0.76646   0.00000  Uiso   1.00
C637   C     0.47729   0.54222   0.77249   0.00000  Uiso   1.00
C638   C     0.49159   0.95718   0.71243   0.00000  Uiso   1.00
C639   C     0.46960   0.58804   0.77128   0.00000  Uiso   1.00
C640   C     0.48350   0.91119   0.71110   0.00000  Uiso   1.00
C641   C     0.50578   0.61620   0.75199   0.00000  Uiso   1.00
C642   C     0.50648   0.88448   0.74924   0.00000  Uiso   1.00
C643   C     0.54917   0.59882   0.73418   0.00000  Uiso   1.00
C644   C     0.53792   0.90392   0.78762   0.00000  Uiso   1.00
C645   C     0.55712   0.55291   0.73512   0.00000  Uiso   1.00
C646   C     0.54601   0.94998   0.78917   0.00000  Uiso   1.00
C647   C     0.52029   0.52467   0.75424   0.00000  Uiso   1.00
C648   C     0.52179   0.97655   0.75130   0.00000  Uiso   1.00
H649   H     0.44873   0.51999   0.78613   0.00000  Uiso   1.00
H650   H     0.47238   0.97824   0.68407   0.00000  Uiso   1.00
H651   H     0.57704   0.62109   0.71961   0.00000  Uiso   1.00
H652   H     0.55647   0.88319   0.81659   0.00000  Uiso   1.00
H653   H     0.45667   0.68687   0.53161   0.00000  Uiso   1.00
H654   H     0.57394   0.78696   0.97246   0.00000  Uiso   1.00
H655   H     0.45608   0.68925   0.61779   0.00000  Uiso   1.00
H656   H     0.57103   0.78734   0.88577   0.00000  Uiso   1.00
H657   H     0.54244   0.81282   0.53786   0.00000  Uiso   1.00
H658   H     0.42663   0.71427   0.95803   0.00000  Uiso   1.00
N659   N     0.50000   0.74999   0.62624   0.00000  Uiso   1.00
N660   N     0.50000   0.75001   0.87377   0.00000  Uiso   1.00
O661   O     0.50000   0.68454   0.78974   0.00000  Uiso   1.00
O662   O     0.50000   0.81547   0.71026   0.00000  Uiso   1.00
O663   O     0.50000   0.68453   0.71026   0.00000  Uiso   1.00
O664   O     0.50000   0.81547   0.78974   0.00000  Uiso   1.00
O665   O     0.42392   0.75000   0.78045   0.00000  Uiso   1.00
O666   O     0.57608   0.75000   0.71956   0.00000  Uiso   1.00
O667   O     0.42392   0.75000   0.70097   0.00000  Uiso   1.00
O668   O     0.57608   0.75001   0.79904   0.00000  Uiso   1.00
Zn669  Zn    0.50000   0.75001   0.80307   0.00000  Uiso   1.00
Zn670  Zn    0.50000   0.75000   0.69693   0.00000  Uiso   1.00
Br671  Br    0.65371   0.69761   0.68659   0.00000  Uiso   1.00
Br672  Br    0.34624   0.80274   0.81308   0.00000  Uiso   1.00
Br673  Br    0.40708   0.60995   0.79216   0.00000  Uiso   1.00
Br674  Br    0.43717   0.88775   0.65860   0.00000  Uiso   1.00
O675   O     0.60030   0.53746   0.71663   0.00000  Uiso   1.00
H676   H     0.60290   0.50456   0.72160   0.00000  Uiso   1.00
O677   O     0.57644   0.96730   0.82838   0.00000  Uiso   1.00
H678   H     0.58215   0.99994   0.82366   0.00000  Uiso   1.00
O679   O     0.55219   0.81800   0.62809   0.00000  Uiso   1.00
H680   H     0.56452   0.80641   0.66010   0.00000  Uiso   1.00
O681   O     0.42074   0.70547   0.86840   0.00000  Uiso   1.00
H682   H     0.43464   0.69473   0.84020   0.00000  Uiso   1.00
C683   C     0.83318   0.66391   0.75042   0.00000  Uiso   1.00
C684   C     0.83355   0.83628   0.74951   0.00000  Uiso   1.00
C685   C     0.80864   0.71513   0.55063   0.00000  Uiso   1.00
C686   C     0.87420   0.77114   0.95152   0.00000  Uiso   1.00
C687   C     0.80873   0.71606   0.60017   0.00000  Uiso   1.00
C688   C     0.87303   0.77098   0.90182   0.00000  Uiso   1.00
C689   C     0.85828   0.78390   0.60366   0.00000  Uiso   1.00
C690   C     0.79373   0.72891   0.89445   0.00000  Uiso   1.00
C691   C     0.85715   0.78478   0.55423   0.00000  Uiso   1.00
C692   C     0.79273   0.73003   0.94356   0.00000  Uiso   1.00
C693   C     0.83309   0.74998   0.52659   0.00000  Uiso   1.00
C694   C     0.83350   0.75042   0.97341   0.00000  Uiso   1.00
C695   C     0.73393   0.74957   0.73811   0.00000  Uiso   1.00
C696   C     0.93273   0.75043   0.76188   0.00000  Uiso   1.00
C697   C     0.67997   0.74168   0.73351   0.00000  Uiso   1.00
C698   C     0.98670   0.75837   0.76646   0.00000  Uiso   1.00
C699   C     0.81063   0.54222   0.77249   0.00000  Uiso   1.00
C700   C     0.82493   0.95718   0.71243   0.00000  Uiso   1.00
C701   C     0.80294   0.58804   0.77128   0.00000  Uiso   1.00
C702   C     0.81683   0.91119   0.71110   0.00000  Uiso   1.00
C703   C     0.83911   0.61620   0.75199   0.00000  Uiso   1.00
C704   C     0.83981   0.88448   0.74924   0.00000  Uiso   1.00
C705   C     0.88251   0.59882   0.73418   0.00000  Uiso   1.00
C706   C     0.87125   0.90392   0.78762   0.00000  Uiso   1.00
C707   C     0.89046   0.55291   0.73512   0.00000  Uiso   1.00
C708   C     0.87934   0.94998   0.78917   0.00000  Uiso   1.00
C709   C     0.85362   0.52467   0.75424   0.00000  Uiso   1.00
C710   C     0.85512   0.97655   0.75130   0.00000  Uiso   1.00
H711   H     0.78207   0.51999   0.78613   0.00000  Uiso   1.00
H712   H     0.80571   0.97824   0.68407   0.00000  Uiso   1.00
H713   H     0.91037   0.62109   0.71961   0.00000  Uiso   1.00
H714   H     0.88980   0.88319   0.81659   0.00000  Uiso   1.00
H715   H     0.79001   0.68687   0.53161   0.00000  Uiso   1.00
H716   H     0.90727   0.78696   0.97246   0.00000  Uiso   1.00
H717   H     0.78941   0.68925   0.61779   0.00000  Uiso   1.00
H718   H     0.90437   0.78734   0.88577   0.00000  Uiso   1.00
H719   H     0.87577   0.81282   0.53786   0.00000  Uiso   1.00
H720   H     0.75996   0.71427   0.95803   0.00000  Uiso   1.00
N721   N     0.83333   0.74999   0.62624   0.00000  Uiso   1.00
N722   N     0.83333   0.75001   0.87377   0.00000  Uiso   1.00
O723   O     0.83334   0.68454   0.78974   0.00000  Uiso   1.00
O724   O     0.83333   0.81547   0.71026   0.00000  Uiso   1.00
O725   O     0.83334   0.68453   0.71026   0.00000  Uiso   1.00
O726   O     0.83333   0.81547   0.78974   0.00000  Uiso   1.00
O727   O     0.75725   0.75000   0.78045   0.00000  Uiso   1.00
O728   O     0.90942   0.75000   0.71956   0.00000  Uiso   1.00
O729   O     0.75725   0.75000   0.70097   0.00000  Uiso   1.00
O730   O     0.90942   0.75001   0.79904   0.00000  Uiso   1.00
Zn731  Zn    0.83333   0.75001   0.80307   0.00000  Uiso   1.00
Zn732  Zn    0.83333   0.75000   0.69693   0.00000  Uiso   1.00
Br733  Br    0.98704   0.69761   0.68659   0.00000  Uiso   1.00
Br734  Br    0.67958   0.80274   0.81308   0.00000  Uiso   1.00
Br735  Br    0.74041   0.60995   0.79216   0.00000  Uiso   1.00
Br736  Br    0.77051   0.88775   0.65860   0.00000  Uiso   1.00
O737   O     0.93364   0.53746   0.71663   0.00000  Uiso   1.00
H738   H     0.93623   0.50456   0.72160   0.00000  Uiso   1.00
O739   O     0.90977   0.96730   0.82838   0.00000  Uiso   1.00
H740   H     0.91549   0.99994   0.82366   0.00000  Uiso   1.00
O741   O     0.88553   0.81800   0.62809   0.00000  Uiso   1.00
H742   H     0.89786   0.80641   0.66010   0.00000  Uiso   1.00
O743   O     0.75408   0.70547   0.86840   0.00000  Uiso   1.00
H744   H     0.76797   0.69473   0.84020   0.00000  Uiso   1.00
loop_
_geom_bond_atom_site_label_1
_geom_bond_atom_site_label_2
_geom_bond_distance
_geom_bond_site_symmetry_2
_ccdc_geom_bond_type
C1     C21     1.431   .     S
C1     O41     1.288   .     A
C1     O43     1.286   .     A
C2     C22     1.441   .     S
C2     O44     1.291   .     A
C2     O42     1.289   .     A
C3     H33     1.081   .     S
C3     C11     1.414   .     A
C3     C5      1.411   .     A
C4     H34     1.081   .     S
C4     C6      1.411   .     A
C4     C12     1.414   .     A
C5     H35     1.082   .     S
C5     N39     1.364   .     A
C6     H36     1.082   .     S
C6     N40     1.364   .     A
C7     O59     1.373   .     S
C7     C9      1.403   .     A
C7     N39     1.379   .     A
C8     O61     1.372   .     S
C8     N40     1.378   .     A
C8     C10     1.403   .     A
C9     C11     1.401   .     A
C9     H37     1.082   .     S
C10    H38     1.082   .     S
C10    C12     1.401   .     A
C11    C384    1.515   1_554 S
C12    C383    1.515   .     S
C13    C15     1.396   .     S
C13    O45     1.275   .     A
C13    O47     1.282   .     A
C14    O46     1.275   .     A
C14    C16     1.397   .     S
C14    O48     1.282   .     A
C15    C140    1.341   1_455 S
C15    Br175   1.943   1_455 S
C16    C77     1.341   .     S
C16    Br114   1.943   .     S
C17    H29     1.084   .     S
C17    C27     1.398   .     A
C17    C19     1.381   .     A
C18    H30     1.084   .     S
C18    C28     1.397   .     A
C18    C20     1.382   .     A
C19    Br53    1.919   .     S
C19    C21     1.399   .     A
C20    C22     1.405   .     A
C20    Br54    1.923   .     S
C21    C23     1.399   .     A
C22    C24     1.402   .     A
C23    C25     1.385   .     A
C23    H31     1.084   .     S
C24    H32     1.084   .     S
C24    C26     1.384   .     A
C25    C27     1.410   .     A
C25    O55     1.382   .     S
C26    C28     1.409   .     A
C26    O57     1.382   .     S
C27    C214    1.439   1_545 S
C28    C213    1.439   .     S
N39    Zn50    2.013   .     S
N40    Zn49    2.013   .     S
O41    Zn49    1.994   .     S
O42    Zn50    1.994   .     S
O43    Zn50    1.978   .     S
O44    Zn49    1.978   .     S
O45    Zn49    1.984   .     S
O46    Zn50    1.984   .     S
O47    Zn50    1.980   .     S
O48    Zn49    1.980   .     S
Br51   C77     1.943   .     S
Br52   C140    1.943   1_455 S
O55    H56     0.989   .     S
O57    H58     0.989   .     S
O59    H60     0.983   .     S
O61    H62     0.982   .     S
C63    C83     1.431   .     S
C63    O103    1.288   .     A
C63    O105    1.286   .     A
C64    C84     1.441   .     S
C64    O106    1.291   .     A
C64    O104    1.289   .     A
C65    H95     1.081   .     S
C65    C73     1.414   .     A
C65    C67     1.411   .     A
C66    H96     1.081   .     S
C66    C68     1.411   .     A
C66    C74     1.414   .     A
C67    H97     1.082   .     S
C67    N101    1.364   .     A
C68    H98     1.082   .     S
C68    N102    1.364   .     A
C69    O121    1.373   .     S
C69    C71     1.403   .     A
C69    N101    1.379   .     A
C70    O123    1.372   .     S
C70    N102    1.378   .     A
C70    C72     1.403   .     A
C71    C73     1.401   .     A
C71    H99     1.082   .     S
C72    H100    1.082   .     S
C72    C74     1.401   .     A
C73    C446    1.515   1_554 S
C74    C445    1.515   .     S
C75    C77     1.396   .     S
C75    O107    1.275   .     A
C75    O109    1.282   .     A
C76    O108    1.275   .     A
C76    C78     1.397   .     S
C76    O110    1.282   .     A
C78    C139    1.341   .     S
C78    Br176   1.943   .     S
C79    H91     1.084   .     S
C79    C89     1.398   .     A
C79    C81     1.381   .     A
C80    H92     1.084   .     S
C80    C90     1.397   .     A
C80    C82     1.382   .     A
C81    Br115   1.919   .     S
C81    C83     1.399   .     A
C82    C84     1.405   .     A
C82    Br116   1.923   .     S
C83    C85     1.399   .     A
C84    C86     1.402   .     A
C85    C87     1.385   .     A
C85    H93     1.084   .     S
C86    H94     1.084   .     S
C86    C88     1.384   .     A
C87    C89     1.410   .     A
C87    O117    1.382   .     S
C88    C90     1.409   .     A
C88    O119    1.382   .     S
C89    C276    1.439   1_545 S
C90    C275    1.439   .     S
N101   Zn112   2.013   .     S
N102   Zn111   2.013   .     S
O103   Zn111   1.994   .     S
O104   Zn112   1.994   .     S
O105   Zn112   1.978   .     S
O106   Zn111   1.978   .     S
O107   Zn111   1.984   .     S
O108   Zn112   1.984   .     S
O109   Zn112   1.980   .     S
O110   Zn111   1.980   .     S
Br113  C139    1.943   .     S
O117   H118    0.989   .     S
O119   H120    0.989   .     S
O121   H122    0.983   .     S
O123   H124    0.982   .     S
C125   C145    1.431   .     S
C125   O165    1.288   .     A
C125   O167    1.286   .     A
C126   C146    1.441   .     S
C126   O168    1.291   .     A
C126   O166    1.289   .     A
C127   H157    1.081   .     S
C127   C135    1.414   .     A
C127   C129    1.411   .     A
C128   H158    1.081   .     S
C128   C130    1.411   .     A
C128   C136    1.414   .     A
C129   H159    1.082   .     S
C129   N163    1.364   .     A
C130   H160    1.082   .     S
C130   N164    1.364   .     A
C131   O183    1.373   .     S
C131   C133    1.403   .     A
C131   N163    1.379   .     A
C132   O185    1.372   .     S
C132   N164    1.378   .     A
C132   C134    1.403   .     A
C133   C135    1.401   .     A
C133   H161    1.082   .     S
C134   H162    1.082   .     S
C134   C136    1.401   .     A
C135   C508    1.515   1_554 S
C136   C507    1.515   .     S
C137   C139    1.396   .     S
C137   O169    1.275   .     A
C137   O171    1.282   .     A
C138   O170    1.275   .     A
C138   C140    1.397   .     S
C138   O172    1.282   .     A
C140   C15     1.341   1_655 S
C140   Br52    1.943   1_655 S
C141   H153    1.084   .     S
C141   C151    1.398   .     A
C141   C143    1.381   .     A
C142   H154    1.084   .     S
C142   C152    1.397   .     A
C142   C144    1.382   .     A
C143   Br177   1.919   .     S
C143   C145    1.399   .     A
C144   C146    1.405   .     A
C144   Br178   1.923   .     S
C145   C147    1.399   .     A
C146   C148    1.402   .     A
C147   C149    1.385   .     A
C147   H155    1.084   .     S
C148   H156    1.084   .     S
C148   C150    1.384   .     A
C149   C151    1.410   .     A
C149   O179    1.382   .     S
C150   C152    1.409   .     A
C150   O181    1.382   .     S
C151   C338    1.439   1_545 S
C152   C337    1.439   .     S
N163   Zn174   2.013   .     S
N164   Zn173   2.013   .     S
O165   Zn173   1.994   .     S
O166   Zn174   1.994   .     S
O167   Zn174   1.978   .     S
O168   Zn173   1.978   .     S
O169   Zn173   1.984   .     S
O170   Zn174   1.984   .     S
O171   Zn174   1.980   .     S
O172   Zn173   1.980   .     S
Br175  C15     1.943   1_655 S
O179   H180    0.989   .     S
O181   H182    0.989   .     S
O183   H184    0.983   .     S
O185   H186    0.982   .     S
C187   C207    1.431   .     S
C187   O227    1.288   .     A
C187   O229    1.286   .     A
C188   C208    1.441   .     S
C188   O230    1.291   .     A
C188   O228    1.289   .     A
C189   H219    1.081   .     S
C189   C197    1.414   .     A
C189   C191    1.411   .     A
C190   H220    1.081   .     S
C190   C192    1.411   .     A
C190   C198    1.414   .     A
C191   H221    1.082   .     S
C191   N225    1.364   .     A
C192   H222    1.082   .     S
C192   N226    1.364   .     A
C193   O245    1.373   .     S
C193   C195    1.403   .     A
C193   N225    1.379   .     A
C194   O247    1.372   .     S
C194   N226    1.378   .     A
C194   C196    1.403   .     A
C195   C197    1.401   .     A
C195   H223    1.082   .     S
C196   H224    1.082   .     S
C196   C198    1.401   .     A
C197   C570    1.515   1_554 S
C198   C569    1.515   .     S
C199   C201    1.396   .     S
C199   O231    1.275   .     A
C199   O233    1.282   .     A
C200   O232    1.275   .     A
C200   C202    1.397   .     S
C200   O234    1.282   .     A
C201   C326    1.341   1_455 S
C201   Br361   1.943   1_455 S
C202   C263    1.341   .     S
C202   Br300   1.943   .     S
C203   H215    1.084   .     S
C203   C213    1.398   .     A
C203   C205    1.381   .     A
C204   H216    1.084   .     S
C204   C214    1.397   .     A
C204   C206    1.382   .     A
C205   Br239   1.919   .     S
C205   C207    1.399   .     A
C206   C208    1.405   .     A
C206   Br240   1.923   .     S
C207   C209    1.399   .     A
C208   C210    1.402   .     A
C209   C211    1.385   .     A
C209   H217    1.084   .     S
C210   H218    1.084   .     S
C210   C212    1.384   .     A
C211   C213    1.410   .     A
C211   O241    1.382   .     S
C212   C214    1.409   .     A
C212   O243    1.382   .     S
C214   C27     1.439   1_565 S
N225   Zn236   2.013   .     S
N226   Zn235   2.013   .     S
O227   Zn235   1.994   .     S
O228   Zn236   1.994   .     S
O229   Zn236   1.978   .     S
O230   Zn235   1.978   .     S
O231   Zn235   1.984   .     S
O232   Zn236   1.984   .     S
O233   Zn236   1.980   .     S
O234   Zn235   1.980   .     S
Br237  C263    1.943   .     S
Br238  C326    1.943   1_455 S
O241   H242    0.989   .     S
O243   H244    0.989   .     S
O245   H246    0.983   .     S
O247   H248    0.982   .     S
C249   C269    1.431   .     S
C249   O289    1.288   .     A
C249   O291    1.286   .     A
C250   C270    1.441   .     S
C250   O292    1.291   .     A
C250   O290    1.289   .     A
C251   H281    1.081   .     S
C251   C259    1.414   .     A
C251   C253    1.411   .     A
C252   H282    1.081   .     S
C252   C254    1.411   .     A
C252   C260    1.414   .     A
C253   H283    1.082   .     S
C253   N287    1.364   .     A
C254   H284    1.082   .     S
C254   N288    1.364   .     A
C255   O307    1.373   .     S
C255   C257    1.403   .     A
C255   N287    1.379   .     A
C256   O309    1.372   .     S
C256   N288    1.378   .     A
C256   C258    1.403   .     A
C257   C259    1.401   .     A
C257   H285    1.082   .     S
C258   H286    1.082   .     S
C258   C260    1.401   .     A
C259   C632    1.515   1_554 S
C260   C631    1.515   .     S
C261   C263    1.396   .     S
C261   O293    1.275   .     A
C261   O295    1.282   .     A
C262   O294    1.275   .     A
C262   C264    1.397   .     S
C262   O296    1.282   .     A
C264   C325    1.341   .     S
C264   Br362   1.943   .     S
C265   H277    1.084   .     S
C265   C275    1.398   .     A
C265   C267    1.381   .     A
C266   H278    1.084   .     S
C266   C276    1.397   .     A
C266   C268    1.382   .     A
C267   Br301   1.919   .     S
C267   C269    1.399   .     A
C268   C270    1.405   .     A
C268   Br302   1.923   .     S
C269   C271    1.399   .     A
C270   C272    1.402   .     A
C271   C273    1.385   .     A
C271   H279    1.084   .     S
C272   H280    1.084   .     S
C272   C274    1.384   .     A
C273   C275    1.410   .     A
C273   O303    1.382   .     S
C274   C276    1.409   .     A
C274   O305    1.382   .     S
C276   C89     1.439   1_565 S
N287   Zn298   2.013   .     S
N288   Zn297   2.013   .     S
O289   Zn297   1.994   .     S
O290   Zn298   1.994   .     S
O291   Zn298   1.978   .     S
O292   Zn297   1.978   .     S
O293   Zn297   1.984   .     S
O294   Zn298   1.984   .     S
O295   Zn298   1.980   .     S
O296   Zn297   1.980   .     S
Br299  C325    1.943   .     S
O303   H304    0.989   .     S
O305   H306    0.989   .     S
O307   H308    0.983   .     S
O309   H310    0.982   .     S
C311   C331    1.431   .     S
C311   O351    1.288   .     A
C311   O353    1.286   .     A
C312   C332    1.441   .     S
C312   O354    1.291   .     A
C312   O352    1.289   .     A
C313   H343    1.081   .     S
C313   C321    1.414   .     A
C313   C315    1.411   .     A
C314   H344    1.081   .     S
C314   C316    1.411   .     A
C314   C322    1.414   .     A
C315   H345    1.082   .     S
C315   N349    1.364   .     A
C316   H346    1.082   .     S
C316   N350    1.364   .     A
C317   O369    1.373   .     S
C317   C319    1.403   .     A
C317   N349    1.379   .     A
C318   O371    1.372   .     S
C318   N350    1.378   .     A
C318   C320    1.403   .     A
C319   C321    1.401   .     A
C319   H347    1.082   .     S
C320   H348    1.082   .     S
C320   C322    1.401   .     A
C321   C694    1.515   1_554 S
C322   C693    1.515   .     S
C323   C325    1.396   .     S
C323   O355    1.275   .     A
C323   O357    1.282   .     A
C324   O356    1.275   .     A
C324   C326    1.397   .     S
C324   O358    1.282   .     A
C326   C201    1.341   1_655 S
C326   Br238   1.943   1_655 S
C327   H339    1.084   .     S
C327   C337    1.398   .     A
C327   C329    1.381   .     A
C328   H340    1.084   .     S
C328   C338    1.397   .     A
C328   C330    1.382   .     A
C329   Br363   1.919   .     S
C329   C331    1.399   .     A
C330   C332    1.405   .     A
C330   Br364   1.923   .     S
C331   C333    1.399   .     A
C332   C334    1.402   .     A
C333   C335    1.385   .     A
C333   H341    1.084   .     S
C334   H342    1.084   .     S
C334   C336    1.384   .     A
C335   C337    1.410   .     A
C335   O365    1.382   .     S
C336   C338    1.409   .     A
C336   O367    1.382   .     S
C338   C151    1.439   1_565 S
N349   Zn360   2.013   .     S
N350   Zn359   2.013   .     S
O351   Zn359   1.994   .     S
O352   Zn360   1.994   .     S
O353   Zn360   1.978   .     S
O354   Zn359   1.978   .     S
O355   Zn359   1.984   .     S
O356   Zn360   1.984   .     S
O357   Zn360   1.980   .     S
O358   Zn359   1.980   .     S
Br361  C201    1.943   1_655 S
O365   H366    0.989   .     S
O367   H368    0.989   .     S
O369   H370    0.983   .     S
O371   H372    0.982   .     S
C373   C393    1.431   .     S
C373   O413    1.288   .     A
C373   O415    1.286   .     A
C374   C394    1.441   .     S
C374   O416    1.291   .     A
C374   O414    1.289   .     A
C375   H405    1.081   .     S
C375   C383    1.414   .     A
C375   C377    1.411   .     A
C376   H406    1.081   .     S
C376   C378    1.411   .     A
C376   C384    1.414   .     A
C377   H407    1.082   .     S
C377   N411    1.364   .     A
C378   H408    1.082   .     S
C378   N412    1.364   .     A
C379   O431    1.373   .     S
C379   C381    1.403   .     A
C379   N411    1.379   .     A
C380   O433    1.372   .     S
C380   N412    1.378   .     A
C380   C382    1.403   .     A
C381   C383    1.401   .     A
C381   H409    1.082   .     S
C382   H410    1.082   .     S
C382   C384    1.401   .     A
C384   C11     1.515   1_556 S
C385   C387    1.396   .     S
C385   O417    1.275   .     A
C385   O419    1.282   .     A
C386   O418    1.275   .     A
C386   C388    1.397   .     S
C386   O420    1.282   .     A
C387   C512    1.341   1_455 S
C387   Br547   1.943   1_455 S
C388   C449    1.341   .     S
C388   Br486   1.943   .     S
C389   H401    1.084   .     S
C389   C399    1.398   .     A
C389   C391    1.381   .     A
C390   H402    1.084   .     S
C390   C400    1.397   .     A
C390   C392    1.382   .     A
C391   Br425   1.919   .     S
C391   C393    1.399   .     A
C392   C394    1.405   .     A
C392   Br426   1.923   .     S
C393   C395    1.399   .     A
C394   C396    1.402   .     A
C395   C397    1.385   .     A
C395   H403    1.084   .     S
C396   H404    1.084   .     S
C396   C398    1.384   .     A
C397   C399    1.410   .     A
C397   O427    1.382   .     S
C398   C400    1.409   .     A
C398   O429    1.382   .     S
C399   C586    1.439   1_545 S
C400   C585    1.439   .     S
N411   Zn422   2.013   .     S
N412   Zn421   2.013   .     S
O413   Zn421   1.994   .     S
O414   Zn422   1.994   .     S
O415   Zn422   1.978   .     S
O416   Zn421   1.978   .     S
O417   Zn421   1.984   .     S
O418   Zn422   1.984   .     S
O419   Zn422   1.980   .     S
O420   Zn421   1.980   .     S
Br423  C449    1.943   .     S
Br424  C512    1.943   1_455 S
O427   H428    0.989   .     S
O429   H430    0.989   .     S
O431   H432    0.983   .     S
O433   H434    0.982   .     S
C435   C455    1.431   .     S
C435   O475    1.288   .     A
C435   O477    1.286   .     A
C436   C456    1.441   .     S
C436   O478    1.291   .     A
C436   O476    1.289   .     A
C437   H467    1.081   .     S
C437   C445    1.414   .     A
C437   C439    1.411   .     A
C438   H468    1.081   .     S
C438   C440    1.411   .     A
C438   C446    1.414   .     A
C439   H469    1.082   .     S
C439   N473    1.364   .     A
C440   H470    1.082   .     S
C440   N474    1.364   .     A
C441   O493    1.373   .     S
C441   C443    1.403   .     A
C441   N473    1.379   .     A
C442   O495    1.372   .     S
C442   N474    1.378   .     A
C442   C444    1.403   .     A
C443   C445    1.401   .     A
C443   H471    1.082   .     S
C444   H472    1.082   .     S
C444   C446    1.401   .     A
C446   C73     1.515   1_556 S
C447   C449    1.396   .     S
C447   O479    1.275   .     A
C447   O481    1.282   .     A
C448   O480    1.275   .     A
C448   C450    1.397   .     S
C448   O482    1.282   .     A
C450   C511    1.341   .     S
C450   Br548   1.943   .     S
C451   H463    1.084   .     S
C451   C461    1.398   .     A
C451   C453    1.381   .     A
C452   H464    1.084   .     S
C452   C462    1.397   .     A
C452   C454    1.382   .     A
C453   Br487   1.919   .     S
C453   C455    1.399   .     A
C454   C456    1.405   .     A
C454   Br488   1.923   .     S
C455   C457    1.399   .     A
C456   C458    1.402   .     A
C457   C459    1.385   .     A
C457   H465    1.084   .     S
C458   H466    1.084   .     S
C458   C460    1.384   .     A
C459   C461    1.410   .     A
C459   O489    1.382   .     S
C460   C462    1.409   .     A
C460   O491    1.382   .     S
C461   C648    1.439   1_545 S
C462   C647    1.439   .     S
N473   Zn484   2.013   .     S
N474   Zn483   2.013   .     S
O475   Zn483   1.994   .     S
O476   Zn484   1.994   .     S
O477   Zn484   1.978   .     S
O478   Zn483   1.978   .     S
O479   Zn483   1.984   .     S
O480   Zn484   1.984   .     S
O481   Zn484   1.980   .     S
O482   Zn483   1.980   .     S
Br485  C511    1.943   .     S
O489   H490    0.989   .     S
O491   H492    0.989   .     S
O493   H494    0.983   .     S
O495   H496    0.982   .     S
C497   C517    1.431   .     S
C497   O537    1.288   .     A
C497   O539    1.286   .     A
C498   C518    1.441   .     S
C498   O540    1.291   .     A
C498   O538    1.289   .     A
C499   H529    1.081   .     S
C499   C507    1.414   .     A
C499   C501    1.411   .     A
C500   H530    1.081   .     S
C500   C502    1.411   .     A
C500   C508    1.414   .     A
C501   H531    1.082   .     S
C501   N535    1.364   .     A
C502   H532    1.082   .     S
C502   N536    1.364   .     A
C503   O555    1.373   .     S
C503   C505    1.403   .     A
C503   N535    1.379   .     A
C504   O557    1.372   .     S
C504   N536    1.378   .     A
C504   C506    1.403   .     A
C505   C507    1.401   .     A
C505   H533    1.082   .     S
C506   H534    1.082   .     S
C506   C508    1.401   .     A
C508   C135    1.515   1_556 S
C509   C511    1.396   .     S
C509   O541    1.275   .     A
C509   O543    1.282   .     A
C510   O542    1.275   .     A
C510   C512    1.397   .     S
C510   O544    1.282   .     A
C512   C387    1.341   1_655 S
C512   Br424   1.943   1_655 S
C513   H525    1.084   .     S
C513   C523    1.398   .     A
C513   C515    1.381   .     A
C514   H526    1.084   .     S
C514   C524    1.397   .     A
C514   C516    1.382   .     A
C515   Br549   1.919   .     S
C515   C517    1.399   .     A
C516   C518    1.405   .     A
C516   Br550   1.923   .     S
C517   C519    1.399   .     A
C518   C520    1.402   .     A
C519   C521    1.385   .     A
C519   H527    1.084   .     S
C520   H528    1.084   .     S
C520   C522    1.384   .     A
C521   C523    1.410   .     A
C521   O551    1.382   .     S
C522   C524    1.409   .     A
C522   O553    1.382   .     S
C523   C710    1.439   1_545 S
C524   C709    1.439   .     S
N535   Zn546   2.013   .     S
N536   Zn545   2.013   .     S
O537   Zn545   1.994   .     S
O538   Zn546   1.994   .     S
O539   Zn546   1.978   .     S
O540   Zn545   1.978   .     S
O541   Zn545   1.984   .     S
O542   Zn546   1.984   .     S
O543   Zn546   1.980   .     S
O544   Zn545   1.980   .     S
Br547  C387    1.943   1_655 S
O551   H552    0.989   .     S
O553   H554    0.989   .     S
O555   H556    0.983   .     S
O557   H558    0.982   .     S
C559   C579    1.431   .     S
C559   O599    1.288   .     A
C559   O601    1.286   .     A
C560   C580    1.441   .     S
C560   O602    1.291   .     A
C560   O600    1.289   .     A
C561   H591    1.081   .     S
C561   C569    1.414   .     A
C561   C563    1.411   .     A
C562   H592    1.081   .     S
C562   C564    1.411   .     A
C562   C570    1.414   .     A
C563   H593    1.082   .     S
C563   N597    1.364   .     A
C564   H594    1.082   .     S
C564   N598    1.364   .     A
C565   O617    1.373   .     S
C565   C567    1.403   .     A
C565   N597    1.379   .     A
C566   O619    1.372   .     S
C566   N598    1.378   .     A
C566   C568    1.403   .     A
C567   C569    1.401   .     A
C567   H595    1.082   .     S
C568   H596    1.082   .     S
C568   C570    1.401   .     A
C570   C197    1.515   1_556 S
C571   C573    1.396   .     S
C571   O603    1.275   .     A
C571   O605    1.282   .     A
C572   O604    1.275   .     A
C572   C574    1.397   .     S
C572   O606    1.282   .     A
C573   C698    1.341   1_455 S
C573   Br733   1.943   1_455 S
C574   C635    1.341   .     S
C574   Br672   1.943   .     S
C575   H587    1.084   .     S
C575   C585    1.398   .     A
C575   C577    1.381   .     A
C576   H588    1.084   .     S
C576   C586    1.397   .     A
C576   C578    1.382   .     A
C577   Br611   1.919   .     S
C577   C579    1.399   .     A
C578   C580    1.405   .     A
C578   Br612   1.923   .     S
C579   C581    1.399   .     A
C580   C582    1.402   .     A
C581   C583    1.385   .     A
C581   H589    1.084   .     S
C582   H590    1.084   .     S
C582   C584    1.384   .     A
C583   C585    1.410   .     A
C583   O613    1.382   .     S
C584   C586    1.409   .     A
C584   O615    1.382   .     S
C586   C399    1.439   1_565 S
N597   Zn608   2.013   .     S
N598   Zn607   2.013   .     S
O599   Zn607   1.994   .     S
O600   Zn608   1.994   .     S
O601   Zn608   1.978   .     S
O602   Zn607   1.978   .     S
O603   Zn607   1.984   .     S
O604   Zn608   1.984   .     S
O605   Zn608   1.980   .     S
O606   Zn607   1.980   .     S
Br609  C635    1.943   .     S
Br610  C698    1.943   1_455 S
O613   H614    0.989   .     S
O615   H616    0.989   .     S
O617   H618    0.983   .     S
O619   H620    0.982   .     S
C621   C641    1.431   .     S
C621   O661    1.288   .     A
C621   O663    1.286   .     A
C622   C642    1.441   .     S
C622   O664    1.291   .     A
C622   O662    1.289   .     A
C623   H653    1.081   .     S
C623   C631    1.414   .     A
C623   C625    1.411   .     A
C624   H654    1.081   .     S
C624   C626    1.411   .     A
C624   C632    1.414   .     A
C625   H655    1.082   .     S
C625   N659    1.364   .     A
C626   H656    1.082   .     S
C626   N660    1.364   .     A
C627   O679    1.373   .     S
C627   C629    1.403   .     A
C627   N659    1.379   .     A
C628   O681    1.372   .     S
C628   N660    1.378   .     A
C628   C630    1.403   .     A
C629   C631    1.401   .     A
C629   H657    1.082   .     S
C630   H658    1.082   .     S
C630   C632    1.401   .     A
C632   C259    1.515   1_556 S
C633   C635    1.396   .     S
C633   O665    1.275   .     A
C633   O667    1.282   .     A
C634   O666    1.275   .     A
C634   C636    1.397   .     S
C634   O668    1.282   .     A
C636   C697    1.341   .     S
C636   Br734   1.943   .     S
C637   H649    1.084   .     S
C637   C647    1.398   .     A
C637   C639    1.381   .     A
C638   H650    1.084   .     S
C638   C648    1.397   .     A
C638   C640    1.382   .     A
C639   Br673   1.919   .     S
C639   C641    1.399   .     A
C640   C642    1.405   .     A
C640   Br674   1.923   .     S
C641   C643    1.399   .     A
C642   C644    1.402   .     A
C643   C645    1.385   .     A
C643   H651    1.084   .     S
C644   H652    1.084   .     S
C644   C646    1.384   .     A
C645   C647    1.410   .     A
C645   O675    1.382   .     S
C646   C648    1.409   .     A
C646   O677    1.382   .     S
C648   C461    1.439   1_565 S
N659   Zn670   2.013   .     S
N660   Zn669   2.013   .     S
O661   Zn669   1.994   .     S
O662   Zn670   1.994   .     S
O663   Zn670   1.978   .     S
O664   Zn669   1.978   .     S
O665   Zn669   1.984   .     S
O666   Zn670   1.984   .     S
O667   Zn670   1.980   .     S
O668   Zn669   1.980   .     S
Br671  C697    1.943   .     S
O675   H676    0.989   .     S
O677   H678    0.989   .     S
O679   H680    0.983   .     S
O681   H682    0.982   .     S
C683   C703    1.431   .     S
C683   O723    1.288   .     A
C683   O725    1.286   .     A
C684   C704    1.441   .     S
C684   O726    1.291   .     A
C684   O724    1.289   .     A
C685   H715    1.081   .     S
C685   C693    1.414   .     A
C685   C687    1.411   .     A
C686   H716    1.081   .     S
C686   C688    1.411   .     A
C686   C694    1.414   .     A
C687   H717    1.082   .     S
C687   N721    1.364   .     A
C688   H718    1.082   .     S
C688   N722    1.364   .     A
C689   O741    1.373   .     S
C689   C691    1.403   .     A
C689   N721    1.379   .     A
C690   O743    1.372   .     S
C690   N722    1.378   .     A
C690   C692    1.403   .     A
C691   C693    1.401   .     A
C691   H719    1.082   .     S
C692   H720    1.082   .     S
C692   C694    1.401   .     A
C694   C321    1.515   1_556 S
C695   C697    1.396   .     S
C695   O727    1.275   .     A
C695   O729    1.282   .     A
C696   O728    1.275   .     A
C696   C698    1.397   .     S
C696   O730    1.282   .     A
C698   C573    1.341   1_655 S
C698   Br610   1.943   1_655 S
C699   H711    1.084   .     S
C699   C709    1.398   .     A
C699   C701    1.381   .     A
C700   H712    1.084   .     S
C700   C710    1.397   .     A
C700   C702    1.382   .     A
C701   Br735   1.919   .     S
C701   C703    1.399   .     A
C702   C704    1.405   .     A
C702   Br736   1.923   .     S
C703   C705    1.399   .     A
C704   C706    1.402   .     A
C705   C707    1.385   .     A
C705   H713    1.084   .     S
C706   H714    1.084   .     S
C706   C708    1.384   .     A
C707   C709    1.410   .     A
C707   O737    1.382   .     S
C708   C710    1.409   .     A
C708   O739    1.382   .     S
C710   C523    1.439   1_565 S
N721   Zn732   2.013   .     S
N722   Zn731   2.013   .     S
O723   Zn731   1.994   .     S
O724   Zn732   1.994   .     S
O725   Zn732   1.978   .     S
O726   Zn731   1.978   .     S
O727   Zn731   1.984   .     S
O728   Zn732   1.984   .     S
O729   Zn732   1.980   .     S
O730   Zn731   1.980   .     S
Br733  C573    1.943   1_655 S
O737   H738    0.989   .     S
O739   H740    0.989   .     S
O741   H742    0.983   .     S
O743   H744    0.982   .     S
