data_str_m3_o1_o10_pcu_sym.217
_audit_creation_date              2020-01-03
_audit_creation_method            'Materials Studio'
_symmetry_space_group_name_H-M    'P1'
_symmetry_Int_Tables_number       1
_symmetry_cell_setting            triclinic
loop_
_symmetry_equiv_pos_as_xyz
  x,y,z
_cell_length_a                    25.7457
_cell_length_b                    31.9584
_cell_length_c                    29.5540
_cell_angle_alpha                 90.4081
_cell_angle_beta                  98.9467
_cell_angle_gamma                 89.8403
loop_
_atom_site_label
_atom_site_type_symbol
_atom_site_fract_x
_atom_site_fract_y
_atom_site_fract_z
_atom_site_U_iso_or_equiv
_atom_site_adp_type
_atom_site_occupancy
C1     C     0.16847   0.08679   0.16673   0.00000  Uiso   1.00
C2     C     0.16498   0.24660   0.16664   0.00000  Uiso   1.00
C3     C     0.06700   0.16640   0.15462   0.00000  Uiso   1.00
C4     C     0.26633   0.16624   0.17869   0.00000  Uiso   1.00
C5     C     0.01188   0.16618   0.14814   0.00000  Uiso   1.00
C6     C     0.32144   0.16511   0.18505   0.00000  Uiso   1.00
C7     C     0.20373   0.02011   0.14307   0.00000  Uiso   1.00
C8     C     0.13087   0.31350   0.19136   0.00000  Uiso   1.00
C9     C     0.20006   0.31042   0.14284   0.00000  Uiso   1.00
C10    C     0.13365   0.02315   0.19056   0.00000  Uiso   1.00
C11    C     0.16442   0.29079   0.16682   0.00000  Uiso   1.00
C12    C     0.16927   0.04270   0.16668   0.00000  Uiso   1.00
C13    C     0.20022   0.19173   0.02882   0.00000  Uiso   1.00
C14    C     0.13236   0.14208   0.30440   0.00000  Uiso   1.00
C15    C     0.20154   0.19094   0.31422   0.00000  Uiso   1.00
C16    C     0.13292   0.14103   0.01970   0.00000  Uiso   1.00
H17    H     0.32439   0.16740   0.11319   0.00000  Uiso   1.00
H18    H     0.00898   0.16357   0.21994   0.00000  Uiso   1.00
H19    H     0.22640   0.29203   0.12523   0.00000  Uiso   1.00
H20    H     0.10751   0.04158   0.20835   0.00000  Uiso   1.00
H21    H     0.22595   0.21248   0.05103   0.00000  Uiso   1.00
H22    H     0.10465   0.12362   0.28133   0.00000  Uiso   1.00
N23    N     0.16665   0.16666   0.28573   0.00000  Uiso   1.00
N24    N     0.16668   0.16668   0.04760   0.00000  Uiso   1.00
O25    O     0.16666   0.10558   0.20487   0.00000  Uiso   1.00
O26    O     0.16667   0.22775   0.12846   0.00000  Uiso   1.00
O27    O     0.16666   0.10559   0.12843   0.00000  Uiso   1.00
O28    O     0.16667   0.22774   0.20490   0.00000  Uiso   1.00
O29    O     0.09058   0.16666   0.19595   0.00000  Uiso   1.00
O30    O     0.24275   0.16667   0.13739   0.00000  Uiso   1.00
O31    O     0.09058   0.16667   0.11950   0.00000  Uiso   1.00
O32    O     0.24275   0.16666   0.21383   0.00000  Uiso   1.00
Zn33   Zn    0.16667   0.16666   0.21771   0.00000  Uiso   1.00
Zn34   Zn    0.16667   0.16667   0.11563   0.00000  Uiso   1.00
C35    C     0.24650   0.04016   0.12056   0.00000  Uiso   1.00
C36    C     0.23082   0.04182   0.06865   0.00000  Uiso   1.00
H37    H     0.22367   0.00980   0.05419   0.00000  Uiso   1.00
H38    H     0.19473   0.06089   0.05959   0.00000  Uiso   1.00
H39    H     0.26288   0.05639   0.05310   0.00000  Uiso   1.00
H40    H     0.25611   0.07218   0.13403   0.00000  Uiso   1.00
H41    H     0.28348   0.02179   0.12881   0.00000  Uiso   1.00
C42    C     0.09173   0.29385   0.21823   0.00000  Uiso   1.00
C43    C     0.11292   0.29498   0.26948   0.00000  Uiso   1.00
H44    H     0.08373   0.28140   0.28897   0.00000  Uiso   1.00
H45    H     0.14992   0.27666   0.27688   0.00000  Uiso   1.00
H46    H     0.12066   0.32772   0.28145   0.00000  Uiso   1.00
H47    H     0.05400   0.31146   0.21189   0.00000  Uiso   1.00
H48    H     0.08176   0.26123   0.20715   0.00000  Uiso   1.00
O49    O     0.23513   0.21703   0.29546   0.00000  Uiso   1.00
C50    C     0.28764   0.20433   0.31014   0.00000  Uiso   1.00
H51    H     0.29373   0.17130   0.29976   0.00000  Uiso   1.00
H52    H     0.29883   0.20734   0.01460   0.00000  Uiso   1.00
C53    C     0.32431   0.23219   0.28817   0.00000  Uiso   1.00
H54    H     0.32299   0.26463   0.30171   0.00000  Uiso   1.00
H55    H     0.03179   0.22000   0.29615   0.00000  Uiso   1.00
H56    H     0.31240   0.23277   0.25044   0.00000  Uiso   1.00
O57    O     0.09835   0.11695   0.04044   0.00000  Uiso   1.00
C58    C     0.08246   0.07976   0.01608   0.00000  Uiso   1.00
H59    H     0.11550   0.06446   0.00193   0.00000  Uiso   1.00
H60    H     0.04967   0.08665   0.32127   0.00000  Uiso   1.00
C61    C     0.06264   0.04896   0.04850   0.00000  Uiso   1.00
H62    H     0.03000   0.06318   0.06389   0.00000  Uiso   1.00
H63    H     0.04818   0.02014   0.02945   0.00000  Uiso   1.00
H64    H     0.09500   0.04042   0.07631   0.00000  Uiso   1.00
C65    C     0.50180   0.08679   0.16673   0.00000  Uiso   1.00
C66    C     0.49831   0.24660   0.16664   0.00000  Uiso   1.00
C67    C     0.40034   0.16640   0.15462   0.00000  Uiso   1.00
C68    C     0.59966   0.16624   0.17869   0.00000  Uiso   1.00
C69    C     0.34522   0.16618   0.14814   0.00000  Uiso   1.00
C70    C     0.65477   0.16511   0.18505   0.00000  Uiso   1.00
C71    C     0.53707   0.02011   0.14307   0.00000  Uiso   1.00
C72    C     0.46420   0.31350   0.19136   0.00000  Uiso   1.00
C73    C     0.53339   0.31042   0.14284   0.00000  Uiso   1.00
C74    C     0.46699   0.02315   0.19056   0.00000  Uiso   1.00
C75    C     0.49776   0.29079   0.16682   0.00000  Uiso   1.00
C76    C     0.50261   0.04270   0.16668   0.00000  Uiso   1.00
C77    C     0.53355   0.19173   0.02882   0.00000  Uiso   1.00
C78    C     0.46569   0.14208   0.30440   0.00000  Uiso   1.00
C79    C     0.53487   0.19094   0.31422   0.00000  Uiso   1.00
C80    C     0.46625   0.14103   0.01970   0.00000  Uiso   1.00
H81    H     0.65772   0.16740   0.11319   0.00000  Uiso   1.00
H82    H     0.34232   0.16357   0.21994   0.00000  Uiso   1.00
H83    H     0.55973   0.29203   0.12523   0.00000  Uiso   1.00
H84    H     0.44084   0.04158   0.20835   0.00000  Uiso   1.00
H85    H     0.55928   0.21248   0.05103   0.00000  Uiso   1.00
H86    H     0.43798   0.12362   0.28133   0.00000  Uiso   1.00
N87    N     0.49999   0.16666   0.28573   0.00000  Uiso   1.00
N88    N     0.50001   0.16668   0.04760   0.00000  Uiso   1.00
O89    O     0.50000   0.10558   0.20487   0.00000  Uiso   1.00
O90    O     0.50000   0.22775   0.12846   0.00000  Uiso   1.00
O91    O     0.50000   0.10559   0.12843   0.00000  Uiso   1.00
O92    O     0.50000   0.22774   0.20490   0.00000  Uiso   1.00
O93    O     0.42392   0.16666   0.19595   0.00000  Uiso   1.00
O94    O     0.57608   0.16667   0.13739   0.00000  Uiso   1.00
O95    O     0.42392   0.16667   0.11950   0.00000  Uiso   1.00
O96    O     0.57608   0.16666   0.21383   0.00000  Uiso   1.00
Zn97   Zn    0.50000   0.16666   0.21771   0.00000  Uiso   1.00
Zn98   Zn    0.50000   0.16667   0.11563   0.00000  Uiso   1.00
C99    C     0.57983   0.04016   0.12056   0.00000  Uiso   1.00
C100   C     0.56416   0.04182   0.06865   0.00000  Uiso   1.00
H101   H     0.55701   0.00980   0.05419   0.00000  Uiso   1.00
H102   H     0.52806   0.06089   0.05959   0.00000  Uiso   1.00
H103   H     0.59621   0.05639   0.05310   0.00000  Uiso   1.00
H104   H     0.58945   0.07218   0.13403   0.00000  Uiso   1.00
H105   H     0.61681   0.02179   0.12881   0.00000  Uiso   1.00
C106   C     0.42506   0.29385   0.21823   0.00000  Uiso   1.00
C107   C     0.44626   0.29498   0.26948   0.00000  Uiso   1.00
H108   H     0.41706   0.28140   0.28897   0.00000  Uiso   1.00
H109   H     0.48326   0.27666   0.27688   0.00000  Uiso   1.00
H110   H     0.45400   0.32772   0.28145   0.00000  Uiso   1.00
H111   H     0.38734   0.31146   0.21189   0.00000  Uiso   1.00
H112   H     0.41510   0.26123   0.20715   0.00000  Uiso   1.00
O113   O     0.56846   0.21703   0.29546   0.00000  Uiso   1.00
C114   C     0.62098   0.20433   0.31014   0.00000  Uiso   1.00
H115   H     0.62706   0.17130   0.29976   0.00000  Uiso   1.00
H116   H     0.63216   0.20734   0.01460   0.00000  Uiso   1.00
C117   C     0.65765   0.23219   0.28817   0.00000  Uiso   1.00
H118   H     0.65632   0.26463   0.30171   0.00000  Uiso   1.00
H119   H     0.36513   0.22000   0.29615   0.00000  Uiso   1.00
H120   H     0.64574   0.23277   0.25044   0.00000  Uiso   1.00
O121   O     0.43169   0.11695   0.04044   0.00000  Uiso   1.00
C122   C     0.41580   0.07976   0.01608   0.00000  Uiso   1.00
H123   H     0.44883   0.06446   0.00193   0.00000  Uiso   1.00
H124   H     0.38300   0.08665   0.32127   0.00000  Uiso   1.00
C125   C     0.39598   0.04896   0.04850   0.00000  Uiso   1.00
H126   H     0.36333   0.06318   0.06389   0.00000  Uiso   1.00
H127   H     0.38152   0.02014   0.02945   0.00000  Uiso   1.00
H128   H     0.42834   0.04042   0.07631   0.00000  Uiso   1.00
C129   C     0.83513   0.08679   0.16673   0.00000  Uiso   1.00
C130   C     0.83165   0.24660   0.16664   0.00000  Uiso   1.00
C131   C     0.73367   0.16640   0.15462   0.00000  Uiso   1.00
C132   C     0.93300   0.16624   0.17869   0.00000  Uiso   1.00
C133   C     0.67855   0.16618   0.14814   0.00000  Uiso   1.00
C134   C     0.98811   0.16511   0.18505   0.00000  Uiso   1.00
C135   C     0.87040   0.02011   0.14307   0.00000  Uiso   1.00
C136   C     0.79754   0.31350   0.19136   0.00000  Uiso   1.00
C137   C     0.86672   0.31042   0.14284   0.00000  Uiso   1.00
C138   C     0.80032   0.02315   0.19056   0.00000  Uiso   1.00
C139   C     0.83109   0.29079   0.16682   0.00000  Uiso   1.00
C140   C     0.83594   0.04270   0.16668   0.00000  Uiso   1.00
C141   C     0.86689   0.19173   0.02882   0.00000  Uiso   1.00
C142   C     0.79903   0.14208   0.30440   0.00000  Uiso   1.00
C143   C     0.86820   0.19094   0.31422   0.00000  Uiso   1.00
C144   C     0.79959   0.14103   0.01970   0.00000  Uiso   1.00
H145   H     0.99106   0.16740   0.11319   0.00000  Uiso   1.00
H146   H     0.67565   0.16357   0.21994   0.00000  Uiso   1.00
H147   H     0.89306   0.29203   0.12523   0.00000  Uiso   1.00
H148   H     0.77418   0.04158   0.20835   0.00000  Uiso   1.00
H149   H     0.89262   0.21248   0.05103   0.00000  Uiso   1.00
H150   H     0.77132   0.12362   0.28133   0.00000  Uiso   1.00
N151   N     0.83332   0.16666   0.28573   0.00000  Uiso   1.00
N152   N     0.83335   0.16668   0.04760   0.00000  Uiso   1.00
O153   O     0.83333   0.10558   0.20487   0.00000  Uiso   1.00
O154   O     0.83334   0.22775   0.12846   0.00000  Uiso   1.00
O155   O     0.83333   0.10559   0.12843   0.00000  Uiso   1.00
O156   O     0.83334   0.22774   0.20490   0.00000  Uiso   1.00
O157   O     0.75725   0.16666   0.19595   0.00000  Uiso   1.00
O158   O     0.90942   0.16667   0.13739   0.00000  Uiso   1.00
O159   O     0.75725   0.16667   0.11950   0.00000  Uiso   1.00
O160   O     0.90942   0.16666   0.21383   0.00000  Uiso   1.00
Zn161  Zn    0.83333   0.16666   0.21771   0.00000  Uiso   1.00
Zn162  Zn    0.83333   0.16667   0.11563   0.00000  Uiso   1.00
C163   C     0.91317   0.04016   0.12056   0.00000  Uiso   1.00
C164   C     0.89749   0.04182   0.06865   0.00000  Uiso   1.00
H165   H     0.89034   0.00980   0.05419   0.00000  Uiso   1.00
H166   H     0.86140   0.06089   0.05959   0.00000  Uiso   1.00
H167   H     0.92955   0.05639   0.05310   0.00000  Uiso   1.00
H168   H     0.92278   0.07218   0.13403   0.00000  Uiso   1.00
H169   H     0.95014   0.02179   0.12881   0.00000  Uiso   1.00
C170   C     0.75839   0.29385   0.21823   0.00000  Uiso   1.00
C171   C     0.77959   0.29498   0.26948   0.00000  Uiso   1.00
H172   H     0.75040   0.28140   0.28897   0.00000  Uiso   1.00
H173   H     0.81659   0.27666   0.27688   0.00000  Uiso   1.00
H174   H     0.78733   0.32772   0.28145   0.00000  Uiso   1.00
H175   H     0.72067   0.31146   0.21189   0.00000  Uiso   1.00
H176   H     0.74843   0.26123   0.20715   0.00000  Uiso   1.00
O177   O     0.90180   0.21703   0.29546   0.00000  Uiso   1.00
C178   C     0.95431   0.20433   0.31014   0.00000  Uiso   1.00
H179   H     0.96040   0.17130   0.29976   0.00000  Uiso   1.00
H180   H     0.96549   0.20734   0.01460   0.00000  Uiso   1.00
C181   C     0.99098   0.23219   0.28817   0.00000  Uiso   1.00
H182   H     0.98966   0.26463   0.30171   0.00000  Uiso   1.00
H183   H     0.69846   0.22000   0.29615   0.00000  Uiso   1.00
H184   H     0.97907   0.23277   0.25044   0.00000  Uiso   1.00
O185   O     0.76502   0.11695   0.04044   0.00000  Uiso   1.00
C186   C     0.74913   0.07976   0.01608   0.00000  Uiso   1.00
H187   H     0.78217   0.06446   0.00193   0.00000  Uiso   1.00
H188   H     0.71634   0.08665   0.32127   0.00000  Uiso   1.00
C189   C     0.72931   0.04896   0.04850   0.00000  Uiso   1.00
H190   H     0.69666   0.06318   0.06389   0.00000  Uiso   1.00
H191   H     0.71485   0.02014   0.02945   0.00000  Uiso   1.00
H192   H     0.76167   0.04042   0.07631   0.00000  Uiso   1.00
C193   C     0.16847   0.42013   0.16673   0.00000  Uiso   1.00
C194   C     0.16498   0.57994   0.16664   0.00000  Uiso   1.00
C195   C     0.06700   0.49973   0.15462   0.00000  Uiso   1.00
C196   C     0.26633   0.49957   0.17869   0.00000  Uiso   1.00
C197   C     0.01188   0.49952   0.14814   0.00000  Uiso   1.00
C198   C     0.32144   0.49844   0.18505   0.00000  Uiso   1.00
C199   C     0.20373   0.35344   0.14307   0.00000  Uiso   1.00
C200   C     0.13087   0.64683   0.19136   0.00000  Uiso   1.00
C201   C     0.20006   0.64376   0.14284   0.00000  Uiso   1.00
C202   C     0.13365   0.35648   0.19056   0.00000  Uiso   1.00
C203   C     0.16442   0.62413   0.16682   0.00000  Uiso   1.00
C204   C     0.16927   0.37603   0.16668   0.00000  Uiso   1.00
C205   C     0.20022   0.52507   0.02882   0.00000  Uiso   1.00
C206   C     0.13236   0.47542   0.30440   0.00000  Uiso   1.00
C207   C     0.20154   0.52428   0.31422   0.00000  Uiso   1.00
C208   C     0.13292   0.47436   0.01970   0.00000  Uiso   1.00
H209   H     0.32439   0.50073   0.11319   0.00000  Uiso   1.00
H210   H     0.00898   0.49690   0.21994   0.00000  Uiso   1.00
H211   H     0.22640   0.62537   0.12523   0.00000  Uiso   1.00
H212   H     0.10751   0.37491   0.20835   0.00000  Uiso   1.00
H213   H     0.22595   0.54581   0.05103   0.00000  Uiso   1.00
H214   H     0.10465   0.45695   0.28133   0.00000  Uiso   1.00
N215   N     0.16665   0.49999   0.28573   0.00000  Uiso   1.00
N216   N     0.16668   0.50001   0.04760   0.00000  Uiso   1.00
O217   O     0.16666   0.43892   0.20487   0.00000  Uiso   1.00
O218   O     0.16667   0.56108   0.12846   0.00000  Uiso   1.00
O219   O     0.16666   0.43893   0.12843   0.00000  Uiso   1.00
O220   O     0.16667   0.56107   0.20490   0.00000  Uiso   1.00
O221   O     0.09058   0.50000   0.19595   0.00000  Uiso   1.00
O222   O     0.24275   0.50000   0.13739   0.00000  Uiso   1.00
O223   O     0.09058   0.50000   0.11950   0.00000  Uiso   1.00
O224   O     0.24275   0.50000   0.21383   0.00000  Uiso   1.00
Zn225  Zn    0.16667   0.49999   0.21771   0.00000  Uiso   1.00
Zn226  Zn    0.16667   0.50001   0.11563   0.00000  Uiso   1.00
C227   C     0.24650   0.37349   0.12056   0.00000  Uiso   1.00
C228   C     0.23082   0.37515   0.06865   0.00000  Uiso   1.00
H229   H     0.22367   0.34313   0.05419   0.00000  Uiso   1.00
H230   H     0.19473   0.39423   0.05959   0.00000  Uiso   1.00
H231   H     0.26288   0.38972   0.05310   0.00000  Uiso   1.00
H232   H     0.25611   0.40551   0.13403   0.00000  Uiso   1.00
H233   H     0.28348   0.35512   0.12881   0.00000  Uiso   1.00
C234   C     0.09173   0.62718   0.21823   0.00000  Uiso   1.00
C235   C     0.11292   0.62831   0.26948   0.00000  Uiso   1.00
H236   H     0.08373   0.61474   0.28897   0.00000  Uiso   1.00
H237   H     0.14992   0.61000   0.27688   0.00000  Uiso   1.00
H238   H     0.12066   0.66105   0.28145   0.00000  Uiso   1.00
H239   H     0.05400   0.64480   0.21189   0.00000  Uiso   1.00
H240   H     0.08176   0.59456   0.20715   0.00000  Uiso   1.00
O241   O     0.23513   0.55036   0.29546   0.00000  Uiso   1.00
C242   C     0.28764   0.53766   0.31014   0.00000  Uiso   1.00
H243   H     0.29373   0.50464   0.29976   0.00000  Uiso   1.00
H244   H     0.29883   0.54068   0.01460   0.00000  Uiso   1.00
C245   C     0.32431   0.56553   0.28817   0.00000  Uiso   1.00
H246   H     0.32299   0.59796   0.30171   0.00000  Uiso   1.00
H247   H     0.03179   0.55334   0.29615   0.00000  Uiso   1.00
H248   H     0.31240   0.56611   0.25044   0.00000  Uiso   1.00
O249   O     0.09835   0.45028   0.04044   0.00000  Uiso   1.00
C250   C     0.08246   0.41309   0.01608   0.00000  Uiso   1.00
H251   H     0.11550   0.39779   0.00193   0.00000  Uiso   1.00
H252   H     0.04967   0.41999   0.32127   0.00000  Uiso   1.00
C253   C     0.06264   0.38230   0.04850   0.00000  Uiso   1.00
H254   H     0.03000   0.39651   0.06389   0.00000  Uiso   1.00
H255   H     0.04818   0.35347   0.02945   0.00000  Uiso   1.00
H256   H     0.09500   0.37376   0.07631   0.00000  Uiso   1.00
C257   C     0.50180   0.42013   0.16673   0.00000  Uiso   1.00
C258   C     0.49831   0.57994   0.16664   0.00000  Uiso   1.00
C259   C     0.40034   0.49973   0.15462   0.00000  Uiso   1.00
C260   C     0.59966   0.49957   0.17869   0.00000  Uiso   1.00
C261   C     0.34522   0.49952   0.14814   0.00000  Uiso   1.00
C262   C     0.65477   0.49844   0.18505   0.00000  Uiso   1.00
C263   C     0.53707   0.35344   0.14307   0.00000  Uiso   1.00
C264   C     0.46420   0.64683   0.19136   0.00000  Uiso   1.00
C265   C     0.53339   0.64376   0.14284   0.00000  Uiso   1.00
C266   C     0.46699   0.35648   0.19056   0.00000  Uiso   1.00
C267   C     0.49776   0.62413   0.16682   0.00000  Uiso   1.00
C268   C     0.50261   0.37603   0.16668   0.00000  Uiso   1.00
C269   C     0.53355   0.52507   0.02882   0.00000  Uiso   1.00
C270   C     0.46569   0.47542   0.30440   0.00000  Uiso   1.00
C271   C     0.53487   0.52428   0.31422   0.00000  Uiso   1.00
C272   C     0.46625   0.47436   0.01970   0.00000  Uiso   1.00
H273   H     0.65772   0.50073   0.11319   0.00000  Uiso   1.00
H274   H     0.34232   0.49690   0.21994   0.00000  Uiso   1.00
H275   H     0.55973   0.62537   0.12523   0.00000  Uiso   1.00
H276   H     0.44084   0.37491   0.20835   0.00000  Uiso   1.00
H277   H     0.55928   0.54581   0.05103   0.00000  Uiso   1.00
H278   H     0.43798   0.45695   0.28133   0.00000  Uiso   1.00
N279   N     0.49999   0.49999   0.28573   0.00000  Uiso   1.00
N280   N     0.50001   0.50001   0.04760   0.00000  Uiso   1.00
O281   O     0.50000   0.43892   0.20487   0.00000  Uiso   1.00
O282   O     0.50000   0.56108   0.12846   0.00000  Uiso   1.00
O283   O     0.50000   0.43893   0.12843   0.00000  Uiso   1.00
O284   O     0.50000   0.56107   0.20490   0.00000  Uiso   1.00
O285   O     0.42392   0.50000   0.19595   0.00000  Uiso   1.00
O286   O     0.57608   0.50000   0.13739   0.00000  Uiso   1.00
O287   O     0.42392   0.50000   0.11950   0.00000  Uiso   1.00
O288   O     0.57608   0.50000   0.21383   0.00000  Uiso   1.00
Zn289  Zn    0.50000   0.49999   0.21771   0.00000  Uiso   1.00
Zn290  Zn    0.50000   0.50001   0.11563   0.00000  Uiso   1.00
C291   C     0.57983   0.37349   0.12056   0.00000  Uiso   1.00
C292   C     0.56416   0.37515   0.06865   0.00000  Uiso   1.00
H293   H     0.55701   0.34313   0.05419   0.00000  Uiso   1.00
H294   H     0.52806   0.39423   0.05959   0.00000  Uiso   1.00
H295   H     0.59621   0.38972   0.05310   0.00000  Uiso   1.00
H296   H     0.58945   0.40551   0.13403   0.00000  Uiso   1.00
H297   H     0.61681   0.35512   0.12881   0.00000  Uiso   1.00
C298   C     0.42506   0.62718   0.21823   0.00000  Uiso   1.00
C299   C     0.44626   0.62831   0.26948   0.00000  Uiso   1.00
H300   H     0.41706   0.61474   0.28897   0.00000  Uiso   1.00
H301   H     0.48326   0.61000   0.27688   0.00000  Uiso   1.00
H302   H     0.45400   0.66105   0.28145   0.00000  Uiso   1.00
H303   H     0.38734   0.64480   0.21189   0.00000  Uiso   1.00
H304   H     0.41510   0.59456   0.20715   0.00000  Uiso   1.00
O305   O     0.56846   0.55036   0.29546   0.00000  Uiso   1.00
C306   C     0.62098   0.53766   0.31014   0.00000  Uiso   1.00
H307   H     0.62706   0.50464   0.29976   0.00000  Uiso   1.00
H308   H     0.63216   0.54068   0.01460   0.00000  Uiso   1.00
C309   C     0.65765   0.56553   0.28817   0.00000  Uiso   1.00
H310   H     0.65632   0.59796   0.30171   0.00000  Uiso   1.00
H311   H     0.36513   0.55334   0.29615   0.00000  Uiso   1.00
H312   H     0.64574   0.56611   0.25044   0.00000  Uiso   1.00
O313   O     0.43169   0.45028   0.04044   0.00000  Uiso   1.00
C314   C     0.41580   0.41309   0.01608   0.00000  Uiso   1.00
H315   H     0.44883   0.39779   0.00193   0.00000  Uiso   1.00
H316   H     0.38300   0.41999   0.32127   0.00000  Uiso   1.00
C317   C     0.39598   0.38230   0.04850   0.00000  Uiso   1.00
H318   H     0.36333   0.39651   0.06389   0.00000  Uiso   1.00
H319   H     0.38152   0.35347   0.02945   0.00000  Uiso   1.00
H320   H     0.42834   0.37376   0.07631   0.00000  Uiso   1.00
C321   C     0.83513   0.42013   0.16673   0.00000  Uiso   1.00
C322   C     0.83165   0.57994   0.16664   0.00000  Uiso   1.00
C323   C     0.73367   0.49973   0.15462   0.00000  Uiso   1.00
C324   C     0.93300   0.49957   0.17869   0.00000  Uiso   1.00
C325   C     0.67855   0.49952   0.14814   0.00000  Uiso   1.00
C326   C     0.98811   0.49844   0.18505   0.00000  Uiso   1.00
C327   C     0.87040   0.35344   0.14307   0.00000  Uiso   1.00
C328   C     0.79754   0.64683   0.19136   0.00000  Uiso   1.00
C329   C     0.86672   0.64376   0.14284   0.00000  Uiso   1.00
C330   C     0.80032   0.35648   0.19056   0.00000  Uiso   1.00
C331   C     0.83109   0.62413   0.16682   0.00000  Uiso   1.00
C332   C     0.83594   0.37603   0.16668   0.00000  Uiso   1.00
C333   C     0.86689   0.52507   0.02882   0.00000  Uiso   1.00
C334   C     0.79903   0.47542   0.30440   0.00000  Uiso   1.00
C335   C     0.86820   0.52428   0.31422   0.00000  Uiso   1.00
C336   C     0.79959   0.47436   0.01970   0.00000  Uiso   1.00
H337   H     0.99106   0.50073   0.11319   0.00000  Uiso   1.00
H338   H     0.67565   0.49690   0.21994   0.00000  Uiso   1.00
H339   H     0.89306   0.62537   0.12523   0.00000  Uiso   1.00
H340   H     0.77418   0.37491   0.20835   0.00000  Uiso   1.00
H341   H     0.89262   0.54581   0.05103   0.00000  Uiso   1.00
H342   H     0.77132   0.45695   0.28133   0.00000  Uiso   1.00
N343   N     0.83332   0.49999   0.28573   0.00000  Uiso   1.00
N344   N     0.83335   0.50001   0.04760   0.00000  Uiso   1.00
O345   O     0.83333   0.43892   0.20487   0.00000  Uiso   1.00
O346   O     0.83334   0.56108   0.12846   0.00000  Uiso   1.00
O347   O     0.83333   0.43893   0.12843   0.00000  Uiso   1.00
O348   O     0.83334   0.56107   0.20490   0.00000  Uiso   1.00
O349   O     0.75725   0.50000   0.19595   0.00000  Uiso   1.00
O350   O     0.90942   0.50000   0.13739   0.00000  Uiso   1.00
O351   O     0.75725   0.50000   0.11950   0.00000  Uiso   1.00
O352   O     0.90942   0.50000   0.21383   0.00000  Uiso   1.00
Zn353  Zn    0.83333   0.49999   0.21771   0.00000  Uiso   1.00
Zn354  Zn    0.83333   0.50001   0.11563   0.00000  Uiso   1.00
C355   C     0.91317   0.37349   0.12056   0.00000  Uiso   1.00
C356   C     0.89749   0.37515   0.06865   0.00000  Uiso   1.00
H357   H     0.89034   0.34313   0.05419   0.00000  Uiso   1.00
H358   H     0.86140   0.39423   0.05959   0.00000  Uiso   1.00
H359   H     0.92955   0.38972   0.05310   0.00000  Uiso   1.00
H360   H     0.92278   0.40551   0.13403   0.00000  Uiso   1.00
H361   H     0.95014   0.35512   0.12881   0.00000  Uiso   1.00
C362   C     0.75839   0.62718   0.21823   0.00000  Uiso   1.00
C363   C     0.77959   0.62831   0.26948   0.00000  Uiso   1.00
H364   H     0.75040   0.61474   0.28897   0.00000  Uiso   1.00
H365   H     0.81659   0.61000   0.27688   0.00000  Uiso   1.00
H366   H     0.78733   0.66105   0.28145   0.00000  Uiso   1.00
H367   H     0.72067   0.64480   0.21189   0.00000  Uiso   1.00
H368   H     0.74843   0.59456   0.20715   0.00000  Uiso   1.00
O369   O     0.90180   0.55036   0.29546   0.00000  Uiso   1.00
C370   C     0.95431   0.53766   0.31014   0.00000  Uiso   1.00
H371   H     0.96040   0.50464   0.29976   0.00000  Uiso   1.00
H372   H     0.96549   0.54068   0.01460   0.00000  Uiso   1.00
C373   C     0.99098   0.56553   0.28817   0.00000  Uiso   1.00
H374   H     0.98966   0.59796   0.30171   0.00000  Uiso   1.00
H375   H     0.69846   0.55334   0.29615   0.00000  Uiso   1.00
H376   H     0.97907   0.56611   0.25044   0.00000  Uiso   1.00
O377   O     0.76502   0.45028   0.04044   0.00000  Uiso   1.00
C378   C     0.74913   0.41309   0.01608   0.00000  Uiso   1.00
H379   H     0.78217   0.39779   0.00193   0.00000  Uiso   1.00
H380   H     0.71634   0.41999   0.32127   0.00000  Uiso   1.00
C381   C     0.72931   0.38230   0.04850   0.00000  Uiso   1.00
H382   H     0.69666   0.39651   0.06389   0.00000  Uiso   1.00
H383   H     0.71485   0.35347   0.02945   0.00000  Uiso   1.00
H384   H     0.76167   0.37376   0.07631   0.00000  Uiso   1.00
C385   C     0.16847   0.75346   0.16673   0.00000  Uiso   1.00
C386   C     0.16498   0.91327   0.16664   0.00000  Uiso   1.00
C387   C     0.06700   0.83307   0.15462   0.00000  Uiso   1.00
C388   C     0.26633   0.83291   0.17869   0.00000  Uiso   1.00
C389   C     0.01188   0.83285   0.14814   0.00000  Uiso   1.00
C390   C     0.32144   0.83177   0.18505   0.00000  Uiso   1.00
C391   C     0.20373   0.68678   0.14307   0.00000  Uiso   1.00
C392   C     0.13087   0.98017   0.19136   0.00000  Uiso   1.00
C393   C     0.20006   0.97709   0.14284   0.00000  Uiso   1.00
C394   C     0.13365   0.68981   0.19056   0.00000  Uiso   1.00
C395   C     0.16442   0.95746   0.16682   0.00000  Uiso   1.00
C396   C     0.16927   0.70937   0.16668   0.00000  Uiso   1.00
C397   C     0.20022   0.85840   0.02882   0.00000  Uiso   1.00
C398   C     0.13236   0.80875   0.30440   0.00000  Uiso   1.00
C399   C     0.20154   0.85761   0.31422   0.00000  Uiso   1.00
C400   C     0.13292   0.80770   0.01970   0.00000  Uiso   1.00
H401   H     0.32439   0.83406   0.11319   0.00000  Uiso   1.00
H402   H     0.00898   0.83024   0.21994   0.00000  Uiso   1.00
H403   H     0.22640   0.95870   0.12523   0.00000  Uiso   1.00
H404   H     0.10751   0.70824   0.20835   0.00000  Uiso   1.00
H405   H     0.22595   0.87914   0.05103   0.00000  Uiso   1.00
H406   H     0.10465   0.79029   0.28133   0.00000  Uiso   1.00
N407   N     0.16665   0.83332   0.28573   0.00000  Uiso   1.00
N408   N     0.16668   0.83334   0.04760   0.00000  Uiso   1.00
O409   O     0.16666   0.77225   0.20487   0.00000  Uiso   1.00
O410   O     0.16667   0.89442   0.12846   0.00000  Uiso   1.00
O411   O     0.16666   0.77226   0.12843   0.00000  Uiso   1.00
O412   O     0.16667   0.89441   0.20490   0.00000  Uiso   1.00
O413   O     0.09058   0.83333   0.19595   0.00000  Uiso   1.00
O414   O     0.24275   0.83334   0.13739   0.00000  Uiso   1.00
O415   O     0.09058   0.83334   0.11950   0.00000  Uiso   1.00
O416   O     0.24275   0.83333   0.21383   0.00000  Uiso   1.00
Zn417  Zn    0.16667   0.83333   0.21771   0.00000  Uiso   1.00
Zn418  Zn    0.16667   0.83334   0.11563   0.00000  Uiso   1.00
C419   C     0.24650   0.70683   0.12056   0.00000  Uiso   1.00
C420   C     0.23082   0.70849   0.06865   0.00000  Uiso   1.00
H421   H     0.22367   0.67647   0.05419   0.00000  Uiso   1.00
H422   H     0.19473   0.72756   0.05959   0.00000  Uiso   1.00
H423   H     0.26288   0.72305   0.05310   0.00000  Uiso   1.00
H424   H     0.25611   0.73885   0.13403   0.00000  Uiso   1.00
H425   H     0.28348   0.68846   0.12881   0.00000  Uiso   1.00
C426   C     0.09173   0.96051   0.21823   0.00000  Uiso   1.00
C427   C     0.11292   0.96164   0.26948   0.00000  Uiso   1.00
H428   H     0.08373   0.94807   0.28897   0.00000  Uiso   1.00
H429   H     0.14992   0.94333   0.27688   0.00000  Uiso   1.00
H430   H     0.12066   0.99439   0.28145   0.00000  Uiso   1.00
H431   H     0.05400   0.97813   0.21189   0.00000  Uiso   1.00
H432   H     0.08176   0.92790   0.20715   0.00000  Uiso   1.00
O433   O     0.23513   0.88370   0.29546   0.00000  Uiso   1.00
C434   C     0.28764   0.87100   0.31014   0.00000  Uiso   1.00
H435   H     0.29373   0.83797   0.29976   0.00000  Uiso   1.00
H436   H     0.29883   0.87401   0.01460   0.00000  Uiso   1.00
C437   C     0.32431   0.89886   0.28817   0.00000  Uiso   1.00
H438   H     0.32299   0.93130   0.30171   0.00000  Uiso   1.00
H439   H     0.03179   0.88667   0.29615   0.00000  Uiso   1.00
H440   H     0.31240   0.89944   0.25044   0.00000  Uiso   1.00
O441   O     0.09835   0.78362   0.04044   0.00000  Uiso   1.00
C442   C     0.08246   0.74642   0.01608   0.00000  Uiso   1.00
H443   H     0.11550   0.73113   0.00193   0.00000  Uiso   1.00
H444   H     0.04967   0.75332   0.32127   0.00000  Uiso   1.00
C445   C     0.06264   0.71563   0.04850   0.00000  Uiso   1.00
H446   H     0.03000   0.72985   0.06389   0.00000  Uiso   1.00
H447   H     0.04818   0.68680   0.02945   0.00000  Uiso   1.00
H448   H     0.09500   0.70709   0.07631   0.00000  Uiso   1.00
C449   C     0.50180   0.75346   0.16673   0.00000  Uiso   1.00
C450   C     0.49831   0.91327   0.16664   0.00000  Uiso   1.00
C451   C     0.40034   0.83307   0.15462   0.00000  Uiso   1.00
C452   C     0.59966   0.83291   0.17869   0.00000  Uiso   1.00
C453   C     0.34522   0.83285   0.14814   0.00000  Uiso   1.00
C454   C     0.65477   0.83177   0.18505   0.00000  Uiso   1.00
C455   C     0.53707   0.68678   0.14307   0.00000  Uiso   1.00
C456   C     0.46420   0.98017   0.19136   0.00000  Uiso   1.00
C457   C     0.53339   0.97709   0.14284   0.00000  Uiso   1.00
C458   C     0.46699   0.68981   0.19056   0.00000  Uiso   1.00
C459   C     0.49776   0.95746   0.16682   0.00000  Uiso   1.00
C460   C     0.50261   0.70937   0.16668   0.00000  Uiso   1.00
C461   C     0.53355   0.85840   0.02882   0.00000  Uiso   1.00
C462   C     0.46569   0.80875   0.30440   0.00000  Uiso   1.00
C463   C     0.53487   0.85761   0.31422   0.00000  Uiso   1.00
C464   C     0.46625   0.80770   0.01970   0.00000  Uiso   1.00
H465   H     0.65772   0.83406   0.11319   0.00000  Uiso   1.00
H466   H     0.34232   0.83024   0.21994   0.00000  Uiso   1.00
H467   H     0.55973   0.95870   0.12523   0.00000  Uiso   1.00
H468   H     0.44084   0.70824   0.20835   0.00000  Uiso   1.00
H469   H     0.55928   0.87914   0.05103   0.00000  Uiso   1.00
H470   H     0.43798   0.79029   0.28133   0.00000  Uiso   1.00
N471   N     0.49999   0.83332   0.28573   0.00000  Uiso   1.00
N472   N     0.50001   0.83334   0.04760   0.00000  Uiso   1.00
O473   O     0.50000   0.77225   0.20487   0.00000  Uiso   1.00
O474   O     0.50000   0.89442   0.12846   0.00000  Uiso   1.00
O475   O     0.50000   0.77226   0.12843   0.00000  Uiso   1.00
O476   O     0.50000   0.89441   0.20490   0.00000  Uiso   1.00
O477   O     0.42392   0.83333   0.19595   0.00000  Uiso   1.00
O478   O     0.57608   0.83334   0.13739   0.00000  Uiso   1.00
O479   O     0.42392   0.83334   0.11950   0.00000  Uiso   1.00
O480   O     0.57608   0.83333   0.21383   0.00000  Uiso   1.00
Zn481  Zn    0.50000   0.83333   0.21771   0.00000  Uiso   1.00
Zn482  Zn    0.50000   0.83334   0.11563   0.00000  Uiso   1.00
C483   C     0.57983   0.70683   0.12056   0.00000  Uiso   1.00
C484   C     0.56416   0.70849   0.06865   0.00000  Uiso   1.00
H485   H     0.55701   0.67647   0.05419   0.00000  Uiso   1.00
H486   H     0.52806   0.72756   0.05959   0.00000  Uiso   1.00
H487   H     0.59621   0.72305   0.05310   0.00000  Uiso   1.00
H488   H     0.58945   0.73885   0.13403   0.00000  Uiso   1.00
H489   H     0.61681   0.68846   0.12881   0.00000  Uiso   1.00
C490   C     0.42506   0.96051   0.21823   0.00000  Uiso   1.00
C491   C     0.44626   0.96164   0.26948   0.00000  Uiso   1.00
H492   H     0.41706   0.94807   0.28897   0.00000  Uiso   1.00
H493   H     0.48326   0.94333   0.27688   0.00000  Uiso   1.00
H494   H     0.45400   0.99439   0.28145   0.00000  Uiso   1.00
H495   H     0.38734   0.97813   0.21189   0.00000  Uiso   1.00
H496   H     0.41510   0.92790   0.20715   0.00000  Uiso   1.00
O497   O     0.56846   0.88370   0.29546   0.00000  Uiso   1.00
C498   C     0.62098   0.87100   0.31014   0.00000  Uiso   1.00
H499   H     0.62706   0.83797   0.29976   0.00000  Uiso   1.00
H500   H     0.63216   0.87401   0.01460   0.00000  Uiso   1.00
C501   C     0.65765   0.89886   0.28817   0.00000  Uiso   1.00
H502   H     0.65632   0.93130   0.30171   0.00000  Uiso   1.00
H503   H     0.36513   0.88667   0.29615   0.00000  Uiso   1.00
H504   H     0.64574   0.89944   0.25044   0.00000  Uiso   1.00
O505   O     0.43169   0.78362   0.04044   0.00000  Uiso   1.00
C506   C     0.41580   0.74642   0.01608   0.00000  Uiso   1.00
H507   H     0.44883   0.73113   0.00193   0.00000  Uiso   1.00
H508   H     0.38300   0.75332   0.32127   0.00000  Uiso   1.00
C509   C     0.39598   0.71563   0.04850   0.00000  Uiso   1.00
H510   H     0.36333   0.72985   0.06389   0.00000  Uiso   1.00
H511   H     0.38152   0.68680   0.02945   0.00000  Uiso   1.00
H512   H     0.42834   0.70709   0.07631   0.00000  Uiso   1.00
C513   C     0.83513   0.75346   0.16673   0.00000  Uiso   1.00
C514   C     0.83165   0.91327   0.16664   0.00000  Uiso   1.00
C515   C     0.73367   0.83307   0.15462   0.00000  Uiso   1.00
C516   C     0.93300   0.83291   0.17869   0.00000  Uiso   1.00
C517   C     0.67855   0.83285   0.14814   0.00000  Uiso   1.00
C518   C     0.98811   0.83177   0.18505   0.00000  Uiso   1.00
C519   C     0.87040   0.68678   0.14307   0.00000  Uiso   1.00
C520   C     0.79754   0.98017   0.19136   0.00000  Uiso   1.00
C521   C     0.86672   0.97709   0.14284   0.00000  Uiso   1.00
C522   C     0.80032   0.68981   0.19056   0.00000  Uiso   1.00
C523   C     0.83109   0.95746   0.16682   0.00000  Uiso   1.00
C524   C     0.83594   0.70937   0.16668   0.00000  Uiso   1.00
C525   C     0.86689   0.85840   0.02882   0.00000  Uiso   1.00
C526   C     0.79903   0.80875   0.30440   0.00000  Uiso   1.00
C527   C     0.86820   0.85761   0.31422   0.00000  Uiso   1.00
C528   C     0.79959   0.80770   0.01970   0.00000  Uiso   1.00
H529   H     0.99106   0.83406   0.11319   0.00000  Uiso   1.00
H530   H     0.67565   0.83024   0.21994   0.00000  Uiso   1.00
H531   H     0.89306   0.95870   0.12523   0.00000  Uiso   1.00
H532   H     0.77418   0.70824   0.20835   0.00000  Uiso   1.00
H533   H     0.89262   0.87914   0.05103   0.00000  Uiso   1.00
H534   H     0.77132   0.79029   0.28133   0.00000  Uiso   1.00
N535   N     0.83332   0.83332   0.28573   0.00000  Uiso   1.00
N536   N     0.83335   0.83334   0.04760   0.00000  Uiso   1.00
O537   O     0.83333   0.77225   0.20487   0.00000  Uiso   1.00
O538   O     0.83334   0.89442   0.12846   0.00000  Uiso   1.00
O539   O     0.83333   0.77226   0.12843   0.00000  Uiso   1.00
O540   O     0.83334   0.89441   0.20490   0.00000  Uiso   1.00
O541   O     0.75725   0.83333   0.19595   0.00000  Uiso   1.00
O542   O     0.90942   0.83334   0.13739   0.00000  Uiso   1.00
O543   O     0.75725   0.83334   0.11950   0.00000  Uiso   1.00
O544   O     0.90942   0.83333   0.21383   0.00000  Uiso   1.00
Zn545  Zn    0.83333   0.83333   0.21771   0.00000  Uiso   1.00
Zn546  Zn    0.83333   0.83334   0.11563   0.00000  Uiso   1.00
C547   C     0.91317   0.70683   0.12056   0.00000  Uiso   1.00
C548   C     0.89749   0.70849   0.06865   0.00000  Uiso   1.00
H549   H     0.89034   0.67647   0.05419   0.00000  Uiso   1.00
H550   H     0.86140   0.72756   0.05959   0.00000  Uiso   1.00
H551   H     0.92955   0.72305   0.05310   0.00000  Uiso   1.00
H552   H     0.92278   0.73885   0.13403   0.00000  Uiso   1.00
H553   H     0.95014   0.68846   0.12881   0.00000  Uiso   1.00
C554   C     0.75839   0.96051   0.21823   0.00000  Uiso   1.00
C555   C     0.77959   0.96164   0.26948   0.00000  Uiso   1.00
H556   H     0.75040   0.94807   0.28897   0.00000  Uiso   1.00
H557   H     0.81659   0.94333   0.27688   0.00000  Uiso   1.00
H558   H     0.78733   0.99439   0.28145   0.00000  Uiso   1.00
H559   H     0.72067   0.97813   0.21189   0.00000  Uiso   1.00
H560   H     0.74843   0.92790   0.20715   0.00000  Uiso   1.00
O561   O     0.90180   0.88370   0.29546   0.00000  Uiso   1.00
C562   C     0.95431   0.87100   0.31014   0.00000  Uiso   1.00
H563   H     0.96040   0.83797   0.29976   0.00000  Uiso   1.00
H564   H     0.96549   0.87401   0.01460   0.00000  Uiso   1.00
C565   C     0.99098   0.89886   0.28817   0.00000  Uiso   1.00
H566   H     0.98966   0.93130   0.30171   0.00000  Uiso   1.00
H567   H     0.69846   0.88667   0.29615   0.00000  Uiso   1.00
H568   H     0.97907   0.89944   0.25044   0.00000  Uiso   1.00
O569   O     0.76502   0.78362   0.04044   0.00000  Uiso   1.00
C570   C     0.74913   0.74642   0.01608   0.00000  Uiso   1.00
H571   H     0.78217   0.73113   0.00193   0.00000  Uiso   1.00
H572   H     0.71634   0.75332   0.32127   0.00000  Uiso   1.00
C573   C     0.72931   0.71563   0.04850   0.00000  Uiso   1.00
H574   H     0.69666   0.72985   0.06389   0.00000  Uiso   1.00
H575   H     0.71485   0.68680   0.02945   0.00000  Uiso   1.00
H576   H     0.76167   0.70709   0.07631   0.00000  Uiso   1.00
C577   C     0.16847   0.08679   0.50006   0.00000  Uiso   1.00
C578   C     0.16498   0.24660   0.49998   0.00000  Uiso   1.00
C579   C     0.06700   0.16640   0.48795   0.00000  Uiso   1.00
C580   C     0.26633   0.16624   0.51202   0.00000  Uiso   1.00
C581   C     0.01188   0.16618   0.48147   0.00000  Uiso   1.00
C582   C     0.32144   0.16511   0.51838   0.00000  Uiso   1.00
C583   C     0.20373   0.02011   0.47640   0.00000  Uiso   1.00
C584   C     0.13087   0.31350   0.52469   0.00000  Uiso   1.00
C585   C     0.20006   0.31042   0.47617   0.00000  Uiso   1.00
C586   C     0.13365   0.02315   0.52390   0.00000  Uiso   1.00
C587   C     0.16442   0.29079   0.50015   0.00000  Uiso   1.00
C588   C     0.16927   0.04270   0.50002   0.00000  Uiso   1.00
C589   C     0.20022   0.19173   0.36216   0.00000  Uiso   1.00
C590   C     0.13236   0.14208   0.63773   0.00000  Uiso   1.00
C591   C     0.20154   0.19094   0.64755   0.00000  Uiso   1.00
C592   C     0.13292   0.14103   0.35303   0.00000  Uiso   1.00
H593   H     0.32439   0.16740   0.44652   0.00000  Uiso   1.00
H594   H     0.00898   0.16357   0.55328   0.00000  Uiso   1.00
H595   H     0.22640   0.29203   0.45857   0.00000  Uiso   1.00
H596   H     0.10751   0.04158   0.54168   0.00000  Uiso   1.00
H597   H     0.22595   0.21248   0.38437   0.00000  Uiso   1.00
H598   H     0.10465   0.12362   0.61467   0.00000  Uiso   1.00
N599   N     0.16665   0.16666   0.61907   0.00000  Uiso   1.00
N600   N     0.16668   0.16668   0.38093   0.00000  Uiso   1.00
O601   O     0.16666   0.10558   0.53821   0.00000  Uiso   1.00
O602   O     0.16667   0.22775   0.46179   0.00000  Uiso   1.00
O603   O     0.16666   0.10559   0.46176   0.00000  Uiso   1.00
O604   O     0.16667   0.22774   0.53824   0.00000  Uiso   1.00
O605   O     0.09058   0.16666   0.52928   0.00000  Uiso   1.00
O606   O     0.24275   0.16667   0.47072   0.00000  Uiso   1.00
O607   O     0.09058   0.16667   0.45284   0.00000  Uiso   1.00
O608   O     0.24275   0.16666   0.54716   0.00000  Uiso   1.00
Zn609  Zn    0.16667   0.16666   0.55104   0.00000  Uiso   1.00
Zn610  Zn    0.16667   0.16667   0.44896   0.00000  Uiso   1.00
C611   C     0.24650   0.04016   0.45390   0.00000  Uiso   1.00
C612   C     0.23082   0.04182   0.40198   0.00000  Uiso   1.00
H613   H     0.22367   0.00980   0.38752   0.00000  Uiso   1.00
H614   H     0.19473   0.06089   0.39292   0.00000  Uiso   1.00
H615   H     0.26288   0.05639   0.38644   0.00000  Uiso   1.00
H616   H     0.25611   0.07218   0.46736   0.00000  Uiso   1.00
H617   H     0.28348   0.02179   0.46214   0.00000  Uiso   1.00
C618   C     0.09173   0.29385   0.55156   0.00000  Uiso   1.00
C619   C     0.11292   0.29498   0.60281   0.00000  Uiso   1.00
H620   H     0.08373   0.28140   0.62230   0.00000  Uiso   1.00
H621   H     0.14992   0.27666   0.61021   0.00000  Uiso   1.00
H622   H     0.12066   0.32772   0.61479   0.00000  Uiso   1.00
H623   H     0.05400   0.31146   0.54522   0.00000  Uiso   1.00
H624   H     0.08176   0.26123   0.54049   0.00000  Uiso   1.00
O625   O     0.23513   0.21703   0.62880   0.00000  Uiso   1.00
C626   C     0.28764   0.20433   0.64348   0.00000  Uiso   1.00
H627   H     0.29373   0.17130   0.63309   0.00000  Uiso   1.00
H628   H     0.29883   0.20734   0.34794   0.00000  Uiso   1.00
C629   C     0.32431   0.23219   0.62150   0.00000  Uiso   1.00
H630   H     0.32299   0.26463   0.63504   0.00000  Uiso   1.00
H631   H     0.03179   0.22000   0.62949   0.00000  Uiso   1.00
H632   H     0.31240   0.23277   0.58378   0.00000  Uiso   1.00
O633   O     0.09835   0.11695   0.37377   0.00000  Uiso   1.00
C634   C     0.08246   0.07976   0.34942   0.00000  Uiso   1.00
H635   H     0.11550   0.06446   0.33526   0.00000  Uiso   1.00
H636   H     0.04967   0.08665   0.65460   0.00000  Uiso   1.00
C637   C     0.06264   0.04896   0.38183   0.00000  Uiso   1.00
H638   H     0.03000   0.06318   0.39722   0.00000  Uiso   1.00
H639   H     0.04818   0.02014   0.36279   0.00000  Uiso   1.00
H640   H     0.09500   0.04042   0.40964   0.00000  Uiso   1.00
C641   C     0.50180   0.08679   0.50006   0.00000  Uiso   1.00
C642   C     0.49831   0.24660   0.49998   0.00000  Uiso   1.00
C643   C     0.40034   0.16640   0.48795   0.00000  Uiso   1.00
C644   C     0.59966   0.16624   0.51202   0.00000  Uiso   1.00
C645   C     0.34522   0.16618   0.48147   0.00000  Uiso   1.00
C646   C     0.65477   0.16511   0.51838   0.00000  Uiso   1.00
C647   C     0.53707   0.02011   0.47640   0.00000  Uiso   1.00
C648   C     0.46420   0.31350   0.52469   0.00000  Uiso   1.00
C649   C     0.53339   0.31042   0.47617   0.00000  Uiso   1.00
C650   C     0.46699   0.02315   0.52390   0.00000  Uiso   1.00
C651   C     0.49776   0.29079   0.50015   0.00000  Uiso   1.00
C652   C     0.50261   0.04270   0.50002   0.00000  Uiso   1.00
C653   C     0.53355   0.19173   0.36216   0.00000  Uiso   1.00
C654   C     0.46569   0.14208   0.63773   0.00000  Uiso   1.00
C655   C     0.53487   0.19094   0.64755   0.00000  Uiso   1.00
C656   C     0.46625   0.14103   0.35303   0.00000  Uiso   1.00
H657   H     0.65772   0.16740   0.44652   0.00000  Uiso   1.00
H658   H     0.34232   0.16357   0.55328   0.00000  Uiso   1.00
H659   H     0.55973   0.29203   0.45857   0.00000  Uiso   1.00
H660   H     0.44084   0.04158   0.54168   0.00000  Uiso   1.00
H661   H     0.55928   0.21248   0.38437   0.00000  Uiso   1.00
H662   H     0.43798   0.12362   0.61467   0.00000  Uiso   1.00
N663   N     0.49999   0.16666   0.61907   0.00000  Uiso   1.00
N664   N     0.50001   0.16668   0.38093   0.00000  Uiso   1.00
O665   O     0.50000   0.10558   0.53821   0.00000  Uiso   1.00
O666   O     0.50000   0.22775   0.46179   0.00000  Uiso   1.00
O667   O     0.50000   0.10559   0.46176   0.00000  Uiso   1.00
O668   O     0.50000   0.22774   0.53824   0.00000  Uiso   1.00
O669   O     0.42392   0.16666   0.52928   0.00000  Uiso   1.00
O670   O     0.57608   0.16667   0.47072   0.00000  Uiso   1.00
O671   O     0.42392   0.16667   0.45284   0.00000  Uiso   1.00
O672   O     0.57608   0.16666   0.54716   0.00000  Uiso   1.00
Zn673  Zn    0.50000   0.16666   0.55104   0.00000  Uiso   1.00
Zn674  Zn    0.50000   0.16667   0.44896   0.00000  Uiso   1.00
C675   C     0.57983   0.04016   0.45390   0.00000  Uiso   1.00
C676   C     0.56416   0.04182   0.40198   0.00000  Uiso   1.00
H677   H     0.55701   0.00980   0.38752   0.00000  Uiso   1.00
H678   H     0.52806   0.06089   0.39292   0.00000  Uiso   1.00
H679   H     0.59621   0.05639   0.38644   0.00000  Uiso   1.00
H680   H     0.58945   0.07218   0.46736   0.00000  Uiso   1.00
H681   H     0.61681   0.02179   0.46214   0.00000  Uiso   1.00
C682   C     0.42506   0.29385   0.55156   0.00000  Uiso   1.00
C683   C     0.44626   0.29498   0.60281   0.00000  Uiso   1.00
H684   H     0.41706   0.28140   0.62230   0.00000  Uiso   1.00
H685   H     0.48326   0.27666   0.61021   0.00000  Uiso   1.00
H686   H     0.45400   0.32772   0.61479   0.00000  Uiso   1.00
H687   H     0.38734   0.31146   0.54522   0.00000  Uiso   1.00
H688   H     0.41510   0.26123   0.54049   0.00000  Uiso   1.00
O689   O     0.56846   0.21703   0.62880   0.00000  Uiso   1.00
C690   C     0.62098   0.20433   0.64348   0.00000  Uiso   1.00
H691   H     0.62706   0.17130   0.63309   0.00000  Uiso   1.00
H692   H     0.63216   0.20734   0.34794   0.00000  Uiso   1.00
C693   C     0.65765   0.23219   0.62150   0.00000  Uiso   1.00
H694   H     0.65632   0.26463   0.63504   0.00000  Uiso   1.00
H695   H     0.36513   0.22000   0.62949   0.00000  Uiso   1.00
H696   H     0.64574   0.23277   0.58378   0.00000  Uiso   1.00
O697   O     0.43169   0.11695   0.37377   0.00000  Uiso   1.00
C698   C     0.41580   0.07976   0.34942   0.00000  Uiso   1.00
H699   H     0.44883   0.06446   0.33526   0.00000  Uiso   1.00
H700   H     0.38300   0.08665   0.65460   0.00000  Uiso   1.00
C701   C     0.39598   0.04896   0.38183   0.00000  Uiso   1.00
H702   H     0.36333   0.06318   0.39722   0.00000  Uiso   1.00
H703   H     0.38152   0.02014   0.36279   0.00000  Uiso   1.00
H704   H     0.42834   0.04042   0.40964   0.00000  Uiso   1.00
C705   C     0.83513   0.08679   0.50006   0.00000  Uiso   1.00
C706   C     0.83165   0.24660   0.49998   0.00000  Uiso   1.00
C707   C     0.73367   0.16640   0.48795   0.00000  Uiso   1.00
C708   C     0.93300   0.16624   0.51202   0.00000  Uiso   1.00
C709   C     0.67855   0.16618   0.48147   0.00000  Uiso   1.00
C710   C     0.98811   0.16511   0.51838   0.00000  Uiso   1.00
C711   C     0.87040   0.02011   0.47640   0.00000  Uiso   1.00
C712   C     0.79754   0.31350   0.52469   0.00000  Uiso   1.00
C713   C     0.86672   0.31042   0.47617   0.00000  Uiso   1.00
C714   C     0.80032   0.02315   0.52390   0.00000  Uiso   1.00
C715   C     0.83109   0.29079   0.50015   0.00000  Uiso   1.00
C716   C     0.83594   0.04270   0.50002   0.00000  Uiso   1.00
C717   C     0.86689   0.19173   0.36216   0.00000  Uiso   1.00
C718   C     0.79903   0.14208   0.63773   0.00000  Uiso   1.00
C719   C     0.86820   0.19094   0.64755   0.00000  Uiso   1.00
C720   C     0.79959   0.14103   0.35303   0.00000  Uiso   1.00
H721   H     0.99106   0.16740   0.44652   0.00000  Uiso   1.00
H722   H     0.67565   0.16357   0.55328   0.00000  Uiso   1.00
H723   H     0.89306   0.29203   0.45857   0.00000  Uiso   1.00
H724   H     0.77418   0.04158   0.54168   0.00000  Uiso   1.00
H725   H     0.89262   0.21248   0.38437   0.00000  Uiso   1.00
H726   H     0.77132   0.12362   0.61467   0.00000  Uiso   1.00
N727   N     0.83332   0.16666   0.61907   0.00000  Uiso   1.00
N728   N     0.83335   0.16668   0.38093   0.00000  Uiso   1.00
O729   O     0.83333   0.10558   0.53821   0.00000  Uiso   1.00
O730   O     0.83334   0.22775   0.46179   0.00000  Uiso   1.00
O731   O     0.83333   0.10559   0.46176   0.00000  Uiso   1.00
O732   O     0.83334   0.22774   0.53824   0.00000  Uiso   1.00
O733   O     0.75725   0.16666   0.52928   0.00000  Uiso   1.00
O734   O     0.90942   0.16667   0.47072   0.00000  Uiso   1.00
O735   O     0.75725   0.16667   0.45284   0.00000  Uiso   1.00
O736   O     0.90942   0.16666   0.54716   0.00000  Uiso   1.00
Zn737  Zn    0.83333   0.16666   0.55104   0.00000  Uiso   1.00
Zn738  Zn    0.83333   0.16667   0.44896   0.00000  Uiso   1.00
C739   C     0.91317   0.04016   0.45390   0.00000  Uiso   1.00
C740   C     0.89749   0.04182   0.40198   0.00000  Uiso   1.00
H741   H     0.89034   0.00980   0.38752   0.00000  Uiso   1.00
H742   H     0.86140   0.06089   0.39292   0.00000  Uiso   1.00
H743   H     0.92955   0.05639   0.38644   0.00000  Uiso   1.00
H744   H     0.92278   0.07218   0.46736   0.00000  Uiso   1.00
H745   H     0.95014   0.02179   0.46214   0.00000  Uiso   1.00
C746   C     0.75839   0.29385   0.55156   0.00000  Uiso   1.00
C747   C     0.77959   0.29498   0.60281   0.00000  Uiso   1.00
H748   H     0.75040   0.28140   0.62230   0.00000  Uiso   1.00
H749   H     0.81659   0.27666   0.61021   0.00000  Uiso   1.00
H750   H     0.78733   0.32772   0.61479   0.00000  Uiso   1.00
H751   H     0.72067   0.31146   0.54522   0.00000  Uiso   1.00
H752   H     0.74843   0.26123   0.54049   0.00000  Uiso   1.00
O753   O     0.90180   0.21703   0.62880   0.00000  Uiso   1.00
C754   C     0.95431   0.20433   0.64348   0.00000  Uiso   1.00
H755   H     0.96040   0.17130   0.63309   0.00000  Uiso   1.00
H756   H     0.96549   0.20734   0.34794   0.00000  Uiso   1.00
C757   C     0.99098   0.23219   0.62150   0.00000  Uiso   1.00
H758   H     0.98966   0.26463   0.63504   0.00000  Uiso   1.00
H759   H     0.69846   0.22000   0.62949   0.00000  Uiso   1.00
H760   H     0.97907   0.23277   0.58378   0.00000  Uiso   1.00
O761   O     0.76502   0.11695   0.37377   0.00000  Uiso   1.00
C762   C     0.74913   0.07976   0.34942   0.00000  Uiso   1.00
H763   H     0.78217   0.06446   0.33526   0.00000  Uiso   1.00
H764   H     0.71634   0.08665   0.65460   0.00000  Uiso   1.00
C765   C     0.72931   0.04896   0.38183   0.00000  Uiso   1.00
H766   H     0.69666   0.06318   0.39722   0.00000  Uiso   1.00
H767   H     0.71485   0.02014   0.36279   0.00000  Uiso   1.00
H768   H     0.76167   0.04042   0.40964   0.00000  Uiso   1.00
C769   C     0.16847   0.42013   0.50006   0.00000  Uiso   1.00
C770   C     0.16498   0.57994   0.49998   0.00000  Uiso   1.00
C771   C     0.06700   0.49973   0.48795   0.00000  Uiso   1.00
C772   C     0.26633   0.49957   0.51202   0.00000  Uiso   1.00
C773   C     0.01188   0.49952   0.48147   0.00000  Uiso   1.00
C774   C     0.32144   0.49844   0.51838   0.00000  Uiso   1.00
C775   C     0.20373   0.35344   0.47640   0.00000  Uiso   1.00
C776   C     0.13087   0.64683   0.52469   0.00000  Uiso   1.00
C777   C     0.20006   0.64376   0.47617   0.00000  Uiso   1.00
C778   C     0.13365   0.35648   0.52390   0.00000  Uiso   1.00
C779   C     0.16442   0.62413   0.50015   0.00000  Uiso   1.00
C780   C     0.16927   0.37603   0.50002   0.00000  Uiso   1.00
C781   C     0.20022   0.52507   0.36216   0.00000  Uiso   1.00
C782   C     0.13236   0.47542   0.63773   0.00000  Uiso   1.00
C783   C     0.20154   0.52428   0.64755   0.00000  Uiso   1.00
C784   C     0.13292   0.47436   0.35303   0.00000  Uiso   1.00
H785   H     0.32439   0.50073   0.44652   0.00000  Uiso   1.00
H786   H     0.00898   0.49690   0.55328   0.00000  Uiso   1.00
H787   H     0.22640   0.62537   0.45857   0.00000  Uiso   1.00
H788   H     0.10751   0.37491   0.54168   0.00000  Uiso   1.00
H789   H     0.22595   0.54581   0.38437   0.00000  Uiso   1.00
H790   H     0.10465   0.45695   0.61467   0.00000  Uiso   1.00
N791   N     0.16665   0.49999   0.61907   0.00000  Uiso   1.00
N792   N     0.16668   0.50001   0.38093   0.00000  Uiso   1.00
O793   O     0.16666   0.43892   0.53821   0.00000  Uiso   1.00
O794   O     0.16667   0.56108   0.46179   0.00000  Uiso   1.00
O795   O     0.16666   0.43893   0.46176   0.00000  Uiso   1.00
O796   O     0.16667   0.56107   0.53824   0.00000  Uiso   1.00
O797   O     0.09058   0.50000   0.52928   0.00000  Uiso   1.00
O798   O     0.24275   0.50000   0.47072   0.00000  Uiso   1.00
O799   O     0.09058   0.50000   0.45284   0.00000  Uiso   1.00
O800   O     0.24275   0.50000   0.54716   0.00000  Uiso   1.00
Zn801  Zn    0.16667   0.49999   0.55104   0.00000  Uiso   1.00
Zn802  Zn    0.16667   0.50001   0.44896   0.00000  Uiso   1.00
C803   C     0.24650   0.37349   0.45390   0.00000  Uiso   1.00
C804   C     0.23082   0.37515   0.40198   0.00000  Uiso   1.00
H805   H     0.22367   0.34313   0.38752   0.00000  Uiso   1.00
H806   H     0.19473   0.39423   0.39292   0.00000  Uiso   1.00
H807   H     0.26288   0.38972   0.38644   0.00000  Uiso   1.00
H808   H     0.25611   0.40551   0.46736   0.00000  Uiso   1.00
H809   H     0.28348   0.35512   0.46214   0.00000  Uiso   1.00
C810   C     0.09173   0.62718   0.55156   0.00000  Uiso   1.00
C811   C     0.11292   0.62831   0.60281   0.00000  Uiso   1.00
H812   H     0.08373   0.61474   0.62230   0.00000  Uiso   1.00
H813   H     0.14992   0.61000   0.61021   0.00000  Uiso   1.00
H814   H     0.12066   0.66105   0.61479   0.00000  Uiso   1.00
H815   H     0.05400   0.64480   0.54522   0.00000  Uiso   1.00
H816   H     0.08176   0.59456   0.54049   0.00000  Uiso   1.00
O817   O     0.23513   0.55036   0.62880   0.00000  Uiso   1.00
C818   C     0.28764   0.53766   0.64348   0.00000  Uiso   1.00
H819   H     0.29373   0.50464   0.63309   0.00000  Uiso   1.00
H820   H     0.29883   0.54068   0.34794   0.00000  Uiso   1.00
C821   C     0.32431   0.56553   0.62150   0.00000  Uiso   1.00
H822   H     0.32299   0.59796   0.63504   0.00000  Uiso   1.00
H823   H     0.03179   0.55334   0.62949   0.00000  Uiso   1.00
H824   H     0.31240   0.56611   0.58378   0.00000  Uiso   1.00
O825   O     0.09835   0.45028   0.37377   0.00000  Uiso   1.00
C826   C     0.08246   0.41309   0.34942   0.00000  Uiso   1.00
H827   H     0.11550   0.39779   0.33526   0.00000  Uiso   1.00
H828   H     0.04967   0.41999   0.65460   0.00000  Uiso   1.00
C829   C     0.06264   0.38230   0.38183   0.00000  Uiso   1.00
H830   H     0.03000   0.39651   0.39722   0.00000  Uiso   1.00
H831   H     0.04818   0.35347   0.36279   0.00000  Uiso   1.00
H832   H     0.09500   0.37376   0.40964   0.00000  Uiso   1.00
C833   C     0.50180   0.42013   0.50006   0.00000  Uiso   1.00
C834   C     0.49831   0.57994   0.49998   0.00000  Uiso   1.00
C835   C     0.40034   0.49973   0.48795   0.00000  Uiso   1.00
C836   C     0.59966   0.49957   0.51202   0.00000  Uiso   1.00
C837   C     0.34522   0.49952   0.48147   0.00000  Uiso   1.00
C838   C     0.65477   0.49844   0.51838   0.00000  Uiso   1.00
C839   C     0.53707   0.35344   0.47640   0.00000  Uiso   1.00
C840   C     0.46420   0.64683   0.52469   0.00000  Uiso   1.00
C841   C     0.53339   0.64376   0.47617   0.00000  Uiso   1.00
C842   C     0.46699   0.35648   0.52390   0.00000  Uiso   1.00
C843   C     0.49776   0.62413   0.50015   0.00000  Uiso   1.00
C844   C     0.50261   0.37603   0.50002   0.00000  Uiso   1.00
C845   C     0.53355   0.52507   0.36216   0.00000  Uiso   1.00
C846   C     0.46569   0.47542   0.63773   0.00000  Uiso   1.00
C847   C     0.53487   0.52428   0.64755   0.00000  Uiso   1.00
C848   C     0.46625   0.47436   0.35303   0.00000  Uiso   1.00
H849   H     0.65772   0.50073   0.44652   0.00000  Uiso   1.00
H850   H     0.34232   0.49690   0.55328   0.00000  Uiso   1.00
H851   H     0.55973   0.62537   0.45857   0.00000  Uiso   1.00
H852   H     0.44084   0.37491   0.54168   0.00000  Uiso   1.00
H853   H     0.55928   0.54581   0.38437   0.00000  Uiso   1.00
H854   H     0.43798   0.45695   0.61467   0.00000  Uiso   1.00
N855   N     0.49999   0.49999   0.61907   0.00000  Uiso   1.00
N856   N     0.50001   0.50001   0.38093   0.00000  Uiso   1.00
O857   O     0.50000   0.43892   0.53821   0.00000  Uiso   1.00
O858   O     0.50000   0.56108   0.46179   0.00000  Uiso   1.00
O859   O     0.50000   0.43893   0.46176   0.00000  Uiso   1.00
O860   O     0.50000   0.56107   0.53824   0.00000  Uiso   1.00
O861   O     0.42392   0.50000   0.52928   0.00000  Uiso   1.00
O862   O     0.57608   0.50000   0.47072   0.00000  Uiso   1.00
O863   O     0.42392   0.50000   0.45284   0.00000  Uiso   1.00
O864   O     0.57608   0.50000   0.54716   0.00000  Uiso   1.00
Zn865  Zn    0.50000   0.49999   0.55104   0.00000  Uiso   1.00
Zn866  Zn    0.50000   0.50001   0.44896   0.00000  Uiso   1.00
C867   C     0.57983   0.37349   0.45390   0.00000  Uiso   1.00
C868   C     0.56416   0.37515   0.40198   0.00000  Uiso   1.00
H869   H     0.55701   0.34313   0.38752   0.00000  Uiso   1.00
H870   H     0.52806   0.39423   0.39292   0.00000  Uiso   1.00
H871   H     0.59621   0.38972   0.38644   0.00000  Uiso   1.00
H872   H     0.58945   0.40551   0.46736   0.00000  Uiso   1.00
H873   H     0.61681   0.35512   0.46214   0.00000  Uiso   1.00
C874   C     0.42506   0.62718   0.55156   0.00000  Uiso   1.00
C875   C     0.44626   0.62831   0.60281   0.00000  Uiso   1.00
H876   H     0.41706   0.61474   0.62230   0.00000  Uiso   1.00
H877   H     0.48326   0.61000   0.61021   0.00000  Uiso   1.00
H878   H     0.45400   0.66105   0.61479   0.00000  Uiso   1.00
H879   H     0.38734   0.64480   0.54522   0.00000  Uiso   1.00
H880   H     0.41510   0.59456   0.54049   0.00000  Uiso   1.00
O881   O     0.56846   0.55036   0.62880   0.00000  Uiso   1.00
C882   C     0.62098   0.53766   0.64348   0.00000  Uiso   1.00
H883   H     0.62706   0.50464   0.63309   0.00000  Uiso   1.00
H884   H     0.63216   0.54068   0.34794   0.00000  Uiso   1.00
C885   C     0.65765   0.56553   0.62150   0.00000  Uiso   1.00
H886   H     0.65632   0.59796   0.63504   0.00000  Uiso   1.00
H887   H     0.36513   0.55334   0.62949   0.00000  Uiso   1.00
H888   H     0.64574   0.56611   0.58378   0.00000  Uiso   1.00
O889   O     0.43169   0.45028   0.37377   0.00000  Uiso   1.00
C890   C     0.41580   0.41309   0.34942   0.00000  Uiso   1.00
H891   H     0.44883   0.39779   0.33526   0.00000  Uiso   1.00
H892   H     0.38300   0.41999   0.65460   0.00000  Uiso   1.00
C893   C     0.39598   0.38230   0.38183   0.00000  Uiso   1.00
H894   H     0.36333   0.39651   0.39722   0.00000  Uiso   1.00
H895   H     0.38152   0.35347   0.36279   0.00000  Uiso   1.00
H896   H     0.42834   0.37376   0.40964   0.00000  Uiso   1.00
C897   C     0.83513   0.42013   0.50006   0.00000  Uiso   1.00
C898   C     0.83165   0.57994   0.49998   0.00000  Uiso   1.00
C899   C     0.73367   0.49973   0.48795   0.00000  Uiso   1.00
C900   C     0.93300   0.49957   0.51202   0.00000  Uiso   1.00
C901   C     0.67855   0.49952   0.48147   0.00000  Uiso   1.00
C902   C     0.98811   0.49844   0.51838   0.00000  Uiso   1.00
C903   C     0.87040   0.35344   0.47640   0.00000  Uiso   1.00
C904   C     0.79754   0.64683   0.52469   0.00000  Uiso   1.00
C905   C     0.86672   0.64376   0.47617   0.00000  Uiso   1.00
C906   C     0.80032   0.35648   0.52390   0.00000  Uiso   1.00
C907   C     0.83109   0.62413   0.50015   0.00000  Uiso   1.00
C908   C     0.83594   0.37603   0.50002   0.00000  Uiso   1.00
C909   C     0.86689   0.52507   0.36216   0.00000  Uiso   1.00
C910   C     0.79903   0.47542   0.63773   0.00000  Uiso   1.00
C911   C     0.86820   0.52428   0.64755   0.00000  Uiso   1.00
C912   C     0.79959   0.47436   0.35303   0.00000  Uiso   1.00
H913   H     0.99106   0.50073   0.44652   0.00000  Uiso   1.00
H914   H     0.67565   0.49690   0.55328   0.00000  Uiso   1.00
H915   H     0.89306   0.62537   0.45857   0.00000  Uiso   1.00
H916   H     0.77418   0.37491   0.54168   0.00000  Uiso   1.00
H917   H     0.89262   0.54581   0.38437   0.00000  Uiso   1.00
H918   H     0.77132   0.45695   0.61467   0.00000  Uiso   1.00
N919   N     0.83332   0.49999   0.61907   0.00000  Uiso   1.00
N920   N     0.83335   0.50001   0.38093   0.00000  Uiso   1.00
O921   O     0.83333   0.43892   0.53821   0.00000  Uiso   1.00
O922   O     0.83334   0.56108   0.46179   0.00000  Uiso   1.00
O923   O     0.83333   0.43893   0.46176   0.00000  Uiso   1.00
O924   O     0.83334   0.56107   0.53824   0.00000  Uiso   1.00
O925   O     0.75725   0.50000   0.52928   0.00000  Uiso   1.00
O926   O     0.90942   0.50000   0.47072   0.00000  Uiso   1.00
O927   O     0.75725   0.50000   0.45284   0.00000  Uiso   1.00
O928   O     0.90942   0.50000   0.54716   0.00000  Uiso   1.00
Zn929  Zn    0.83333   0.49999   0.55104   0.00000  Uiso   1.00
Zn930  Zn    0.83333   0.50001   0.44896   0.00000  Uiso   1.00
C931   C     0.91317   0.37349   0.45390   0.00000  Uiso   1.00
C932   C     0.89749   0.37515   0.40198   0.00000  Uiso   1.00
H933   H     0.89034   0.34313   0.38752   0.00000  Uiso   1.00
H934   H     0.86140   0.39423   0.39292   0.00000  Uiso   1.00
H935   H     0.92955   0.38972   0.38644   0.00000  Uiso   1.00
H936   H     0.92278   0.40551   0.46736   0.00000  Uiso   1.00
H937   H     0.95014   0.35512   0.46214   0.00000  Uiso   1.00
C938   C     0.75839   0.62718   0.55156   0.00000  Uiso   1.00
C939   C     0.77959   0.62831   0.60281   0.00000  Uiso   1.00
H940   H     0.75040   0.61474   0.62230   0.00000  Uiso   1.00
H941   H     0.81659   0.61000   0.61021   0.00000  Uiso   1.00
H942   H     0.78733   0.66105   0.61479   0.00000  Uiso   1.00
H943   H     0.72067   0.64480   0.54522   0.00000  Uiso   1.00
H944   H     0.74843   0.59456   0.54049   0.00000  Uiso   1.00
O945   O     0.90180   0.55036   0.62880   0.00000  Uiso   1.00
C946   C     0.95431   0.53766   0.64348   0.00000  Uiso   1.00
H947   H     0.96040   0.50464   0.63309   0.00000  Uiso   1.00
H948   H     0.96549   0.54068   0.34794   0.00000  Uiso   1.00
C949   C     0.99098   0.56553   0.62150   0.00000  Uiso   1.00
H950   H     0.98966   0.59796   0.63504   0.00000  Uiso   1.00
H951   H     0.69846   0.55334   0.62949   0.00000  Uiso   1.00
H952   H     0.97907   0.56611   0.58378   0.00000  Uiso   1.00
O953   O     0.76502   0.45028   0.37377   0.00000  Uiso   1.00
C954   C     0.74913   0.41309   0.34942   0.00000  Uiso   1.00
H955   H     0.78217   0.39779   0.33526   0.00000  Uiso   1.00
H956   H     0.71634   0.41999   0.65460   0.00000  Uiso   1.00
C957   C     0.72931   0.38230   0.38183   0.00000  Uiso   1.00
H958   H     0.69666   0.39651   0.39722   0.00000  Uiso   1.00
H959   H     0.71485   0.35347   0.36279   0.00000  Uiso   1.00
H960   H     0.76167   0.37376   0.40964   0.00000  Uiso   1.00
C961   C     0.16847   0.75346   0.50006   0.00000  Uiso   1.00
C962   C     0.16498   0.91327   0.49998   0.00000  Uiso   1.00
C963   C     0.06700   0.83307   0.48795   0.00000  Uiso   1.00
C964   C     0.26633   0.83291   0.51202   0.00000  Uiso   1.00
C965   C     0.01188   0.83285   0.48147   0.00000  Uiso   1.00
C966   C     0.32144   0.83177   0.51838   0.00000  Uiso   1.00
C967   C     0.20373   0.68678   0.47640   0.00000  Uiso   1.00
C968   C     0.13087   0.98017   0.52469   0.00000  Uiso   1.00
C969   C     0.20006   0.97709   0.47617   0.00000  Uiso   1.00
C970   C     0.13365   0.68981   0.52390   0.00000  Uiso   1.00
C971   C     0.16442   0.95746   0.50015   0.00000  Uiso   1.00
C972   C     0.16927   0.70937   0.50002   0.00000  Uiso   1.00
C973   C     0.20022   0.85840   0.36216   0.00000  Uiso   1.00
C974   C     0.13236   0.80875   0.63773   0.00000  Uiso   1.00
C975   C     0.20154   0.85761   0.64755   0.00000  Uiso   1.00
C976   C     0.13292   0.80770   0.35303   0.00000  Uiso   1.00
H977   H     0.32439   0.83406   0.44652   0.00000  Uiso   1.00
H978   H     0.00898   0.83024   0.55328   0.00000  Uiso   1.00
H979   H     0.22640   0.95870   0.45857   0.00000  Uiso   1.00
H980   H     0.10751   0.70824   0.54168   0.00000  Uiso   1.00
H981   H     0.22595   0.87914   0.38437   0.00000  Uiso   1.00
H982   H     0.10465   0.79029   0.61467   0.00000  Uiso   1.00
N983   N     0.16665   0.83332   0.61907   0.00000  Uiso   1.00
N984   N     0.16668   0.83334   0.38093   0.00000  Uiso   1.00
O985   O     0.16666   0.77225   0.53821   0.00000  Uiso   1.00
O986   O     0.16667   0.89442   0.46179   0.00000  Uiso   1.00
O987   O     0.16666   0.77226   0.46176   0.00000  Uiso   1.00
O988   O     0.16667   0.89441   0.53824   0.00000  Uiso   1.00
O989   O     0.09058   0.83333   0.52928   0.00000  Uiso   1.00
O990   O     0.24275   0.83334   0.47072   0.00000  Uiso   1.00
O991   O     0.09058   0.83334   0.45284   0.00000  Uiso   1.00
O992   O     0.24275   0.83333   0.54716   0.00000  Uiso   1.00
Zn993  Zn    0.16667   0.83333   0.55104   0.00000  Uiso   1.00
Zn994  Zn    0.16667   0.83334   0.44896   0.00000  Uiso   1.00
C995   C     0.24650   0.70683   0.45390   0.00000  Uiso   1.00
C996   C     0.23082   0.70849   0.40198   0.00000  Uiso   1.00
H997   H     0.22367   0.67647   0.38752   0.00000  Uiso   1.00
H998   H     0.19473   0.72756   0.39292   0.00000  Uiso   1.00
H999   H     0.26288   0.72305   0.38644   0.00000  Uiso   1.00
H1000  H     0.25611   0.73885   0.46736   0.00000  Uiso   1.00
H1001  H     0.28348   0.68846   0.46214   0.00000  Uiso   1.00
C1002  C     0.09173   0.96051   0.55156   0.00000  Uiso   1.00
C1003  C     0.11292   0.96164   0.60281   0.00000  Uiso   1.00
H1004  H     0.08373   0.94807   0.62230   0.00000  Uiso   1.00
H1005  H     0.14992   0.94333   0.61021   0.00000  Uiso   1.00
H1006  H     0.12066   0.99439   0.61479   0.00000  Uiso   1.00
H1007  H     0.05400   0.97813   0.54522   0.00000  Uiso   1.00
H1008  H     0.08176   0.92790   0.54049   0.00000  Uiso   1.00
O1009  O     0.23513   0.88370   0.62880   0.00000  Uiso   1.00
C1010  C     0.28764   0.87100   0.64348   0.00000  Uiso   1.00
H1011  H     0.29373   0.83797   0.63309   0.00000  Uiso   1.00
H1012  H     0.29883   0.87401   0.34794   0.00000  Uiso   1.00
C1013  C     0.32431   0.89886   0.62150   0.00000  Uiso   1.00
H1014  H     0.32299   0.93130   0.63504   0.00000  Uiso   1.00
H1015  H     0.03179   0.88667   0.62949   0.00000  Uiso   1.00
H1016  H     0.31240   0.89944   0.58378   0.00000  Uiso   1.00
O1017  O     0.09835   0.78362   0.37377   0.00000  Uiso   1.00
C1018  C     0.08246   0.74642   0.34942   0.00000  Uiso   1.00
H1019  H     0.11550   0.73113   0.33526   0.00000  Uiso   1.00
H1020  H     0.04967   0.75332   0.65460   0.00000  Uiso   1.00
C1021  C     0.06264   0.71563   0.38183   0.00000  Uiso   1.00
H1022  H     0.03000   0.72985   0.39722   0.00000  Uiso   1.00
H1023  H     0.04818   0.68680   0.36279   0.00000  Uiso   1.00
H1024  H     0.09500   0.70709   0.40964   0.00000  Uiso   1.00
C1025  C     0.50180   0.75346   0.50006   0.00000  Uiso   1.00
C1026  C     0.49831   0.91327   0.49998   0.00000  Uiso   1.00
C1027  C     0.40034   0.83307   0.48795   0.00000  Uiso   1.00
C1028  C     0.59966   0.83291   0.51202   0.00000  Uiso   1.00
C1029  C     0.34522   0.83285   0.48147   0.00000  Uiso   1.00
C1030  C     0.65477   0.83177   0.51838   0.00000  Uiso   1.00
C1031  C     0.53707   0.68678   0.47640   0.00000  Uiso   1.00
C1032  C     0.46420   0.98017   0.52469   0.00000  Uiso   1.00
C1033  C     0.53339   0.97709   0.47617   0.00000  Uiso   1.00
C1034  C     0.46699   0.68981   0.52390   0.00000  Uiso   1.00
C1035  C     0.49776   0.95746   0.50015   0.00000  Uiso   1.00
C1036  C     0.50261   0.70937   0.50002   0.00000  Uiso   1.00
C1037  C     0.53355   0.85840   0.36216   0.00000  Uiso   1.00
C1038  C     0.46569   0.80875   0.63773   0.00000  Uiso   1.00
C1039  C     0.53487   0.85761   0.64755   0.00000  Uiso   1.00
C1040  C     0.46625   0.80770   0.35303   0.00000  Uiso   1.00
H1041  H     0.65772   0.83406   0.44652   0.00000  Uiso   1.00
H1042  H     0.34232   0.83024   0.55328   0.00000  Uiso   1.00
H1043  H     0.55973   0.95870   0.45857   0.00000  Uiso   1.00
H1044  H     0.44084   0.70824   0.54168   0.00000  Uiso   1.00
H1045  H     0.55928   0.87914   0.38437   0.00000  Uiso   1.00
H1046  H     0.43798   0.79029   0.61467   0.00000  Uiso   1.00
N1047  N     0.49999   0.83332   0.61907   0.00000  Uiso   1.00
N1048  N     0.50001   0.83334   0.38093   0.00000  Uiso   1.00
O1049  O     0.50000   0.77225   0.53821   0.00000  Uiso   1.00
O1050  O     0.50000   0.89442   0.46179   0.00000  Uiso   1.00
O1051  O     0.50000   0.77226   0.46176   0.00000  Uiso   1.00
O1052  O     0.50000   0.89441   0.53824   0.00000  Uiso   1.00
O1053  O     0.42392   0.83333   0.52928   0.00000  Uiso   1.00
O1054  O     0.57608   0.83334   0.47072   0.00000  Uiso   1.00
O1055  O     0.42392   0.83334   0.45284   0.00000  Uiso   1.00
O1056  O     0.57608   0.83333   0.54716   0.00000  Uiso   1.00
Zn1057 Zn    0.50000   0.83333   0.55104   0.00000  Uiso   1.00
Zn1058 Zn    0.50000   0.83334   0.44896   0.00000  Uiso   1.00
C1059  C     0.57983   0.70683   0.45390   0.00000  Uiso   1.00
C1060  C     0.56416   0.70849   0.40198   0.00000  Uiso   1.00
H1061  H     0.55701   0.67647   0.38752   0.00000  Uiso   1.00
H1062  H     0.52806   0.72756   0.39292   0.00000  Uiso   1.00
H1063  H     0.59621   0.72305   0.38644   0.00000  Uiso   1.00
H1064  H     0.58945   0.73885   0.46736   0.00000  Uiso   1.00
H1065  H     0.61681   0.68846   0.46214   0.00000  Uiso   1.00
C1066  C     0.42506   0.96051   0.55156   0.00000  Uiso   1.00
C1067  C     0.44626   0.96164   0.60281   0.00000  Uiso   1.00
H1068  H     0.41706   0.94807   0.62230   0.00000  Uiso   1.00
H1069  H     0.48326   0.94333   0.61021   0.00000  Uiso   1.00
H1070  H     0.45400   0.99439   0.61479   0.00000  Uiso   1.00
H1071  H     0.38734   0.97813   0.54522   0.00000  Uiso   1.00
H1072  H     0.41510   0.92790   0.54049   0.00000  Uiso   1.00
O1073  O     0.56846   0.88370   0.62880   0.00000  Uiso   1.00
C1074  C     0.62098   0.87100   0.64348   0.00000  Uiso   1.00
H1075  H     0.62706   0.83797   0.63309   0.00000  Uiso   1.00
H1076  H     0.63216   0.87401   0.34794   0.00000  Uiso   1.00
C1077  C     0.65765   0.89886   0.62150   0.00000  Uiso   1.00
H1078  H     0.65632   0.93130   0.63504   0.00000  Uiso   1.00
H1079  H     0.36513   0.88667   0.62949   0.00000  Uiso   1.00
H1080  H     0.64574   0.89944   0.58378   0.00000  Uiso   1.00
O1081  O     0.43169   0.78362   0.37377   0.00000  Uiso   1.00
C1082  C     0.41580   0.74642   0.34942   0.00000  Uiso   1.00
H1083  H     0.44883   0.73113   0.33526   0.00000  Uiso   1.00
H1084  H     0.38300   0.75332   0.65460   0.00000  Uiso   1.00
C1085  C     0.39598   0.71563   0.38183   0.00000  Uiso   1.00
H1086  H     0.36333   0.72985   0.39722   0.00000  Uiso   1.00
H1087  H     0.38152   0.68680   0.36279   0.00000  Uiso   1.00
H1088  H     0.42834   0.70709   0.40964   0.00000  Uiso   1.00
C1089  C     0.83513   0.75346   0.50006   0.00000  Uiso   1.00
C1090  C     0.83165   0.91327   0.49998   0.00000  Uiso   1.00
C1091  C     0.73367   0.83307   0.48795   0.00000  Uiso   1.00
C1092  C     0.93300   0.83291   0.51202   0.00000  Uiso   1.00
C1093  C     0.67855   0.83285   0.48147   0.00000  Uiso   1.00
C1094  C     0.98811   0.83177   0.51838   0.00000  Uiso   1.00
C1095  C     0.87040   0.68678   0.47640   0.00000  Uiso   1.00
C1096  C     0.79754   0.98017   0.52469   0.00000  Uiso   1.00
C1097  C     0.86672   0.97709   0.47617   0.00000  Uiso   1.00
C1098  C     0.80032   0.68981   0.52390   0.00000  Uiso   1.00
C1099  C     0.83109   0.95746   0.50015   0.00000  Uiso   1.00
C1100  C     0.83594   0.70937   0.50002   0.00000  Uiso   1.00
C1101  C     0.86689   0.85840   0.36216   0.00000  Uiso   1.00
C1102  C     0.79903   0.80875   0.63773   0.00000  Uiso   1.00
C1103  C     0.86820   0.85761   0.64755   0.00000  Uiso   1.00
C1104  C     0.79959   0.80770   0.35303   0.00000  Uiso   1.00
H1105  H     0.99106   0.83406   0.44652   0.00000  Uiso   1.00
H1106  H     0.67565   0.83024   0.55328   0.00000  Uiso   1.00
H1107  H     0.89306   0.95870   0.45857   0.00000  Uiso   1.00
H1108  H     0.77418   0.70824   0.54168   0.00000  Uiso   1.00
H1109  H     0.89262   0.87914   0.38437   0.00000  Uiso   1.00
H1110  H     0.77132   0.79029   0.61467   0.00000  Uiso   1.00
N1111  N     0.83332   0.83332   0.61907   0.00000  Uiso   1.00
N1112  N     0.83335   0.83334   0.38093   0.00000  Uiso   1.00
O1113  O     0.83333   0.77225   0.53821   0.00000  Uiso   1.00
O1114  O     0.83334   0.89442   0.46179   0.00000  Uiso   1.00
O1115  O     0.83333   0.77226   0.46176   0.00000  Uiso   1.00
O1116  O     0.83334   0.89441   0.53824   0.00000  Uiso   1.00
O1117  O     0.75725   0.83333   0.52928   0.00000  Uiso   1.00
O1118  O     0.90942   0.83334   0.47072   0.00000  Uiso   1.00
O1119  O     0.75725   0.83334   0.45284   0.00000  Uiso   1.00
O1120  O     0.90942   0.83333   0.54716   0.00000  Uiso   1.00
Zn1121 Zn    0.83333   0.83333   0.55104   0.00000  Uiso   1.00
Zn1122 Zn    0.83333   0.83334   0.44896   0.00000  Uiso   1.00
C1123  C     0.91317   0.70683   0.45390   0.00000  Uiso   1.00
C1124  C     0.89749   0.70849   0.40198   0.00000  Uiso   1.00
H1125  H     0.89034   0.67647   0.38752   0.00000  Uiso   1.00
H1126  H     0.86140   0.72756   0.39292   0.00000  Uiso   1.00
H1127  H     0.92955   0.72305   0.38644   0.00000  Uiso   1.00
H1128  H     0.92278   0.73885   0.46736   0.00000  Uiso   1.00
H1129  H     0.95014   0.68846   0.46214   0.00000  Uiso   1.00
C1130  C     0.75839   0.96051   0.55156   0.00000  Uiso   1.00
C1131  C     0.77959   0.96164   0.60281   0.00000  Uiso   1.00
H1132  H     0.75040   0.94807   0.62230   0.00000  Uiso   1.00
H1133  H     0.81659   0.94333   0.61021   0.00000  Uiso   1.00
H1134  H     0.78733   0.99439   0.61479   0.00000  Uiso   1.00
H1135  H     0.72067   0.97813   0.54522   0.00000  Uiso   1.00
H1136  H     0.74843   0.92790   0.54049   0.00000  Uiso   1.00
O1137  O     0.90180   0.88370   0.62880   0.00000  Uiso   1.00
C1138  C     0.95431   0.87100   0.64348   0.00000  Uiso   1.00
H1139  H     0.96040   0.83797   0.63309   0.00000  Uiso   1.00
H1140  H     0.96549   0.87401   0.34794   0.00000  Uiso   1.00
C1141  C     0.99098   0.89886   0.62150   0.00000  Uiso   1.00
H1142  H     0.98966   0.93130   0.63504   0.00000  Uiso   1.00
H1143  H     0.69846   0.88667   0.62949   0.00000  Uiso   1.00
H1144  H     0.97907   0.89944   0.58378   0.00000  Uiso   1.00
O1145  O     0.76502   0.78362   0.37377   0.00000  Uiso   1.00
C1146  C     0.74913   0.74642   0.34942   0.00000  Uiso   1.00
H1147  H     0.78217   0.73113   0.33526   0.00000  Uiso   1.00
H1148  H     0.71634   0.75332   0.65460   0.00000  Uiso   1.00
C1149  C     0.72931   0.71563   0.38183   0.00000  Uiso   1.00
H1150  H     0.69666   0.72985   0.39722   0.00000  Uiso   1.00
H1151  H     0.71485   0.68680   0.36279   0.00000  Uiso   1.00
H1152  H     0.76167   0.70709   0.40964   0.00000  Uiso   1.00
C1153  C     0.16847   0.08679   0.83339   0.00000  Uiso   1.00
C1154  C     0.16498   0.24660   0.83331   0.00000  Uiso   1.00
C1155  C     0.06700   0.16640   0.82128   0.00000  Uiso   1.00
C1156  C     0.26633   0.16624   0.84535   0.00000  Uiso   1.00
C1157  C     0.01188   0.16618   0.81481   0.00000  Uiso   1.00
C1158  C     0.32144   0.16511   0.85171   0.00000  Uiso   1.00
C1159  C     0.20373   0.02011   0.80974   0.00000  Uiso   1.00
C1160  C     0.13087   0.31350   0.85803   0.00000  Uiso   1.00
C1161  C     0.20006   0.31042   0.80950   0.00000  Uiso   1.00
C1162  C     0.13365   0.02315   0.85723   0.00000  Uiso   1.00
C1163  C     0.16442   0.29079   0.83349   0.00000  Uiso   1.00
C1164  C     0.16927   0.04270   0.83335   0.00000  Uiso   1.00
C1165  C     0.20022   0.19173   0.69549   0.00000  Uiso   1.00
C1166  C     0.13236   0.14208   0.97107   0.00000  Uiso   1.00
C1167  C     0.20154   0.19094   0.98088   0.00000  Uiso   1.00
C1168  C     0.13292   0.14103   0.68637   0.00000  Uiso   1.00
H1169  H     0.32439   0.16740   0.77986   0.00000  Uiso   1.00
H1170  H     0.00898   0.16357   0.88661   0.00000  Uiso   1.00
H1171  H     0.22640   0.29203   0.79190   0.00000  Uiso   1.00
H1172  H     0.10751   0.04158   0.87501   0.00000  Uiso   1.00
H1173  H     0.22595   0.21248   0.71770   0.00000  Uiso   1.00
H1174  H     0.10465   0.12362   0.94800   0.00000  Uiso   1.00
N1175  N     0.16665   0.16666   0.95240   0.00000  Uiso   1.00
N1176  N     0.16668   0.16668   0.71427   0.00000  Uiso   1.00
O1177  O     0.16666   0.10558   0.87154   0.00000  Uiso   1.00
O1178  O     0.16667   0.22775   0.79513   0.00000  Uiso   1.00
O1179  O     0.16666   0.10559   0.79510   0.00000  Uiso   1.00
O1180  O     0.16667   0.22774   0.87157   0.00000  Uiso   1.00
O1181  O     0.09058   0.16666   0.86261   0.00000  Uiso   1.00
O1182  O     0.24275   0.16667   0.80405   0.00000  Uiso   1.00
O1183  O     0.09058   0.16667   0.78617   0.00000  Uiso   1.00
O1184  O     0.24275   0.16666   0.88050   0.00000  Uiso   1.00
Zn1185 Zn    0.16667   0.16666   0.88437   0.00000  Uiso   1.00
Zn1186 Zn    0.16667   0.16667   0.78229   0.00000  Uiso   1.00
C1187  C     0.24650   0.04016   0.78723   0.00000  Uiso   1.00
C1188  C     0.23082   0.04182   0.73531   0.00000  Uiso   1.00
H1189  H     0.22367   0.00980   0.72086   0.00000  Uiso   1.00
H1190  H     0.19473   0.06089   0.72626   0.00000  Uiso   1.00
H1191  H     0.26288   0.05639   0.71977   0.00000  Uiso   1.00
H1192  H     0.25611   0.07218   0.80069   0.00000  Uiso   1.00
H1193  H     0.28348   0.02179   0.79548   0.00000  Uiso   1.00
C1194  C     0.09173   0.29385   0.88489   0.00000  Uiso   1.00
C1195  C     0.11292   0.29498   0.93615   0.00000  Uiso   1.00
H1196  H     0.08373   0.28140   0.95563   0.00000  Uiso   1.00
H1197  H     0.14992   0.27666   0.94355   0.00000  Uiso   1.00
H1198  H     0.12066   0.32772   0.94812   0.00000  Uiso   1.00
H1199  H     0.05400   0.31146   0.87856   0.00000  Uiso   1.00
H1200  H     0.08176   0.26123   0.87382   0.00000  Uiso   1.00
O1201  O     0.23513   0.21703   0.96213   0.00000  Uiso   1.00
C1202  C     0.28764   0.20433   0.97681   0.00000  Uiso   1.00
H1203  H     0.29373   0.17130   0.96643   0.00000  Uiso   1.00
H1204  H     0.29883   0.20734   0.68127   0.00000  Uiso   1.00
C1205  C     0.32431   0.23219   0.95484   0.00000  Uiso   1.00
H1206  H     0.32299   0.26463   0.96837   0.00000  Uiso   1.00
H1207  H     0.03179   0.22000   0.96282   0.00000  Uiso   1.00
H1208  H     0.31240   0.23277   0.91711   0.00000  Uiso   1.00
O1209  O     0.09835   0.11695   0.70711   0.00000  Uiso   1.00
C1210  C     0.08246   0.07976   0.68275   0.00000  Uiso   1.00
H1211  H     0.11550   0.06446   0.66860   0.00000  Uiso   1.00
H1212  H     0.04967   0.08665   0.98793   0.00000  Uiso   1.00
C1213  C     0.06264   0.04896   0.71517   0.00000  Uiso   1.00
H1214  H     0.03000   0.06318   0.73055   0.00000  Uiso   1.00
H1215  H     0.04818   0.02014   0.69612   0.00000  Uiso   1.00
H1216  H     0.09500   0.04042   0.74297   0.00000  Uiso   1.00
C1217  C     0.50180   0.08679   0.83339   0.00000  Uiso   1.00
C1218  C     0.49831   0.24660   0.83331   0.00000  Uiso   1.00
C1219  C     0.40034   0.16640   0.82128   0.00000  Uiso   1.00
C1220  C     0.59966   0.16624   0.84535   0.00000  Uiso   1.00
C1221  C     0.34522   0.16618   0.81481   0.00000  Uiso   1.00
C1222  C     0.65477   0.16511   0.85171   0.00000  Uiso   1.00
C1223  C     0.53707   0.02011   0.80974   0.00000  Uiso   1.00
C1224  C     0.46420   0.31350   0.85803   0.00000  Uiso   1.00
C1225  C     0.53339   0.31042   0.80950   0.00000  Uiso   1.00
C1226  C     0.46699   0.02315   0.85723   0.00000  Uiso   1.00
C1227  C     0.49776   0.29079   0.83349   0.00000  Uiso   1.00
C1228  C     0.50261   0.04270   0.83335   0.00000  Uiso   1.00
C1229  C     0.53355   0.19173   0.69549   0.00000  Uiso   1.00
C1230  C     0.46569   0.14208   0.97107   0.00000  Uiso   1.00
C1231  C     0.53487   0.19094   0.98088   0.00000  Uiso   1.00
C1232  C     0.46625   0.14103   0.68637   0.00000  Uiso   1.00
H1233  H     0.65772   0.16740   0.77986   0.00000  Uiso   1.00
H1234  H     0.34232   0.16357   0.88661   0.00000  Uiso   1.00
H1235  H     0.55973   0.29203   0.79190   0.00000  Uiso   1.00
H1236  H     0.44084   0.04158   0.87501   0.00000  Uiso   1.00
H1237  H     0.55928   0.21248   0.71770   0.00000  Uiso   1.00
H1238  H     0.43798   0.12362   0.94800   0.00000  Uiso   1.00
N1239  N     0.49999   0.16666   0.95240   0.00000  Uiso   1.00
N1240  N     0.50001   0.16668   0.71427   0.00000  Uiso   1.00
O1241  O     0.50000   0.10558   0.87154   0.00000  Uiso   1.00
O1242  O     0.50000   0.22775   0.79513   0.00000  Uiso   1.00
O1243  O     0.50000   0.10559   0.79510   0.00000  Uiso   1.00
O1244  O     0.50000   0.22774   0.87157   0.00000  Uiso   1.00
O1245  O     0.42392   0.16666   0.86261   0.00000  Uiso   1.00
O1246  O     0.57608   0.16667   0.80405   0.00000  Uiso   1.00
O1247  O     0.42392   0.16667   0.78617   0.00000  Uiso   1.00
O1248  O     0.57608   0.16666   0.88050   0.00000  Uiso   1.00
Zn1249 Zn    0.50000   0.16666   0.88437   0.00000  Uiso   1.00
Zn1250 Zn    0.50000   0.16667   0.78229   0.00000  Uiso   1.00
C1251  C     0.57983   0.04016   0.78723   0.00000  Uiso   1.00
C1252  C     0.56416   0.04182   0.73531   0.00000  Uiso   1.00
H1253  H     0.55701   0.00980   0.72086   0.00000  Uiso   1.00
H1254  H     0.52806   0.06089   0.72626   0.00000  Uiso   1.00
H1255  H     0.59621   0.05639   0.71977   0.00000  Uiso   1.00
H1256  H     0.58945   0.07218   0.80069   0.00000  Uiso   1.00
H1257  H     0.61681   0.02179   0.79548   0.00000  Uiso   1.00
C1258  C     0.42506   0.29385   0.88489   0.00000  Uiso   1.00
C1259  C     0.44626   0.29498   0.93615   0.00000  Uiso   1.00
H1260  H     0.41706   0.28140   0.95563   0.00000  Uiso   1.00
H1261  H     0.48326   0.27666   0.94355   0.00000  Uiso   1.00
H1262  H     0.45400   0.32772   0.94812   0.00000  Uiso   1.00
H1263  H     0.38734   0.31146   0.87856   0.00000  Uiso   1.00
H1264  H     0.41510   0.26123   0.87382   0.00000  Uiso   1.00
O1265  O     0.56846   0.21703   0.96213   0.00000  Uiso   1.00
C1266  C     0.62098   0.20433   0.97681   0.00000  Uiso   1.00
H1267  H     0.62706   0.17130   0.96643   0.00000  Uiso   1.00
H1268  H     0.63216   0.20734   0.68127   0.00000  Uiso   1.00
C1269  C     0.65765   0.23219   0.95484   0.00000  Uiso   1.00
H1270  H     0.65632   0.26463   0.96837   0.00000  Uiso   1.00
H1271  H     0.36513   0.22000   0.96282   0.00000  Uiso   1.00
H1272  H     0.64574   0.23277   0.91711   0.00000  Uiso   1.00
O1273  O     0.43169   0.11695   0.70711   0.00000  Uiso   1.00
C1274  C     0.41580   0.07976   0.68275   0.00000  Uiso   1.00
H1275  H     0.44883   0.06446   0.66860   0.00000  Uiso   1.00
H1276  H     0.38300   0.08665   0.98793   0.00000  Uiso   1.00
C1277  C     0.39598   0.04896   0.71517   0.00000  Uiso   1.00
H1278  H     0.36333   0.06318   0.73055   0.00000  Uiso   1.00
H1279  H     0.38152   0.02014   0.69612   0.00000  Uiso   1.00
H1280  H     0.42834   0.04042   0.74297   0.00000  Uiso   1.00
C1281  C     0.83513   0.08679   0.83339   0.00000  Uiso   1.00
C1282  C     0.83165   0.24660   0.83331   0.00000  Uiso   1.00
C1283  C     0.73367   0.16640   0.82128   0.00000  Uiso   1.00
C1284  C     0.93300   0.16624   0.84535   0.00000  Uiso   1.00
C1285  C     0.67855   0.16618   0.81481   0.00000  Uiso   1.00
C1286  C     0.98811   0.16511   0.85171   0.00000  Uiso   1.00
C1287  C     0.87040   0.02011   0.80974   0.00000  Uiso   1.00
C1288  C     0.79754   0.31350   0.85803   0.00000  Uiso   1.00
C1289  C     0.86672   0.31042   0.80950   0.00000  Uiso   1.00
C1290  C     0.80032   0.02315   0.85723   0.00000  Uiso   1.00
C1291  C     0.83109   0.29079   0.83349   0.00000  Uiso   1.00
C1292  C     0.83594   0.04270   0.83335   0.00000  Uiso   1.00
C1293  C     0.86689   0.19173   0.69549   0.00000  Uiso   1.00
C1294  C     0.79903   0.14208   0.97107   0.00000  Uiso   1.00
C1295  C     0.86820   0.19094   0.98088   0.00000  Uiso   1.00
C1296  C     0.79959   0.14103   0.68637   0.00000  Uiso   1.00
H1297  H     0.99106   0.16740   0.77986   0.00000  Uiso   1.00
H1298  H     0.67565   0.16357   0.88661   0.00000  Uiso   1.00
H1299  H     0.89306   0.29203   0.79190   0.00000  Uiso   1.00
H1300  H     0.77418   0.04158   0.87501   0.00000  Uiso   1.00
H1301  H     0.89262   0.21248   0.71770   0.00000  Uiso   1.00
H1302  H     0.77132   0.12362   0.94800   0.00000  Uiso   1.00
N1303  N     0.83332   0.16666   0.95240   0.00000  Uiso   1.00
N1304  N     0.83335   0.16668   0.71427   0.00000  Uiso   1.00
O1305  O     0.83333   0.10558   0.87154   0.00000  Uiso   1.00
O1306  O     0.83334   0.22775   0.79513   0.00000  Uiso   1.00
O1307  O     0.83333   0.10559   0.79510   0.00000  Uiso   1.00
O1308  O     0.83334   0.22774   0.87157   0.00000  Uiso   1.00
O1309  O     0.75725   0.16666   0.86261   0.00000  Uiso   1.00
O1310  O     0.90942   0.16667   0.80405   0.00000  Uiso   1.00
O1311  O     0.75725   0.16667   0.78617   0.00000  Uiso   1.00
O1312  O     0.90942   0.16666   0.88050   0.00000  Uiso   1.00
Zn1313 Zn    0.83333   0.16666   0.88437   0.00000  Uiso   1.00
Zn1314 Zn    0.83333   0.16667   0.78229   0.00000  Uiso   1.00
C1315  C     0.91317   0.04016   0.78723   0.00000  Uiso   1.00
C1316  C     0.89749   0.04182   0.73531   0.00000  Uiso   1.00
H1317  H     0.89034   0.00980   0.72086   0.00000  Uiso   1.00
H1318  H     0.86140   0.06089   0.72626   0.00000  Uiso   1.00
H1319  H     0.92955   0.05639   0.71977   0.00000  Uiso   1.00
H1320  H     0.92278   0.07218   0.80069   0.00000  Uiso   1.00
H1321  H     0.95014   0.02179   0.79548   0.00000  Uiso   1.00
C1322  C     0.75839   0.29385   0.88489   0.00000  Uiso   1.00
C1323  C     0.77959   0.29498   0.93615   0.00000  Uiso   1.00
H1324  H     0.75040   0.28140   0.95563   0.00000  Uiso   1.00
H1325  H     0.81659   0.27666   0.94355   0.00000  Uiso   1.00
H1326  H     0.78733   0.32772   0.94812   0.00000  Uiso   1.00
H1327  H     0.72067   0.31146   0.87856   0.00000  Uiso   1.00
H1328  H     0.74843   0.26123   0.87382   0.00000  Uiso   1.00
O1329  O     0.90180   0.21703   0.96213   0.00000  Uiso   1.00
C1330  C     0.95431   0.20433   0.97681   0.00000  Uiso   1.00
H1331  H     0.96040   0.17130   0.96643   0.00000  Uiso   1.00
H1332  H     0.96549   0.20734   0.68127   0.00000  Uiso   1.00
C1333  C     0.99098   0.23219   0.95484   0.00000  Uiso   1.00
H1334  H     0.98966   0.26463   0.96837   0.00000  Uiso   1.00
H1335  H     0.69846   0.22000   0.96282   0.00000  Uiso   1.00
H1336  H     0.97907   0.23277   0.91711   0.00000  Uiso   1.00
O1337  O     0.76502   0.11695   0.70711   0.00000  Uiso   1.00
C1338  C     0.74913   0.07976   0.68275   0.00000  Uiso   1.00
H1339  H     0.78217   0.06446   0.66860   0.00000  Uiso   1.00
H1340  H     0.71634   0.08665   0.98793   0.00000  Uiso   1.00
C1341  C     0.72931   0.04896   0.71517   0.00000  Uiso   1.00
H1342  H     0.69666   0.06318   0.73055   0.00000  Uiso   1.00
H1343  H     0.71485   0.02014   0.69612   0.00000  Uiso   1.00
H1344  H     0.76167   0.04042   0.74297   0.00000  Uiso   1.00
C1345  C     0.16847   0.42013   0.83339   0.00000  Uiso   1.00
C1346  C     0.16498   0.57994   0.83331   0.00000  Uiso   1.00
C1347  C     0.06700   0.49973   0.82128   0.00000  Uiso   1.00
C1348  C     0.26633   0.49957   0.84535   0.00000  Uiso   1.00
C1349  C     0.01188   0.49952   0.81481   0.00000  Uiso   1.00
C1350  C     0.32144   0.49844   0.85171   0.00000  Uiso   1.00
C1351  C     0.20373   0.35344   0.80974   0.00000  Uiso   1.00
C1352  C     0.13087   0.64683   0.85803   0.00000  Uiso   1.00
C1353  C     0.20006   0.64376   0.80950   0.00000  Uiso   1.00
C1354  C     0.13365   0.35648   0.85723   0.00000  Uiso   1.00
C1355  C     0.16442   0.62413   0.83349   0.00000  Uiso   1.00
C1356  C     0.16927   0.37603   0.83335   0.00000  Uiso   1.00
C1357  C     0.20022   0.52507   0.69549   0.00000  Uiso   1.00
C1358  C     0.13236   0.47542   0.97107   0.00000  Uiso   1.00
C1359  C     0.20154   0.52428   0.98088   0.00000  Uiso   1.00
C1360  C     0.13292   0.47436   0.68637   0.00000  Uiso   1.00
H1361  H     0.32439   0.50073   0.77986   0.00000  Uiso   1.00
H1362  H     0.00898   0.49690   0.88661   0.00000  Uiso   1.00
H1363  H     0.22640   0.62537   0.79190   0.00000  Uiso   1.00
H1364  H     0.10751   0.37491   0.87501   0.00000  Uiso   1.00
H1365  H     0.22595   0.54581   0.71770   0.00000  Uiso   1.00
H1366  H     0.10465   0.45695   0.94800   0.00000  Uiso   1.00
N1367  N     0.16665   0.49999   0.95240   0.00000  Uiso   1.00
N1368  N     0.16668   0.50001   0.71427   0.00000  Uiso   1.00
O1369  O     0.16666   0.43892   0.87154   0.00000  Uiso   1.00
O1370  O     0.16667   0.56108   0.79513   0.00000  Uiso   1.00
O1371  O     0.16666   0.43893   0.79510   0.00000  Uiso   1.00
O1372  O     0.16667   0.56107   0.87157   0.00000  Uiso   1.00
O1373  O     0.09058   0.50000   0.86261   0.00000  Uiso   1.00
O1374  O     0.24275   0.50000   0.80405   0.00000  Uiso   1.00
O1375  O     0.09058   0.50000   0.78617   0.00000  Uiso   1.00
O1376  O     0.24275   0.50000   0.88050   0.00000  Uiso   1.00
Zn1377 Zn    0.16667   0.49999   0.88437   0.00000  Uiso   1.00
Zn1378 Zn    0.16667   0.50001   0.78229   0.00000  Uiso   1.00
C1379  C     0.24650   0.37349   0.78723   0.00000  Uiso   1.00
C1380  C     0.23082   0.37515   0.73531   0.00000  Uiso   1.00
H1381  H     0.22367   0.34313   0.72086   0.00000  Uiso   1.00
H1382  H     0.19473   0.39423   0.72626   0.00000  Uiso   1.00
H1383  H     0.26288   0.38972   0.71977   0.00000  Uiso   1.00
H1384  H     0.25611   0.40551   0.80069   0.00000  Uiso   1.00
H1385  H     0.28348   0.35512   0.79548   0.00000  Uiso   1.00
C1386  C     0.09173   0.62718   0.88489   0.00000  Uiso   1.00
C1387  C     0.11292   0.62831   0.93615   0.00000  Uiso   1.00
H1388  H     0.08373   0.61474   0.95563   0.00000  Uiso   1.00
H1389  H     0.14992   0.61000   0.94355   0.00000  Uiso   1.00
H1390  H     0.12066   0.66105   0.94812   0.00000  Uiso   1.00
H1391  H     0.05400   0.64480   0.87856   0.00000  Uiso   1.00
H1392  H     0.08176   0.59456   0.87382   0.00000  Uiso   1.00
O1393  O     0.23513   0.55036   0.96213   0.00000  Uiso   1.00
C1394  C     0.28764   0.53766   0.97681   0.00000  Uiso   1.00
H1395  H     0.29373   0.50464   0.96643   0.00000  Uiso   1.00
H1396  H     0.29883   0.54068   0.68127   0.00000  Uiso   1.00
C1397  C     0.32431   0.56553   0.95484   0.00000  Uiso   1.00
H1398  H     0.32299   0.59796   0.96837   0.00000  Uiso   1.00
H1399  H     0.03179   0.55334   0.96282   0.00000  Uiso   1.00
H1400  H     0.31240   0.56611   0.91711   0.00000  Uiso   1.00
O1401  O     0.09835   0.45028   0.70711   0.00000  Uiso   1.00
C1402  C     0.08246   0.41309   0.68275   0.00000  Uiso   1.00
H1403  H     0.11550   0.39779   0.66860   0.00000  Uiso   1.00
H1404  H     0.04967   0.41999   0.98793   0.00000  Uiso   1.00
C1405  C     0.06264   0.38230   0.71517   0.00000  Uiso   1.00
H1406  H     0.03000   0.39651   0.73055   0.00000  Uiso   1.00
H1407  H     0.04818   0.35347   0.69612   0.00000  Uiso   1.00
H1408  H     0.09500   0.37376   0.74297   0.00000  Uiso   1.00
C1409  C     0.50180   0.42013   0.83339   0.00000  Uiso   1.00
C1410  C     0.49831   0.57994   0.83331   0.00000  Uiso   1.00
C1411  C     0.40034   0.49973   0.82128   0.00000  Uiso   1.00
C1412  C     0.59966   0.49957   0.84535   0.00000  Uiso   1.00
C1413  C     0.34522   0.49952   0.81481   0.00000  Uiso   1.00
C1414  C     0.65477   0.49844   0.85171   0.00000  Uiso   1.00
C1415  C     0.53707   0.35344   0.80974   0.00000  Uiso   1.00
C1416  C     0.46420   0.64683   0.85803   0.00000  Uiso   1.00
C1417  C     0.53339   0.64376   0.80950   0.00000  Uiso   1.00
C1418  C     0.46699   0.35648   0.85723   0.00000  Uiso   1.00
C1419  C     0.49776   0.62413   0.83349   0.00000  Uiso   1.00
C1420  C     0.50261   0.37603   0.83335   0.00000  Uiso   1.00
C1421  C     0.53355   0.52507   0.69549   0.00000  Uiso   1.00
C1422  C     0.46569   0.47542   0.97107   0.00000  Uiso   1.00
C1423  C     0.53487   0.52428   0.98088   0.00000  Uiso   1.00
C1424  C     0.46625   0.47436   0.68637   0.00000  Uiso   1.00
H1425  H     0.65772   0.50073   0.77986   0.00000  Uiso   1.00
H1426  H     0.34232   0.49690   0.88661   0.00000  Uiso   1.00
H1427  H     0.55973   0.62537   0.79190   0.00000  Uiso   1.00
H1428  H     0.44084   0.37491   0.87501   0.00000  Uiso   1.00
H1429  H     0.55928   0.54581   0.71770   0.00000  Uiso   1.00
H1430  H     0.43798   0.45695   0.94800   0.00000  Uiso   1.00
N1431  N     0.49999   0.49999   0.95240   0.00000  Uiso   1.00
N1432  N     0.50001   0.50001   0.71427   0.00000  Uiso   1.00
O1433  O     0.50000   0.43892   0.87154   0.00000  Uiso   1.00
O1434  O     0.50000   0.56108   0.79513   0.00000  Uiso   1.00
O1435  O     0.50000   0.43893   0.79510   0.00000  Uiso   1.00
O1436  O     0.50000   0.56107   0.87157   0.00000  Uiso   1.00
O1437  O     0.42392   0.50000   0.86261   0.00000  Uiso   1.00
O1438  O     0.57608   0.50000   0.80405   0.00000  Uiso   1.00
O1439  O     0.42392   0.50000   0.78617   0.00000  Uiso   1.00
O1440  O     0.57608   0.50000   0.88050   0.00000  Uiso   1.00
Zn1441 Zn    0.50000   0.49999   0.88437   0.00000  Uiso   1.00
Zn1442 Zn    0.50000   0.50001   0.78229   0.00000  Uiso   1.00
C1443  C     0.57983   0.37349   0.78723   0.00000  Uiso   1.00
C1444  C     0.56416   0.37515   0.73531   0.00000  Uiso   1.00
H1445  H     0.55701   0.34313   0.72086   0.00000  Uiso   1.00
H1446  H     0.52806   0.39423   0.72626   0.00000  Uiso   1.00
H1447  H     0.59621   0.38972   0.71977   0.00000  Uiso   1.00
H1448  H     0.58945   0.40551   0.80069   0.00000  Uiso   1.00
H1449  H     0.61681   0.35512   0.79548   0.00000  Uiso   1.00
C1450  C     0.42506   0.62718   0.88489   0.00000  Uiso   1.00
C1451  C     0.44626   0.62831   0.93615   0.00000  Uiso   1.00
H1452  H     0.41706   0.61474   0.95563   0.00000  Uiso   1.00
H1453  H     0.48326   0.61000   0.94355   0.00000  Uiso   1.00
H1454  H     0.45400   0.66105   0.94812   0.00000  Uiso   1.00
H1455  H     0.38734   0.64480   0.87856   0.00000  Uiso   1.00
H1456  H     0.41510   0.59456   0.87382   0.00000  Uiso   1.00
O1457  O     0.56846   0.55036   0.96213   0.00000  Uiso   1.00
C1458  C     0.62098   0.53766   0.97681   0.00000  Uiso   1.00
H1459  H     0.62706   0.50464   0.96643   0.00000  Uiso   1.00
H1460  H     0.63216   0.54068   0.68127   0.00000  Uiso   1.00
C1461  C     0.65765   0.56553   0.95484   0.00000  Uiso   1.00
H1462  H     0.65632   0.59796   0.96837   0.00000  Uiso   1.00
H1463  H     0.36513   0.55334   0.96282   0.00000  Uiso   1.00
H1464  H     0.64574   0.56611   0.91711   0.00000  Uiso   1.00
O1465  O     0.43169   0.45028   0.70711   0.00000  Uiso   1.00
C1466  C     0.41580   0.41309   0.68275   0.00000  Uiso   1.00
H1467  H     0.44883   0.39779   0.66860   0.00000  Uiso   1.00
H1468  H     0.38300   0.41999   0.98793   0.00000  Uiso   1.00
C1469  C     0.39598   0.38230   0.71517   0.00000  Uiso   1.00
H1470  H     0.36333   0.39651   0.73055   0.00000  Uiso   1.00
H1471  H     0.38152   0.35347   0.69612   0.00000  Uiso   1.00
H1472  H     0.42834   0.37376   0.74297   0.00000  Uiso   1.00
C1473  C     0.83513   0.42013   0.83339   0.00000  Uiso   1.00
C1474  C     0.83165   0.57994   0.83331   0.00000  Uiso   1.00
C1475  C     0.73367   0.49973   0.82128   0.00000  Uiso   1.00
C1476  C     0.93300   0.49957   0.84535   0.00000  Uiso   1.00
C1477  C     0.67855   0.49952   0.81481   0.00000  Uiso   1.00
C1478  C     0.98811   0.49844   0.85171   0.00000  Uiso   1.00
C1479  C     0.87040   0.35344   0.80974   0.00000  Uiso   1.00
C1480  C     0.79754   0.64683   0.85803   0.00000  Uiso   1.00
C1481  C     0.86672   0.64376   0.80950   0.00000  Uiso   1.00
C1482  C     0.80032   0.35648   0.85723   0.00000  Uiso   1.00
C1483  C     0.83109   0.62413   0.83349   0.00000  Uiso   1.00
C1484  C     0.83594   0.37603   0.83335   0.00000  Uiso   1.00
C1485  C     0.86689   0.52507   0.69549   0.00000  Uiso   1.00
C1486  C     0.79903   0.47542   0.97107   0.00000  Uiso   1.00
C1487  C     0.86820   0.52428   0.98088   0.00000  Uiso   1.00
C1488  C     0.79959   0.47436   0.68637   0.00000  Uiso   1.00
H1489  H     0.99106   0.50073   0.77986   0.00000  Uiso   1.00
H1490  H     0.67565   0.49690   0.88661   0.00000  Uiso   1.00
H1491  H     0.89306   0.62537   0.79190   0.00000  Uiso   1.00
H1492  H     0.77418   0.37491   0.87501   0.00000  Uiso   1.00
H1493  H     0.89262   0.54581   0.71770   0.00000  Uiso   1.00
H1494  H     0.77132   0.45695   0.94800   0.00000  Uiso   1.00
N1495  N     0.83332   0.49999   0.95240   0.00000  Uiso   1.00
N1496  N     0.83335   0.50001   0.71427   0.00000  Uiso   1.00
O1497  O     0.83333   0.43892   0.87154   0.00000  Uiso   1.00
O1498  O     0.83334   0.56108   0.79513   0.00000  Uiso   1.00
O1499  O     0.83333   0.43893   0.79510   0.00000  Uiso   1.00
O1500  O     0.83334   0.56107   0.87157   0.00000  Uiso   1.00
O1501  O     0.75725   0.50000   0.86261   0.00000  Uiso   1.00
O1502  O     0.90942   0.50000   0.80405   0.00000  Uiso   1.00
O1503  O     0.75725   0.50000   0.78617   0.00000  Uiso   1.00
O1504  O     0.90942   0.50000   0.88050   0.00000  Uiso   1.00
Zn1505 Zn    0.83333   0.49999   0.88437   0.00000  Uiso   1.00
Zn1506 Zn    0.83333   0.50001   0.78229   0.00000  Uiso   1.00
C1507  C     0.91317   0.37349   0.78723   0.00000  Uiso   1.00
C1508  C     0.89749   0.37515   0.73531   0.00000  Uiso   1.00
H1509  H     0.89034   0.34313   0.72086   0.00000  Uiso   1.00
H1510  H     0.86140   0.39423   0.72626   0.00000  Uiso   1.00
H1511  H     0.92955   0.38972   0.71977   0.00000  Uiso   1.00
H1512  H     0.92278   0.40551   0.80069   0.00000  Uiso   1.00
H1513  H     0.95014   0.35512   0.79548   0.00000  Uiso   1.00
C1514  C     0.75839   0.62718   0.88489   0.00000  Uiso   1.00
C1515  C     0.77959   0.62831   0.93615   0.00000  Uiso   1.00
H1516  H     0.75040   0.61474   0.95563   0.00000  Uiso   1.00
H1517  H     0.81659   0.61000   0.94355   0.00000  Uiso   1.00
H1518  H     0.78733   0.66105   0.94812   0.00000  Uiso   1.00
H1519  H     0.72067   0.64480   0.87856   0.00000  Uiso   1.00
H1520  H     0.74843   0.59456   0.87382   0.00000  Uiso   1.00
O1521  O     0.90180   0.55036   0.96213   0.00000  Uiso   1.00
C1522  C     0.95431   0.53766   0.97681   0.00000  Uiso   1.00
H1523  H     0.96040   0.50464   0.96643   0.00000  Uiso   1.00
H1524  H     0.96549   0.54068   0.68127   0.00000  Uiso   1.00
C1525  C     0.99098   0.56553   0.95484   0.00000  Uiso   1.00
H1526  H     0.98966   0.59796   0.96837   0.00000  Uiso   1.00
H1527  H     0.69846   0.55334   0.96282   0.00000  Uiso   1.00
H1528  H     0.97907   0.56611   0.91711   0.00000  Uiso   1.00
O1529  O     0.76502   0.45028   0.70711   0.00000  Uiso   1.00
C1530  C     0.74913   0.41309   0.68275   0.00000  Uiso   1.00
H1531  H     0.78217   0.39779   0.66860   0.00000  Uiso   1.00
H1532  H     0.71634   0.41999   0.98793   0.00000  Uiso   1.00
C1533  C     0.72931   0.38230   0.71517   0.00000  Uiso   1.00
H1534  H     0.69666   0.39651   0.73055   0.00000  Uiso   1.00
H1535  H     0.71485   0.35347   0.69612   0.00000  Uiso   1.00
H1536  H     0.76167   0.37376   0.74297   0.00000  Uiso   1.00
C1537  C     0.16847   0.75346   0.83339   0.00000  Uiso   1.00
C1538  C     0.16498   0.91327   0.83331   0.00000  Uiso   1.00
C1539  C     0.06700   0.83307   0.82128   0.00000  Uiso   1.00
C1540  C     0.26633   0.83291   0.84535   0.00000  Uiso   1.00
C1541  C     0.01188   0.83285   0.81481   0.00000  Uiso   1.00
C1542  C     0.32144   0.83177   0.85171   0.00000  Uiso   1.00
C1543  C     0.20373   0.68678   0.80974   0.00000  Uiso   1.00
C1544  C     0.13087   0.98017   0.85803   0.00000  Uiso   1.00
C1545  C     0.20006   0.97709   0.80950   0.00000  Uiso   1.00
C1546  C     0.13365   0.68981   0.85723   0.00000  Uiso   1.00
C1547  C     0.16442   0.95746   0.83349   0.00000  Uiso   1.00
C1548  C     0.16927   0.70937   0.83335   0.00000  Uiso   1.00
C1549  C     0.20022   0.85840   0.69549   0.00000  Uiso   1.00
C1550  C     0.13236   0.80875   0.97107   0.00000  Uiso   1.00
C1551  C     0.20154   0.85761   0.98088   0.00000  Uiso   1.00
C1552  C     0.13292   0.80770   0.68637   0.00000  Uiso   1.00
H1553  H     0.32439   0.83406   0.77986   0.00000  Uiso   1.00
H1554  H     0.00898   0.83024   0.88661   0.00000  Uiso   1.00
H1555  H     0.22640   0.95870   0.79190   0.00000  Uiso   1.00
H1556  H     0.10751   0.70824   0.87501   0.00000  Uiso   1.00
H1557  H     0.22595   0.87914   0.71770   0.00000  Uiso   1.00
H1558  H     0.10465   0.79029   0.94800   0.00000  Uiso   1.00
N1559  N     0.16665   0.83332   0.95240   0.00000  Uiso   1.00
N1560  N     0.16668   0.83334   0.71427   0.00000  Uiso   1.00
O1561  O     0.16666   0.77225   0.87154   0.00000  Uiso   1.00
O1562  O     0.16667   0.89442   0.79513   0.00000  Uiso   1.00
O1563  O     0.16666   0.77226   0.79510   0.00000  Uiso   1.00
O1564  O     0.16667   0.89441   0.87157   0.00000  Uiso   1.00
O1565  O     0.09058   0.83333   0.86261   0.00000  Uiso   1.00
O1566  O     0.24275   0.83334   0.80405   0.00000  Uiso   1.00
O1567  O     0.09058   0.83334   0.78617   0.00000  Uiso   1.00
O1568  O     0.24275   0.83333   0.88050   0.00000  Uiso   1.00
Zn1569 Zn    0.16667   0.83333   0.88437   0.00000  Uiso   1.00
Zn1570 Zn    0.16667   0.83334   0.78229   0.00000  Uiso   1.00
C1571  C     0.24650   0.70683   0.78723   0.00000  Uiso   1.00
C1572  C     0.23082   0.70849   0.73531   0.00000  Uiso   1.00
H1573  H     0.22367   0.67647   0.72086   0.00000  Uiso   1.00
H1574  H     0.19473   0.72756   0.72626   0.00000  Uiso   1.00
H1575  H     0.26288   0.72305   0.71977   0.00000  Uiso   1.00
H1576  H     0.25611   0.73885   0.80069   0.00000  Uiso   1.00
H1577  H     0.28348   0.68846   0.79548   0.00000  Uiso   1.00
C1578  C     0.09173   0.96051   0.88489   0.00000  Uiso   1.00
C1579  C     0.11292   0.96164   0.93615   0.00000  Uiso   1.00
H1580  H     0.08373   0.94807   0.95563   0.00000  Uiso   1.00
H1581  H     0.14992   0.94333   0.94355   0.00000  Uiso   1.00
H1582  H     0.12066   0.99439   0.94812   0.00000  Uiso   1.00
H1583  H     0.05400   0.97813   0.87856   0.00000  Uiso   1.00
H1584  H     0.08176   0.92790   0.87382   0.00000  Uiso   1.00
O1585  O     0.23513   0.88370   0.96213   0.00000  Uiso   1.00
C1586  C     0.28764   0.87100   0.97681   0.00000  Uiso   1.00
H1587  H     0.29373   0.83797   0.96643   0.00000  Uiso   1.00
H1588  H     0.29883   0.87401   0.68127   0.00000  Uiso   1.00
C1589  C     0.32431   0.89886   0.95484   0.00000  Uiso   1.00
H1590  H     0.32299   0.93130   0.96837   0.00000  Uiso   1.00
H1591  H     0.03179   0.88667   0.96282   0.00000  Uiso   1.00
H1592  H     0.31240   0.89944   0.91711   0.00000  Uiso   1.00
O1593  O     0.09835   0.78362   0.70711   0.00000  Uiso   1.00
C1594  C     0.08246   0.74642   0.68275   0.00000  Uiso   1.00
H1595  H     0.11550   0.73113   0.66860   0.00000  Uiso   1.00
H1596  H     0.04967   0.75332   0.98793   0.00000  Uiso   1.00
C1597  C     0.06264   0.71563   0.71517   0.00000  Uiso   1.00
H1598  H     0.03000   0.72985   0.73055   0.00000  Uiso   1.00
H1599  H     0.04818   0.68680   0.69612   0.00000  Uiso   1.00
H1600  H     0.09500   0.70709   0.74297   0.00000  Uiso   1.00
C1601  C     0.50180   0.75346   0.83339   0.00000  Uiso   1.00
C1602  C     0.49831   0.91327   0.83331   0.00000  Uiso   1.00
C1603  C     0.40034   0.83307   0.82128   0.00000  Uiso   1.00
C1604  C     0.59966   0.83291   0.84535   0.00000  Uiso   1.00
C1605  C     0.34522   0.83285   0.81481   0.00000  Uiso   1.00
C1606  C     0.65477   0.83177   0.85171   0.00000  Uiso   1.00
C1607  C     0.53707   0.68678   0.80974   0.00000  Uiso   1.00
C1608  C     0.46420   0.98017   0.85803   0.00000  Uiso   1.00
C1609  C     0.53339   0.97709   0.80950   0.00000  Uiso   1.00
C1610  C     0.46699   0.68981   0.85723   0.00000  Uiso   1.00
C1611  C     0.49776   0.95746   0.83349   0.00000  Uiso   1.00
C1612  C     0.50261   0.70937   0.83335   0.00000  Uiso   1.00
C1613  C     0.53355   0.85840   0.69549   0.00000  Uiso   1.00
C1614  C     0.46569   0.80875   0.97107   0.00000  Uiso   1.00
C1615  C     0.53487   0.85761   0.98088   0.00000  Uiso   1.00
C1616  C     0.46625   0.80770   0.68637   0.00000  Uiso   1.00
H1617  H     0.65772   0.83406   0.77986   0.00000  Uiso   1.00
H1618  H     0.34232   0.83024   0.88661   0.00000  Uiso   1.00
H1619  H     0.55973   0.95870   0.79190   0.00000  Uiso   1.00
H1620  H     0.44084   0.70824   0.87501   0.00000  Uiso   1.00
H1621  H     0.55928   0.87914   0.71770   0.00000  Uiso   1.00
H1622  H     0.43798   0.79029   0.94800   0.00000  Uiso   1.00
N1623  N     0.49999   0.83332   0.95240   0.00000  Uiso   1.00
N1624  N     0.50001   0.83334   0.71427   0.00000  Uiso   1.00
O1625  O     0.50000   0.77225   0.87154   0.00000  Uiso   1.00
O1626  O     0.50000   0.89442   0.79513   0.00000  Uiso   1.00
O1627  O     0.50000   0.77226   0.79510   0.00000  Uiso   1.00
O1628  O     0.50000   0.89441   0.87157   0.00000  Uiso   1.00
O1629  O     0.42392   0.83333   0.86261   0.00000  Uiso   1.00
O1630  O     0.57608   0.83334   0.80405   0.00000  Uiso   1.00
O1631  O     0.42392   0.83334   0.78617   0.00000  Uiso   1.00
O1632  O     0.57608   0.83333   0.88050   0.00000  Uiso   1.00
Zn1633 Zn    0.50000   0.83333   0.88437   0.00000  Uiso   1.00
Zn1634 Zn    0.50000   0.83334   0.78229   0.00000  Uiso   1.00
C1635  C     0.57983   0.70683   0.78723   0.00000  Uiso   1.00
C1636  C     0.56416   0.70849   0.73531   0.00000  Uiso   1.00
H1637  H     0.55701   0.67647   0.72086   0.00000  Uiso   1.00
H1638  H     0.52806   0.72756   0.72626   0.00000  Uiso   1.00
H1639  H     0.59621   0.72305   0.71977   0.00000  Uiso   1.00
H1640  H     0.58945   0.73885   0.80069   0.00000  Uiso   1.00
H1641  H     0.61681   0.68846   0.79548   0.00000  Uiso   1.00
C1642  C     0.42506   0.96051   0.88489   0.00000  Uiso   1.00
C1643  C     0.44626   0.96164   0.93615   0.00000  Uiso   1.00
H1644  H     0.41706   0.94807   0.95563   0.00000  Uiso   1.00
H1645  H     0.48326   0.94333   0.94355   0.00000  Uiso   1.00
H1646  H     0.45400   0.99439   0.94812   0.00000  Uiso   1.00
H1647  H     0.38734   0.97813   0.87856   0.00000  Uiso   1.00
H1648  H     0.41510   0.92790   0.87382   0.00000  Uiso   1.00
O1649  O     0.56846   0.88370   0.96213   0.00000  Uiso   1.00
C1650  C     0.62098   0.87100   0.97681   0.00000  Uiso   1.00
H1651  H     0.62706   0.83797   0.96643   0.00000  Uiso   1.00
H1652  H     0.63216   0.87401   0.68127   0.00000  Uiso   1.00
C1653  C     0.65765   0.89886   0.95484   0.00000  Uiso   1.00
H1654  H     0.65632   0.93130   0.96837   0.00000  Uiso   1.00
H1655  H     0.36513   0.88667   0.96282   0.00000  Uiso   1.00
H1656  H     0.64574   0.89944   0.91711   0.00000  Uiso   1.00
O1657  O     0.43169   0.78362   0.70711   0.00000  Uiso   1.00
C1658  C     0.41580   0.74642   0.68275   0.00000  Uiso   1.00
H1659  H     0.44883   0.73113   0.66860   0.00000  Uiso   1.00
H1660  H     0.38300   0.75332   0.98793   0.00000  Uiso   1.00
C1661  C     0.39598   0.71563   0.71517   0.00000  Uiso   1.00
H1662  H     0.36333   0.72985   0.73055   0.00000  Uiso   1.00
H1663  H     0.38152   0.68680   0.69612   0.00000  Uiso   1.00
H1664  H     0.42834   0.70709   0.74297   0.00000  Uiso   1.00
C1665  C     0.83513   0.75346   0.83339   0.00000  Uiso   1.00
C1666  C     0.83165   0.91327   0.83331   0.00000  Uiso   1.00
C1667  C     0.73367   0.83307   0.82128   0.00000  Uiso   1.00
C1668  C     0.93300   0.83291   0.84535   0.00000  Uiso   1.00
C1669  C     0.67855   0.83285   0.81481   0.00000  Uiso   1.00
C1670  C     0.98811   0.83177   0.85171   0.00000  Uiso   1.00
C1671  C     0.87040   0.68678   0.80974   0.00000  Uiso   1.00
C1672  C     0.79754   0.98017   0.85803   0.00000  Uiso   1.00
C1673  C     0.86672   0.97709   0.80950   0.00000  Uiso   1.00
C1674  C     0.80032   0.68981   0.85723   0.00000  Uiso   1.00
C1675  C     0.83109   0.95746   0.83349   0.00000  Uiso   1.00
C1676  C     0.83594   0.70937   0.83335   0.00000  Uiso   1.00
C1677  C     0.86689   0.85840   0.69549   0.00000  Uiso   1.00
C1678  C     0.79903   0.80875   0.97107   0.00000  Uiso   1.00
C1679  C     0.86820   0.85761   0.98088   0.00000  Uiso   1.00
C1680  C     0.79959   0.80770   0.68637   0.00000  Uiso   1.00
H1681  H     0.99106   0.83406   0.77986   0.00000  Uiso   1.00
H1682  H     0.67565   0.83024   0.88661   0.00000  Uiso   1.00
H1683  H     0.89306   0.95870   0.79190   0.00000  Uiso   1.00
H1684  H     0.77418   0.70824   0.87501   0.00000  Uiso   1.00
H1685  H     0.89262   0.87914   0.71770   0.00000  Uiso   1.00
H1686  H     0.77132   0.79029   0.94800   0.00000  Uiso   1.00
N1687  N     0.83332   0.83332   0.95240   0.00000  Uiso   1.00
N1688  N     0.83335   0.83334   0.71427   0.00000  Uiso   1.00
O1689  O     0.83333   0.77225   0.87154   0.00000  Uiso   1.00
O1690  O     0.83334   0.89442   0.79513   0.00000  Uiso   1.00
O1691  O     0.83333   0.77226   0.79510   0.00000  Uiso   1.00
O1692  O     0.83334   0.89441   0.87157   0.00000  Uiso   1.00
O1693  O     0.75725   0.83333   0.86261   0.00000  Uiso   1.00
O1694  O     0.90942   0.83334   0.80405   0.00000  Uiso   1.00
O1695  O     0.75725   0.83334   0.78617   0.00000  Uiso   1.00
O1696  O     0.90942   0.83333   0.88050   0.00000  Uiso   1.00
Zn1697 Zn    0.83333   0.83333   0.88437   0.00000  Uiso   1.00
Zn1698 Zn    0.83333   0.83334   0.78229   0.00000  Uiso   1.00
C1699  C     0.91317   0.70683   0.78723   0.00000  Uiso   1.00
C1700  C     0.89749   0.70849   0.73531   0.00000  Uiso   1.00
H1701  H     0.89034   0.67647   0.72086   0.00000  Uiso   1.00
H1702  H     0.86140   0.72756   0.72626   0.00000  Uiso   1.00
H1703  H     0.92955   0.72305   0.71977   0.00000  Uiso   1.00
H1704  H     0.92278   0.73885   0.80069   0.00000  Uiso   1.00
H1705  H     0.95014   0.68846   0.79548   0.00000  Uiso   1.00
C1706  C     0.75839   0.96051   0.88489   0.00000  Uiso   1.00
C1707  C     0.77959   0.96164   0.93615   0.00000  Uiso   1.00
H1708  H     0.75040   0.94807   0.95563   0.00000  Uiso   1.00
H1709  H     0.81659   0.94333   0.94355   0.00000  Uiso   1.00
H1710  H     0.78733   0.99439   0.94812   0.00000  Uiso   1.00
H1711  H     0.72067   0.97813   0.87856   0.00000  Uiso   1.00
H1712  H     0.74843   0.92790   0.87382   0.00000  Uiso   1.00
O1713  O     0.90180   0.88370   0.96213   0.00000  Uiso   1.00
C1714  C     0.95431   0.87100   0.97681   0.00000  Uiso   1.00
H1715  H     0.96040   0.83797   0.96643   0.00000  Uiso   1.00
H1716  H     0.96549   0.87401   0.68127   0.00000  Uiso   1.00
C1717  C     0.99098   0.89886   0.95484   0.00000  Uiso   1.00
H1718  H     0.98966   0.93130   0.96837   0.00000  Uiso   1.00
H1719  H     0.69846   0.88667   0.96282   0.00000  Uiso   1.00
H1720  H     0.97907   0.89944   0.91711   0.00000  Uiso   1.00
O1721  O     0.76502   0.78362   0.70711   0.00000  Uiso   1.00
C1722  C     0.74913   0.74642   0.68275   0.00000  Uiso   1.00
H1723  H     0.78217   0.73113   0.66860   0.00000  Uiso   1.00
H1724  H     0.71634   0.75332   0.98793   0.00000  Uiso   1.00
C1725  C     0.72931   0.71563   0.71517   0.00000  Uiso   1.00
H1726  H     0.69666   0.72985   0.73055   0.00000  Uiso   1.00
H1727  H     0.71485   0.68680   0.69612   0.00000  Uiso   1.00
H1728  H     0.76167   0.70709   0.74297   0.00000  Uiso   1.00
loop_
_geom_bond_atom_site_label_1
_geom_bond_atom_site_label_2
_geom_bond_distance
_geom_bond_site_symmetry_2
_ccdc_geom_bond_type
C1     O25     1.281   .     A
C1     C12     1.409   .     S
C1     O27     1.280   .     A
C2     C11     1.412   .     S
C2     O26     1.282   .     A
C2     O28     1.280   .     A
C3     O31     1.281   .     A
C3     O29     1.277   .     A
C3     C5      1.402   .     S
C4     O32     1.282   .     A
C4     C6      1.402   .     S
C4     O30     1.276   .     A
C5     C134    1.332   1_455 S
C5     H145    1.088   1_455 S
C6     C69     1.332   .     S
C6     H82     1.088   .     S
C7     C12     1.406   .     A
C7     C35     1.518   .     S
C7     C393    1.378   1_545 S
C8     C11     1.408   .     A
C8     C42     1.517   .     S
C8     C202    1.376   .     S
C9     C11     1.396   .     A
C9     H19     1.086   .     S
C9     C199    1.378   .     S
C10    C12     1.393   .     A
C10    H20     1.086   .     S
C10    C392    1.376   1_545 S
C13    H21     1.082   .     S
C13    N24     1.362   .     A
C13    C1167   1.422   1_554 S
C14    N23     1.365   .     A
C14    H22     1.080   .     S
C14    C592    1.436   .     S
C15    N23     1.370   .     A
C15    O49     1.382   .     S
C15    C589    1.422   .     S
C16    N24     1.371   .     A
C16    O57     1.393   .     S
C16    C1166   1.436   1_554 S
H17    C69     1.088   .     S
H18    C134    1.088   1_455 S
N23    Zn33    2.011   .     S
N24    Zn34    2.011   .     S
O25    Zn33    1.986   .     S
O26    Zn34    1.986   .     S
O27    Zn34    1.991   .     S
O28    Zn33    1.991   .     S
O29    Zn33    1.964   .     S
O30    Zn34    1.964   .     S
O31    Zn34    1.980   .     S
O32    Zn33    1.980   .     S
C35    H41     1.112   .     S
C35    C36     1.526   .     S
C35    H40     1.110   .     S
C36    H37     1.111   .     S
C36    H38     1.108   .     S
C36    H39     1.110   .     S
C42    H48     1.109   .     S
C42    C43     1.528   .     S
C42    H47     1.112   .     S
C43    H44     1.107   .     S
C43    H45     1.110   .     S
C43    H46     1.111   .     S
O49    C50     1.413   .     S
C50    H51     1.115   .     S
C50    C53     1.520   .     S
C50    H628    1.113   .     S
H52    C1202   1.113   1_554 S
C53    H54     1.111   .     S
C53    H56     1.110   .     S
C53    H119    1.111   .     S
H55    C181    1.111   1_455 S
O57    C58     1.413   .     S
C58    C61     1.522   .     S
C58    H59     1.115   .     S
C58    H1212   1.112   1_554 S
H60    C634    1.112   .     S
C61    H64     1.110   .     S
C61    H62     1.111   .     S
C61    H63     1.111   .     S
C65    O89     1.281   .     A
C65    C76     1.409   .     S
C65    O91     1.280   .     A
C66    C75     1.412   .     S
C66    O90     1.282   .     A
C66    O92     1.280   .     A
C67    O95     1.281   .     A
C67    O93     1.277   .     A
C67    C69     1.402   .     S
C68    O96     1.282   .     A
C68    C70     1.402   .     S
C68    O94     1.276   .     A
C70    C133    1.332   .     S
C70    H146    1.088   .     S
C71    C76     1.406   .     A
C71    C99     1.518   .     S
C71    C457    1.378   1_545 S
C72    C75     1.408   .     A
C72    C106    1.517   .     S
C72    C266    1.376   .     S
C73    C75     1.396   .     A
C73    H83     1.086   .     S
C73    C263    1.378   .     S
C74    C76     1.393   .     A
C74    H84     1.086   .     S
C74    C456    1.376   1_545 S
C77    H85     1.082   .     S
C77    N88     1.362   .     A
C77    C1231   1.422   1_554 S
C78    N87     1.365   .     A
C78    H86     1.080   .     S
C78    C656    1.436   .     S
C79    N87     1.370   .     A
C79    O113    1.382   .     S
C79    C653    1.422   .     S
C80    N88     1.371   .     A
C80    O121    1.393   .     S
C80    C1230   1.436   1_554 S
H81    C133    1.088   .     S
N87    Zn97    2.011   .     S
N88    Zn98    2.011   .     S
O89    Zn97    1.986   .     S
O90    Zn98    1.986   .     S
O91    Zn98    1.991   .     S
O92    Zn97    1.991   .     S
O93    Zn97    1.964   .     S
O94    Zn98    1.964   .     S
O95    Zn98    1.980   .     S
O96    Zn97    1.980   .     S
C99    H105    1.112   .     S
C99    C100    1.526   .     S
C99    H104    1.110   .     S
C100   H101    1.111   .     S
C100   H102    1.108   .     S
C100   H103    1.110   .     S
C106   H112    1.109   .     S
C106   C107    1.528   .     S
C106   H111    1.112   .     S
C107   H108    1.107   .     S
C107   H109    1.110   .     S
C107   H110    1.111   .     S
O113   C114    1.413   .     S
C114   H115    1.115   .     S
C114   C117    1.520   .     S
C114   H692    1.113   .     S
H116   C1266   1.113   1_554 S
C117   H118    1.111   .     S
C117   H120    1.110   .     S
C117   H183    1.111   .     S
O121   C122    1.413   .     S
C122   C125    1.522   .     S
C122   H123    1.115   .     S
C122   H1276   1.112   1_554 S
H124   C698    1.112   .     S
C125   H128    1.110   .     S
C125   H126    1.111   .     S
C125   H127    1.111   .     S
C129   O153    1.281   .     A
C129   C140    1.409   .     S
C129   O155    1.280   .     A
C130   C139    1.412   .     S
C130   O154    1.282   .     A
C130   O156    1.280   .     A
C131   O159    1.281   .     A
C131   O157    1.277   .     A
C131   C133    1.402   .     S
C132   O160    1.282   .     A
C132   C134    1.402   .     S
C132   O158    1.276   .     A
C134   C5      1.332   1_655 S
C134   H18     1.088   1_655 S
C135   C140    1.406   .     A
C135   C163    1.518   .     S
C135   C521    1.378   1_545 S
C136   C139    1.408   .     A
C136   C170    1.517   .     S
C136   C330    1.376   .     S
C137   C139    1.396   .     A
C137   H147    1.086   .     S
C137   C327    1.378   .     S
C138   C140    1.393   .     A
C138   H148    1.086   .     S
C138   C520    1.376   1_545 S
C141   H149    1.082   .     S
C141   N152    1.362   .     A
C141   C1295   1.422   1_554 S
C142   N151    1.365   .     A
C142   H150    1.080   .     S
C142   C720    1.436   .     S
C143   N151    1.370   .     A
C143   O177    1.382   .     S
C143   C717    1.422   .     S
C144   N152    1.371   .     A
C144   O185    1.393   .     S
C144   C1294   1.436   1_554 S
H145   C5      1.088   1_655 S
N151   Zn161   2.011   .     S
N152   Zn162   2.011   .     S
O153   Zn161   1.986   .     S
O154   Zn162   1.986   .     S
O155   Zn162   1.991   .     S
O156   Zn161   1.991   .     S
O157   Zn161   1.964   .     S
O158   Zn162   1.964   .     S
O159   Zn162   1.980   .     S
O160   Zn161   1.980   .     S
C163   H169    1.112   .     S
C163   C164    1.526   .     S
C163   H168    1.110   .     S
C164   H165    1.111   .     S
C164   H166    1.108   .     S
C164   H167    1.110   .     S
C170   H176    1.109   .     S
C170   C171    1.528   .     S
C170   H175    1.112   .     S
C171   H172    1.107   .     S
C171   H173    1.110   .     S
C171   H174    1.111   .     S
O177   C178    1.413   .     S
C178   H179    1.115   .     S
C178   C181    1.520   .     S
C178   H756    1.113   .     S
H180   C1330   1.113   1_554 S
C181   H182    1.111   .     S
C181   H184    1.110   .     S
C181   H55     1.111   1_655 S
O185   C186    1.413   .     S
C186   C189    1.522   .     S
C186   H187    1.115   .     S
C186   H1340   1.112   1_554 S
H188   C762    1.112   .     S
C189   H192    1.110   .     S
C189   H190    1.111   .     S
C189   H191    1.111   .     S
C193   O217    1.281   .     A
C193   C204    1.409   .     S
C193   O219    1.280   .     A
C194   C203    1.412   .     S
C194   O218    1.282   .     A
C194   O220    1.280   .     A
C195   O223    1.281   .     A
C195   O221    1.277   .     A
C195   C197    1.402   .     S
C196   O224    1.282   .     A
C196   C198    1.402   .     S
C196   O222    1.276   .     A
C197   C326    1.332   1_455 S
C197   H337    1.088   1_455 S
C198   C261    1.332   .     S
C198   H274    1.088   .     S
C199   C204    1.406   .     A
C199   C227    1.518   .     S
C200   C203    1.408   .     A
C200   C234    1.517   .     S
C200   C394    1.376   .     S
C201   C203    1.396   .     A
C201   H211    1.086   .     S
C201   C391    1.378   .     S
C202   C204    1.393   .     A
C202   H212    1.086   .     S
C205   H213    1.082   .     S
C205   N216    1.362   .     A
C205   C1359   1.422   1_554 S
C206   N215    1.365   .     A
C206   H214    1.080   .     S
C206   C784    1.436   .     S
C207   N215    1.370   .     A
C207   O241    1.382   .     S
C207   C781    1.422   .     S
C208   N216    1.371   .     A
C208   O249    1.393   .     S
C208   C1358   1.436   1_554 S
H209   C261    1.088   .     S
H210   C326    1.088   1_455 S
N215   Zn225   2.011   .     S
N216   Zn226   2.011   .     S
O217   Zn225   1.986   .     S
O218   Zn226   1.986   .     S
O219   Zn226   1.991   .     S
O220   Zn225   1.991   .     S
O221   Zn225   1.964   .     S
O222   Zn226   1.964   .     S
O223   Zn226   1.980   .     S
O224   Zn225   1.980   .     S
C227   H233    1.112   .     S
C227   C228    1.526   .     S
C227   H232    1.110   .     S
C228   H229    1.111   .     S
C228   H230    1.108   .     S
C228   H231    1.110   .     S
C234   H240    1.109   .     S
C234   C235    1.528   .     S
C234   H239    1.112   .     S
C235   H236    1.107   .     S
C235   H237    1.110   .     S
C235   H238    1.111   .     S
O241   C242    1.413   .     S
C242   H243    1.115   .     S
C242   C245    1.520   .     S
C242   H820    1.113   .     S
H244   C1394   1.113   1_554 S
C245   H246    1.111   .     S
C245   H248    1.110   .     S
C245   H311    1.111   .     S
H247   C373    1.111   1_455 S
O249   C250    1.413   .     S
C250   C253    1.522   .     S
C250   H251    1.115   .     S
C250   H1404   1.112   1_554 S
H252   C826    1.112   .     S
C253   H256    1.110   .     S
C253   H254    1.111   .     S
C253   H255    1.111   .     S
C257   O281    1.281   .     A
C257   C268    1.409   .     S
C257   O283    1.280   .     A
C258   C267    1.412   .     S
C258   O282    1.282   .     A
C258   O284    1.280   .     A
C259   O287    1.281   .     A
C259   O285    1.277   .     A
C259   C261    1.402   .     S
C260   O288    1.282   .     A
C260   C262    1.402   .     S
C260   O286    1.276   .     A
C262   C325    1.332   .     S
C262   H338    1.088   .     S
C263   C268    1.406   .     A
C263   C291    1.518   .     S
C264   C267    1.408   .     A
C264   C298    1.517   .     S
C264   C458    1.376   .     S
C265   C267    1.396   .     A
C265   H275    1.086   .     S
C265   C455    1.378   .     S
C266   C268    1.393   .     A
C266   H276    1.086   .     S
C269   H277    1.082   .     S
C269   N280    1.362   .     A
C269   C1423   1.422   1_554 S
C270   N279    1.365   .     A
C270   H278    1.080   .     S
C270   C848    1.436   .     S
C271   N279    1.370   .     A
C271   O305    1.382   .     S
C271   C845    1.422   .     S
C272   N280    1.371   .     A
C272   O313    1.393   .     S
C272   C1422   1.436   1_554 S
H273   C325    1.088   .     S
N279   Zn289   2.011   .     S
N280   Zn290   2.011   .     S
O281   Zn289   1.986   .     S
O282   Zn290   1.986   .     S
O283   Zn290   1.991   .     S
O284   Zn289   1.991   .     S
O285   Zn289   1.964   .     S
O286   Zn290   1.964   .     S
O287   Zn290   1.980   .     S
O288   Zn289   1.980   .     S
C291   H297    1.112   .     S
C291   C292    1.526   .     S
C291   H296    1.110   .     S
C292   H293    1.111   .     S
C292   H294    1.108   .     S
C292   H295    1.110   .     S
C298   H304    1.109   .     S
C298   C299    1.528   .     S
C298   H303    1.112   .     S
C299   H300    1.107   .     S
C299   H301    1.110   .     S
C299   H302    1.111   .     S
O305   C306    1.413   .     S
C306   H307    1.115   .     S
C306   C309    1.520   .     S
C306   H884    1.113   .     S
H308   C1458   1.113   1_554 S
C309   H310    1.111   .     S
C309   H312    1.110   .     S
C309   H375    1.111   .     S
O313   C314    1.413   .     S
C314   C317    1.522   .     S
C314   H315    1.115   .     S
C314   H1468   1.112   1_554 S
H316   C890    1.112   .     S
C317   H320    1.110   .     S
C317   H318    1.111   .     S
C317   H319    1.111   .     S
C321   O345    1.281   .     A
C321   C332    1.409   .     S
C321   O347    1.280   .     A
C322   C331    1.412   .     S
C322   O346    1.282   .     A
C322   O348    1.280   .     A
C323   O351    1.281   .     A
C323   O349    1.277   .     A
C323   C325    1.402   .     S
C324   O352    1.282   .     A
C324   C326    1.402   .     S
C324   O350    1.276   .     A
C326   C197    1.332   1_655 S
C326   H210    1.088   1_655 S
C327   C332    1.406   .     A
C327   C355    1.518   .     S
C328   C331    1.408   .     A
C328   C362    1.517   .     S
C328   C522    1.376   .     S
C329   C331    1.396   .     A
C329   H339    1.086   .     S
C329   C519    1.378   .     S
C330   C332    1.393   .     A
C330   H340    1.086   .     S
C333   H341    1.082   .     S
C333   N344    1.362   .     A
C333   C1487   1.422   1_554 S
C334   N343    1.365   .     A
C334   H342    1.080   .     S
C334   C912    1.436   .     S
C335   N343    1.370   .     A
C335   O369    1.382   .     S
C335   C909    1.422   .     S
C336   N344    1.371   .     A
C336   O377    1.393   .     S
C336   C1486   1.436   1_554 S
H337   C197    1.088   1_655 S
N343   Zn353   2.011   .     S
N344   Zn354   2.011   .     S
O345   Zn353   1.986   .     S
O346   Zn354   1.986   .     S
O347   Zn354   1.991   .     S
O348   Zn353   1.991   .     S
O349   Zn353   1.964   .     S
O350   Zn354   1.964   .     S
O351   Zn354   1.980   .     S
O352   Zn353   1.980   .     S
C355   H361    1.112   .     S
C355   C356    1.526   .     S
C355   H360    1.110   .     S
C356   H357    1.111   .     S
C356   H358    1.108   .     S
C356   H359    1.110   .     S
C362   H368    1.109   .     S
C362   C363    1.528   .     S
C362   H367    1.112   .     S
C363   H364    1.107   .     S
C363   H365    1.110   .     S
C363   H366    1.111   .     S
O369   C370    1.413   .     S
C370   H371    1.115   .     S
C370   C373    1.520   .     S
C370   H948    1.113   .     S
H372   C1522   1.113   1_554 S
C373   H374    1.111   .     S
C373   H376    1.110   .     S
C373   H247    1.111   1_655 S
O377   C378    1.413   .     S
C378   C381    1.522   .     S
C378   H379    1.115   .     S
C378   H1532   1.112   1_554 S
H380   C954    1.112   .     S
C381   H384    1.110   .     S
C381   H382    1.111   .     S
C381   H383    1.111   .     S
C385   O409    1.281   .     A
C385   C396    1.409   .     S
C385   O411    1.280   .     A
C386   C395    1.412   .     S
C386   O410    1.282   .     A
C386   O412    1.280   .     A
C387   O415    1.281   .     A
C387   O413    1.277   .     A
C387   C389    1.402   .     S
C388   O416    1.282   .     A
C388   C390    1.402   .     S
C388   O414    1.276   .     A
C389   C518    1.332   1_455 S
C389   H529    1.088   1_455 S
C390   C453    1.332   .     S
C390   H466    1.088   .     S
C391   C396    1.406   .     A
C391   C419    1.518   .     S
C392   C395    1.408   .     A
C392   C426    1.517   .     S
C392   C10     1.376   1_565 S
C393   C395    1.396   .     A
C393   H403    1.086   .     S
C393   C7      1.378   1_565 S
C394   C396    1.393   .     A
C394   H404    1.086   .     S
C397   H405    1.082   .     S
C397   N408    1.362   .     A
C397   C1551   1.422   1_554 S
C398   N407    1.365   .     A
C398   H406    1.080   .     S
C398   C976    1.436   .     S
C399   N407    1.370   .     A
C399   O433    1.382   .     S
C399   C973    1.422   .     S
C400   N408    1.371   .     A
C400   O441    1.393   .     S
C400   C1550   1.436   1_554 S
H401   C453    1.088   .     S
H402   C518    1.088   1_455 S
N407   Zn417   2.011   .     S
N408   Zn418   2.011   .     S
O409   Zn417   1.986   .     S
O410   Zn418   1.986   .     S
O411   Zn418   1.991   .     S
O412   Zn417   1.991   .     S
O413   Zn417   1.964   .     S
O414   Zn418   1.964   .     S
O415   Zn418   1.980   .     S
O416   Zn417   1.980   .     S
C419   H425    1.112   .     S
C419   C420    1.526   .     S
C419   H424    1.110   .     S
C420   H421    1.111   .     S
C420   H422    1.108   .     S
C420   H423    1.110   .     S
C426   H432    1.109   .     S
C426   C427    1.528   .     S
C426   H431    1.112   .     S
C427   H428    1.107   .     S
C427   H429    1.110   .     S
C427   H430    1.111   .     S
O433   C434    1.413   .     S
C434   H435    1.115   .     S
C434   C437    1.520   .     S
C434   H1012   1.113   .     S
H436   C1586   1.113   1_554 S
C437   H438    1.111   .     S
C437   H440    1.110   .     S
C437   H503    1.111   .     S
H439   C565    1.111   1_455 S
O441   C442    1.413   .     S
C442   C445    1.522   .     S
C442   H443    1.115   .     S
C442   H1596   1.112   1_554 S
H444   C1018   1.112   .     S
C445   H448    1.110   .     S
C445   H446    1.111   .     S
C445   H447    1.111   .     S
C449   O473    1.281   .     A
C449   C460    1.409   .     S
C449   O475    1.280   .     A
C450   C459    1.412   .     S
C450   O474    1.282   .     A
C450   O476    1.280   .     A
C451   O479    1.281   .     A
C451   O477    1.277   .     A
C451   C453    1.402   .     S
C452   O480    1.282   .     A
C452   C454    1.402   .     S
C452   O478    1.276   .     A
C454   C517    1.332   .     S
C454   H530    1.088   .     S
C455   C460    1.406   .     A
C455   C483    1.518   .     S
C456   C459    1.408   .     A
C456   C490    1.517   .     S
C456   C74     1.376   1_565 S
C457   C459    1.396   .     A
C457   H467    1.086   .     S
C457   C71     1.378   1_565 S
C458   C460    1.393   .     A
C458   H468    1.086   .     S
C461   H469    1.082   .     S
C461   N472    1.362   .     A
C461   C1615   1.422   1_554 S
C462   N471    1.365   .     A
C462   H470    1.080   .     S
C462   C1040   1.436   .     S
C463   N471    1.370   .     A
C463   O497    1.382   .     S
C463   C1037   1.422   .     S
C464   N472    1.371   .     A
C464   O505    1.393   .     S
C464   C1614   1.436   1_554 S
H465   C517    1.088   .     S
N471   Zn481   2.011   .     S
N472   Zn482   2.011   .     S
O473   Zn481   1.986   .     S
O474   Zn482   1.986   .     S
O475   Zn482   1.991   .     S
O476   Zn481   1.991   .     S
O477   Zn481   1.964   .     S
O478   Zn482   1.964   .     S
O479   Zn482   1.980   .     S
O480   Zn481   1.980   .     S
C483   H489    1.112   .     S
C483   C484    1.526   .     S
C483   H488    1.110   .     S
C484   H485    1.111   .     S
C484   H486    1.108   .     S
C484   H487    1.110   .     S
C490   H496    1.109   .     S
C490   C491    1.528   .     S
C490   H495    1.112   .     S
C491   H492    1.107   .     S
C491   H493    1.110   .     S
C491   H494    1.111   .     S
O497   C498    1.413   .     S
C498   H499    1.115   .     S
C498   C501    1.520   .     S
C498   H1076   1.113   .     S
H500   C1650   1.113   1_554 S
C501   H502    1.111   .     S
C501   H504    1.110   .     S
C501   H567    1.111   .     S
O505   C506    1.413   .     S
C506   C509    1.522   .     S
C506   H507    1.115   .     S
C506   H1660   1.112   1_554 S
H508   C1082   1.112   .     S
C509   H512    1.110   .     S
C509   H510    1.111   .     S
C509   H511    1.111   .     S
C513   O537    1.281   .     A
C513   C524    1.409   .     S
C513   O539    1.280   .     A
C514   C523    1.412   .     S
C514   O538    1.282   .     A
C514   O540    1.280   .     A
C515   O543    1.281   .     A
C515   O541    1.277   .     A
C515   C517    1.402   .     S
C516   O544    1.282   .     A
C516   C518    1.402   .     S
C516   O542    1.276   .     A
C518   C389    1.332   1_655 S
C518   H402    1.088   1_655 S
C519   C524    1.406   .     A
C519   C547    1.518   .     S
C520   C523    1.408   .     A
C520   C554    1.517   .     S
C520   C138    1.376   1_565 S
C521   C523    1.396   .     A
C521   H531    1.086   .     S
C521   C135    1.378   1_565 S
C522   C524    1.393   .     A
C522   H532    1.086   .     S
C525   H533    1.082   .     S
C525   N536    1.362   .     A
C525   C1679   1.422   1_554 S
C526   N535    1.365   .     A
C526   H534    1.080   .     S
C526   C1104   1.436   .     S
C527   N535    1.370   .     A
C527   O561    1.382   .     S
C527   C1101   1.422   .     S
C528   N536    1.371   .     A
C528   O569    1.393   .     S
C528   C1678   1.436   1_554 S
H529   C389    1.088   1_655 S
N535   Zn545   2.011   .     S
N536   Zn546   2.011   .     S
O537   Zn545   1.986   .     S
O538   Zn546   1.986   .     S
O539   Zn546   1.991   .     S
O540   Zn545   1.991   .     S
O541   Zn545   1.964   .     S
O542   Zn546   1.964   .     S
O543   Zn546   1.980   .     S
O544   Zn545   1.980   .     S
C547   H553    1.112   .     S
C547   C548    1.526   .     S
C547   H552    1.110   .     S
C548   H549    1.111   .     S
C548   H550    1.108   .     S
C548   H551    1.110   .     S
C554   H560    1.109   .     S
C554   C555    1.528   .     S
C554   H559    1.112   .     S
C555   H556    1.107   .     S
C555   H557    1.110   .     S
C555   H558    1.111   .     S
O561   C562    1.413   .     S
C562   H563    1.115   .     S
C562   C565    1.520   .     S
C562   H1140   1.113   .     S
H564   C1714   1.113   1_554 S
C565   H566    1.111   .     S
C565   H568    1.110   .     S
C565   H439    1.111   1_655 S
O569   C570    1.413   .     S
C570   C573    1.522   .     S
C570   H571    1.115   .     S
C570   H1724   1.112   1_554 S
H572   C1146   1.112   .     S
C573   H576    1.110   .     S
C573   H574    1.111   .     S
C573   H575    1.111   .     S
C577   O601    1.281   .     A
C577   C588    1.409   .     S
C577   O603    1.280   .     A
C578   C587    1.412   .     S
C578   O602    1.282   .     A
C578   O604    1.280   .     A
C579   O607    1.281   .     A
C579   O605    1.277   .     A
C579   C581    1.402   .     S
C580   O608    1.282   .     A
C580   C582    1.402   .     S
C580   O606    1.276   .     A
C581   C710    1.332   1_455 S
C581   H721    1.088   1_455 S
C582   C645    1.332   .     S
C582   H658    1.088   .     S
C583   C588    1.406   .     A
C583   C611    1.518   .     S
C583   C969    1.378   1_545 S
C584   C587    1.408   .     A
C584   C618    1.517   .     S
C584   C778    1.376   .     S
C585   C587    1.396   .     A
C585   H595    1.086   .     S
C585   C775    1.378   .     S
C586   C588    1.393   .     A
C586   H596    1.086   .     S
C586   C968    1.376   1_545 S
C589   H597    1.082   .     S
C589   N600    1.362   .     A
C590   N599    1.365   .     A
C590   H598    1.080   .     S
C590   C1168   1.436   .     S
C591   N599    1.370   .     A
C591   O625    1.382   .     S
C591   C1165   1.422   .     S
C592   N600    1.371   .     A
C592   O633    1.393   .     S
H593   C645    1.088   .     S
H594   C710    1.088   1_455 S
N599   Zn609   2.011   .     S
N600   Zn610   2.011   .     S
O601   Zn609   1.986   .     S
O602   Zn610   1.986   .     S
O603   Zn610   1.991   .     S
O604   Zn609   1.991   .     S
O605   Zn609   1.964   .     S
O606   Zn610   1.964   .     S
O607   Zn610   1.980   .     S
O608   Zn609   1.980   .     S
C611   H617    1.112   .     S
C611   C612    1.526   .     S
C611   H616    1.110   .     S
C612   H613    1.111   .     S
C612   H614    1.108   .     S
C612   H615    1.110   .     S
C618   H624    1.109   .     S
C618   C619    1.528   .     S
C618   H623    1.112   .     S
C619   H620    1.107   .     S
C619   H621    1.110   .     S
C619   H622    1.111   .     S
O625   C626    1.413   .     S
C626   H627    1.115   .     S
C626   C629    1.520   .     S
C626   H1204   1.113   .     S
C629   H630    1.111   .     S
C629   H632    1.110   .     S
C629   H695    1.111   .     S
H631   C757    1.111   1_455 S
O633   C634    1.413   .     S
C634   C637    1.522   .     S
C634   H635    1.115   .     S
H636   C1210   1.112   .     S
C637   H640    1.110   .     S
C637   H638    1.111   .     S
C637   H639    1.111   .     S
C641   O665    1.281   .     A
C641   C652    1.409   .     S
C641   O667    1.280   .     A
C642   C651    1.412   .     S
C642   O666    1.282   .     A
C642   O668    1.280   .     A
C643   O671    1.281   .     A
C643   O669    1.277   .     A
C643   C645    1.402   .     S
C644   O672    1.282   .     A
C644   C646    1.402   .     S
C644   O670    1.276   .     A
C646   C709    1.332   .     S
C646   H722    1.088   .     S
C647   C652    1.406   .     A
C647   C675    1.518   .     S
C647   C1033   1.378   1_545 S
C648   C651    1.408   .     A
C648   C682    1.517   .     S
C648   C842    1.376   .     S
C649   C651    1.396   .     A
C649   H659    1.086   .     S
C649   C839    1.378   .     S
C650   C652    1.393   .     A
C650   H660    1.086   .     S
C650   C1032   1.376   1_545 S
C653   H661    1.082   .     S
C653   N664    1.362   .     A
C654   N663    1.365   .     A
C654   H662    1.080   .     S
C654   C1232   1.436   .     S
C655   N663    1.370   .     A
C655   O689    1.382   .     S
C655   C1229   1.422   .     S
C656   N664    1.371   .     A
C656   O697    1.393   .     S
H657   C709    1.088   .     S
N663   Zn673   2.011   .     S
N664   Zn674   2.011   .     S
O665   Zn673   1.986   .     S
O666   Zn674   1.986   .     S
O667   Zn674   1.991   .     S
O668   Zn673   1.991   .     S
O669   Zn673   1.964   .     S
O670   Zn674   1.964   .     S
O671   Zn674   1.980   .     S
O672   Zn673   1.980   .     S
C675   H681    1.112   .     S
C675   C676    1.526   .     S
C675   H680    1.110   .     S
C676   H677    1.111   .     S
C676   H678    1.108   .     S
C676   H679    1.110   .     S
C682   H688    1.109   .     S
C682   C683    1.528   .     S
C682   H687    1.112   .     S
C683   H684    1.107   .     S
C683   H685    1.110   .     S
C683   H686    1.111   .     S
O689   C690    1.413   .     S
C690   H691    1.115   .     S
C690   C693    1.520   .     S
C690   H1268   1.113   .     S
C693   H694    1.111   .     S
C693   H696    1.110   .     S
C693   H759    1.111   .     S
O697   C698    1.413   .     S
C698   C701    1.522   .     S
C698   H699    1.115   .     S
H700   C1274   1.112   .     S
C701   H704    1.110   .     S
C701   H702    1.111   .     S
C701   H703    1.111   .     S
C705   O729    1.281   .     A
C705   C716    1.409   .     S
C705   O731    1.280   .     A
C706   C715    1.412   .     S
C706   O730    1.282   .     A
C706   O732    1.280   .     A
C707   O735    1.281   .     A
C707   O733    1.277   .     A
C707   C709    1.402   .     S
C708   O736    1.282   .     A
C708   C710    1.402   .     S
C708   O734    1.276   .     A
C710   C581    1.332   1_655 S
C710   H594    1.088   1_655 S
C711   C716    1.406   .     A
C711   C739    1.518   .     S
C711   C1097   1.378   1_545 S
C712   C715    1.408   .     A
C712   C746    1.517   .     S
C712   C906    1.376   .     S
C713   C715    1.396   .     A
C713   H723    1.086   .     S
C713   C903    1.378   .     S
C714   C716    1.393   .     A
C714   H724    1.086   .     S
C714   C1096   1.376   1_545 S
C717   H725    1.082   .     S
C717   N728    1.362   .     A
C718   N727    1.365   .     A
C718   H726    1.080   .     S
C718   C1296   1.436   .     S
C719   N727    1.370   .     A
C719   O753    1.382   .     S
C719   C1293   1.422   .     S
C720   N728    1.371   .     A
C720   O761    1.393   .     S
H721   C581    1.088   1_655 S
N727   Zn737   2.011   .     S
N728   Zn738   2.011   .     S
O729   Zn737   1.986   .     S
O730   Zn738   1.986   .     S
O731   Zn738   1.991   .     S
O732   Zn737   1.991   .     S
O733   Zn737   1.964   .     S
O734   Zn738   1.964   .     S
O735   Zn738   1.980   .     S
O736   Zn737   1.980   .     S
C739   H745    1.112   .     S
C739   C740    1.526   .     S
C739   H744    1.110   .     S
C740   H741    1.111   .     S
C740   H742    1.108   .     S
C740   H743    1.110   .     S
C746   H752    1.109   .     S
C746   C747    1.528   .     S
C746   H751    1.112   .     S
C747   H748    1.107   .     S
C747   H749    1.110   .     S
C747   H750    1.111   .     S
O753   C754    1.413   .     S
C754   H755    1.115   .     S
C754   C757    1.520   .     S
C754   H1332   1.113   .     S
C757   H758    1.111   .     S
C757   H760    1.110   .     S
C757   H631    1.111   1_655 S
O761   C762    1.413   .     S
C762   C765    1.522   .     S
C762   H763    1.115   .     S
H764   C1338   1.112   .     S
C765   H768    1.110   .     S
C765   H766    1.111   .     S
C765   H767    1.111   .     S
C769   O793    1.281   .     A
C769   C780    1.409   .     S
C769   O795    1.280   .     A
C770   C779    1.412   .     S
C770   O794    1.282   .     A
C770   O796    1.280   .     A
C771   O799    1.281   .     A
C771   O797    1.277   .     A
C771   C773    1.402   .     S
C772   O800    1.282   .     A
C772   C774    1.402   .     S
C772   O798    1.276   .     A
C773   C902    1.332   1_455 S
C773   H913    1.088   1_455 S
C774   C837    1.332   .     S
C774   H850    1.088   .     S
C775   C780    1.406   .     A
C775   C803    1.518   .     S
C776   C779    1.408   .     A
C776   C810    1.517   .     S
C776   C970    1.376   .     S
C777   C779    1.396   .     A
C777   H787    1.086   .     S
C777   C967    1.378   .     S
C778   C780    1.393   .     A
C778   H788    1.086   .     S
C781   H789    1.082   .     S
C781   N792    1.362   .     A
C782   N791    1.365   .     A
C782   H790    1.080   .     S
C782   C1360   1.436   .     S
C783   N791    1.370   .     A
C783   O817    1.382   .     S
C783   C1357   1.422   .     S
C784   N792    1.371   .     A
C784   O825    1.393   .     S
H785   C837    1.088   .     S
H786   C902    1.088   1_455 S
N791   Zn801   2.011   .     S
N792   Zn802   2.011   .     S
O793   Zn801   1.986   .     S
O794   Zn802   1.986   .     S
O795   Zn802   1.991   .     S
O796   Zn801   1.991   .     S
O797   Zn801   1.964   .     S
O798   Zn802   1.964   .     S
O799   Zn802   1.980   .     S
O800   Zn801   1.980   .     S
C803   H809    1.112   .     S
C803   C804    1.526   .     S
C803   H808    1.110   .     S
C804   H805    1.111   .     S
C804   H806    1.108   .     S
C804   H807    1.110   .     S
C810   H816    1.109   .     S
C810   C811    1.528   .     S
C810   H815    1.112   .     S
C811   H812    1.107   .     S
C811   H813    1.110   .     S
C811   H814    1.111   .     S
O817   C818    1.413   .     S
C818   H819    1.115   .     S
C818   C821    1.520   .     S
C818   H1396   1.113   .     S
C821   H822    1.111   .     S
C821   H824    1.110   .     S
C821   H887    1.111   .     S
H823   C949    1.111   1_455 S
O825   C826    1.413   .     S
C826   C829    1.522   .     S
C826   H827    1.115   .     S
H828   C1402   1.112   .     S
C829   H832    1.110   .     S
C829   H830    1.111   .     S
C829   H831    1.111   .     S
C833   O857    1.281   .     A
C833   C844    1.409   .     S
C833   O859    1.280   .     A
C834   C843    1.412   .     S
C834   O858    1.282   .     A
C834   O860    1.280   .     A
C835   O863    1.281   .     A
C835   O861    1.277   .     A
C835   C837    1.402   .     S
C836   O864    1.282   .     A
C836   C838    1.402   .     S
C836   O862    1.276   .     A
C838   C901    1.332   .     S
C838   H914    1.088   .     S
C839   C844    1.406   .     A
C839   C867    1.518   .     S
C840   C843    1.408   .     A
C840   C874    1.517   .     S
C840   C1034   1.376   .     S
C841   C843    1.396   .     A
C841   H851    1.086   .     S
C841   C1031   1.378   .     S
C842   C844    1.393   .     A
C842   H852    1.086   .     S
C845   H853    1.082   .     S
C845   N856    1.362   .     A
C846   N855    1.365   .     A
C846   H854    1.080   .     S
C846   C1424   1.436   .     S
C847   N855    1.370   .     A
C847   O881    1.382   .     S
C847   C1421   1.422   .     S
C848   N856    1.371   .     A
C848   O889    1.393   .     S
H849   C901    1.088   .     S
N855   Zn865   2.011   .     S
N856   Zn866   2.011   .     S
O857   Zn865   1.986   .     S
O858   Zn866   1.986   .     S
O859   Zn866   1.991   .     S
O860   Zn865   1.991   .     S
O861   Zn865   1.964   .     S
O862   Zn866   1.964   .     S
O863   Zn866   1.980   .     S
O864   Zn865   1.980   .     S
C867   H873    1.112   .     S
C867   C868    1.526   .     S
C867   H872    1.110   .     S
C868   H869    1.111   .     S
C868   H870    1.108   .     S
C868   H871    1.110   .     S
C874   H880    1.109   .     S
C874   C875    1.528   .     S
C874   H879    1.112   .     S
C875   H876    1.107   .     S
C875   H877    1.110   .     S
C875   H878    1.111   .     S
O881   C882    1.413   .     S
C882   H883    1.115   .     S
C882   C885    1.520   .     S
C882   H1460   1.113   .     S
C885   H886    1.111   .     S
C885   H888    1.110   .     S
C885   H951    1.111   .     S
O889   C890    1.413   .     S
C890   C893    1.522   .     S
C890   H891    1.115   .     S
H892   C1466   1.112   .     S
C893   H896    1.110   .     S
C893   H894    1.111   .     S
C893   H895    1.111   .     S
C897   O921    1.281   .     A
C897   C908    1.409   .     S
C897   O923    1.280   .     A
C898   C907    1.412   .     S
C898   O922    1.282   .     A
C898   O924    1.280   .     A
C899   O927    1.281   .     A
C899   O925    1.277   .     A
C899   C901    1.402   .     S
C900   O928    1.282   .     A
C900   C902    1.402   .     S
C900   O926    1.276   .     A
C902   C773    1.332   1_655 S
C902   H786    1.088   1_655 S
C903   C908    1.406   .     A
C903   C931    1.518   .     S
C904   C907    1.408   .     A
C904   C938    1.517   .     S
C904   C1098   1.376   .     S
C905   C907    1.396   .     A
C905   H915    1.086   .     S
C905   C1095   1.378   .     S
C906   C908    1.393   .     A
C906   H916    1.086   .     S
C909   H917    1.082   .     S
C909   N920    1.362   .     A
C910   N919    1.365   .     A
C910   H918    1.080   .     S
C910   C1488   1.436   .     S
C911   N919    1.370   .     A
C911   O945    1.382   .     S
C911   C1485   1.422   .     S
C912   N920    1.371   .     A
C912   O953    1.393   .     S
H913   C773    1.088   1_655 S
N919   Zn929   2.011   .     S
N920   Zn930   2.011   .     S
O921   Zn929   1.986   .     S
O922   Zn930   1.986   .     S
O923   Zn930   1.991   .     S
O924   Zn929   1.991   .     S
O925   Zn929   1.964   .     S
O926   Zn930   1.964   .     S
O927   Zn930   1.980   .     S
O928   Zn929   1.980   .     S
C931   H937    1.112   .     S
C931   C932    1.526   .     S
C931   H936    1.110   .     S
C932   H933    1.111   .     S
C932   H934    1.108   .     S
C932   H935    1.110   .     S
C938   H944    1.109   .     S
C938   C939    1.528   .     S
C938   H943    1.112   .     S
C939   H940    1.107   .     S
C939   H941    1.110   .     S
C939   H942    1.111   .     S
O945   C946    1.413   .     S
C946   H947    1.115   .     S
C946   C949    1.520   .     S
C946   H1524   1.113   .     S
C949   H950    1.111   .     S
C949   H952    1.110   .     S
C949   H823    1.111   1_655 S
O953   C954    1.413   .     S
C954   C957    1.522   .     S
C954   H955    1.115   .     S
H956   C1530   1.112   .     S
C957   H960    1.110   .     S
C957   H958    1.111   .     S
C957   H959    1.111   .     S
C961   O985    1.281   .     A
C961   C972    1.409   .     S
C961   O987    1.280   .     A
C962   C971    1.412   .     S
C962   O986    1.282   .     A
C962   O988    1.280   .     A
C963   O991    1.281   .     A
C963   O989    1.277   .     A
C963   C965    1.402   .     S
C964   O992    1.282   .     A
C964   C966    1.402   .     S
C964   O990    1.276   .     A
C965   C1094   1.332   1_455 S
C965   H1105   1.088   1_455 S
C966   C1029   1.332   .     S
C966   H1042   1.088   .     S
C967   C972    1.406   .     A
C967   C995    1.518   .     S
C968   C971    1.408   .     A
C968   C1002   1.517   .     S
C968   C586    1.376   1_565 S
C969   C971    1.396   .     A
C969   H979    1.086   .     S
C969   C583    1.378   1_565 S
C970   C972    1.393   .     A
C970   H980    1.086   .     S
C973   H981    1.082   .     S
C973   N984    1.362   .     A
C974   N983    1.365   .     A
C974   H982    1.080   .     S
C974   C1552   1.436   .     S
C975   N983    1.370   .     A
C975   O1009   1.382   .     S
C975   C1549   1.422   .     S
C976   N984    1.371   .     A
C976   O1017   1.393   .     S
H977   C1029   1.088   .     S
H978   C1094   1.088   1_455 S
N983   Zn993   2.011   .     S
N984   Zn994   2.011   .     S
O985   Zn993   1.986   .     S
O986   Zn994   1.986   .     S
O987   Zn994   1.991   .     S
O988   Zn993   1.991   .     S
O989   Zn993   1.964   .     S
O990   Zn994   1.964   .     S
O991   Zn994   1.980   .     S
O992   Zn993   1.980   .     S
C995   H1001   1.112   .     S
C995   C996    1.526   .     S
C995   H1000   1.110   .     S
C996   H997    1.111   .     S
C996   H998    1.108   .     S
C996   H999    1.110   .     S
C1002  H1008   1.109   .     S
C1002  C1003   1.528   .     S
C1002  H1007   1.112   .     S
C1003  H1004   1.107   .     S
C1003  H1005   1.110   .     S
C1003  H1006   1.111   .     S
O1009  C1010   1.413   .     S
C1010  H1011   1.115   .     S
C1010  C1013   1.520   .     S
C1010  H1588   1.113   .     S
C1013  H1014   1.111   .     S
C1013  H1016   1.110   .     S
C1013  H1079   1.111   .     S
H1015  C1141   1.111   1_455 S
O1017  C1018   1.413   .     S
C1018  C1021   1.522   .     S
C1018  H1019   1.115   .     S
H1020  C1594   1.112   .     S
C1021  H1024   1.110   .     S
C1021  H1022   1.111   .     S
C1021  H1023   1.111   .     S
C1025  O1049   1.281   .     A
C1025  C1036   1.409   .     S
C1025  O1051   1.280   .     A
C1026  C1035   1.412   .     S
C1026  O1050   1.282   .     A
C1026  O1052   1.280   .     A
C1027  O1055   1.281   .     A
C1027  O1053   1.277   .     A
C1027  C1029   1.402   .     S
C1028  O1056   1.282   .     A
C1028  C1030   1.402   .     S
C1028  O1054   1.276   .     A
C1030  C1093   1.332   .     S
C1030  H1106   1.088   .     S
C1031  C1036   1.406   .     A
C1031  C1059   1.518   .     S
C1032  C1035   1.408   .     A
C1032  C1066   1.517   .     S
C1032  C650    1.376   1_565 S
C1033  C1035   1.396   .     A
C1033  H1043   1.086   .     S
C1033  C647    1.378   1_565 S
C1034  C1036   1.393   .     A
C1034  H1044   1.086   .     S
C1037  H1045   1.082   .     S
C1037  N1048   1.362   .     A
C1038  N1047   1.365   .     A
C1038  H1046   1.080   .     S
C1038  C1616   1.436   .     S
C1039  N1047   1.370   .     A
C1039  O1073   1.382   .     S
C1039  C1613   1.422   .     S
C1040  N1048   1.371   .     A
C1040  O1081   1.393   .     S
H1041  C1093   1.088   .     S
N1047  Zn1057  2.011   .     S
N1048  Zn1058  2.011   .     S
O1049  Zn1057  1.986   .     S
O1050  Zn1058  1.986   .     S
O1051  Zn1058  1.991   .     S
O1052  Zn1057  1.991   .     S
O1053  Zn1057  1.964   .     S
O1054  Zn1058  1.964   .     S
O1055  Zn1058  1.980   .     S
O1056  Zn1057  1.980   .     S
C1059  H1065   1.112   .     S
C1059  C1060   1.526   .     S
C1059  H1064   1.110   .     S
C1060  H1061   1.111   .     S
C1060  H1062   1.108   .     S
C1060  H1063   1.110   .     S
C1066  H1072   1.109   .     S
C1066  C1067   1.528   .     S
C1066  H1071   1.112   .     S
C1067  H1068   1.107   .     S
C1067  H1069   1.110   .     S
C1067  H1070   1.111   .     S
O1073  C1074   1.413   .     S
C1074  H1075   1.115   .     S
C1074  C1077   1.520   .     S
C1074  H1652   1.113   .     S
C1077  H1078   1.111   .     S
C1077  H1080   1.110   .     S
C1077  H1143   1.111   .     S
O1081  C1082   1.413   .     S
C1082  C1085   1.522   .     S
C1082  H1083   1.115   .     S
H1084  C1658   1.112   .     S
C1085  H1088   1.110   .     S
C1085  H1086   1.111   .     S
C1085  H1087   1.111   .     S
C1089  O1113   1.281   .     A
C1089  C1100   1.409   .     S
C1089  O1115   1.280   .     A
C1090  C1099   1.412   .     S
C1090  O1114   1.282   .     A
C1090  O1116   1.280   .     A
C1091  O1119   1.281   .     A
C1091  O1117   1.277   .     A
C1091  C1093   1.402   .     S
C1092  O1120   1.282   .     A
C1092  C1094   1.402   .     S
C1092  O1118   1.276   .     A
C1094  C965    1.332   1_655 S
C1094  H978    1.088   1_655 S
C1095  C1100   1.406   .     A
C1095  C1123   1.518   .     S
C1096  C1099   1.408   .     A
C1096  C1130   1.517   .     S
C1096  C714    1.376   1_565 S
C1097  C1099   1.396   .     A
C1097  H1107   1.086   .     S
C1097  C711    1.378   1_565 S
C1098  C1100   1.393   .     A
C1098  H1108   1.086   .     S
C1101  H1109   1.082   .     S
C1101  N1112   1.362   .     A
C1102  N1111   1.365   .     A
C1102  H1110   1.080   .     S
C1102  C1680   1.436   .     S
C1103  N1111   1.370   .     A
C1103  O1137   1.382   .     S
C1103  C1677   1.422   .     S
C1104  N1112   1.371   .     A
C1104  O1145   1.393   .     S
H1105  C965    1.088   1_655 S
N1111  Zn1121  2.011   .     S
N1112  Zn1122  2.011   .     S
O1113  Zn1121  1.986   .     S
O1114  Zn1122  1.986   .     S
O1115  Zn1122  1.991   .     S
O1116  Zn1121  1.991   .     S
O1117  Zn1121  1.964   .     S
O1118  Zn1122  1.964   .     S
O1119  Zn1122  1.980   .     S
O1120  Zn1121  1.980   .     S
C1123  H1129   1.112   .     S
C1123  C1124   1.526   .     S
C1123  H1128   1.110   .     S
C1124  H1125   1.111   .     S
C1124  H1126   1.108   .     S
C1124  H1127   1.110   .     S
C1130  H1136   1.109   .     S
C1130  C1131   1.528   .     S
C1130  H1135   1.112   .     S
C1131  H1132   1.107   .     S
C1131  H1133   1.110   .     S
C1131  H1134   1.111   .     S
O1137  C1138   1.413   .     S
C1138  H1139   1.115   .     S
C1138  C1141   1.520   .     S
C1138  H1716   1.113   .     S
C1141  H1142   1.111   .     S
C1141  H1144   1.110   .     S
C1141  H1015   1.111   1_655 S
O1145  C1146   1.413   .     S
C1146  C1149   1.522   .     S
C1146  H1147   1.115   .     S
H1148  C1722   1.112   .     S
C1149  H1152   1.110   .     S
C1149  H1150   1.111   .     S
C1149  H1151   1.111   .     S
C1153  O1177   1.281   .     A
C1153  C1164   1.409   .     S
C1153  O1179   1.280   .     A
C1154  C1163   1.412   .     S
C1154  O1178   1.282   .     A
C1154  O1180   1.280   .     A
C1155  O1183   1.281   .     A
C1155  O1181   1.277   .     A
C1155  C1157   1.402   .     S
C1156  O1184   1.282   .     A
C1156  C1158   1.402   .     S
C1156  O1182   1.276   .     A
C1157  C1286   1.332   1_455 S
C1157  H1297   1.088   1_455 S
C1158  C1221   1.332   .     S
C1158  H1234   1.088   .     S
C1159  C1164   1.406   .     A
C1159  C1187   1.518   .     S
C1159  C1545   1.378   1_545 S
C1160  C1163   1.408   .     A
C1160  C1194   1.517   .     S
C1160  C1354   1.376   .     S
C1161  C1163   1.396   .     A
C1161  H1171   1.086   .     S
C1161  C1351   1.378   .     S
C1162  C1164   1.393   .     A
C1162  H1172   1.086   .     S
C1162  C1544   1.376   1_545 S
C1165  H1173   1.082   .     S
C1165  N1176   1.362   .     A
C1166  N1175   1.365   .     A
C1166  H1174   1.080   .     S
C1166  C16     1.436   1_556 S
C1167  N1175   1.370   .     A
C1167  O1201   1.382   .     S
C1167  C13     1.422   1_556 S
C1168  N1176   1.371   .     A
C1168  O1209   1.393   .     S
H1169  C1221   1.088   .     S
H1170  C1286   1.088   1_455 S
N1175  Zn1185  2.011   .     S
N1176  Zn1186  2.011   .     S
O1177  Zn1185  1.986   .     S
O1178  Zn1186  1.986   .     S
O1179  Zn1186  1.991   .     S
O1180  Zn1185  1.991   .     S
O1181  Zn1185  1.964   .     S
O1182  Zn1186  1.964   .     S
O1183  Zn1186  1.980   .     S
O1184  Zn1185  1.980   .     S
C1187  H1193   1.112   .     S
C1187  C1188   1.526   .     S
C1187  H1192   1.110   .     S
C1188  H1189   1.111   .     S
C1188  H1190   1.108   .     S
C1188  H1191   1.110   .     S
C1194  H1200   1.109   .     S
C1194  C1195   1.528   .     S
C1194  H1199   1.112   .     S
C1195  H1196   1.107   .     S
C1195  H1197   1.110   .     S
C1195  H1198   1.111   .     S
O1201  C1202   1.413   .     S
C1202  H1203   1.115   .     S
C1202  C1205   1.520   .     S
C1202  H52     1.113   1_556 S
C1205  H1206   1.111   .     S
C1205  H1208   1.110   .     S
C1205  H1271   1.111   .     S
H1207  C1333   1.111   1_455 S
O1209  C1210   1.413   .     S
C1210  C1213   1.522   .     S
C1210  H1211   1.115   .     S
H1212  C58     1.112   1_556 S
C1213  H1216   1.110   .     S
C1213  H1214   1.111   .     S
C1213  H1215   1.111   .     S
C1217  O1241   1.281   .     A
C1217  C1228   1.409   .     S
C1217  O1243   1.280   .     A
C1218  C1227   1.412   .     S
C1218  O1242   1.282   .     A
C1218  O1244   1.280   .     A
C1219  O1247   1.281   .     A
C1219  O1245   1.277   .     A
C1219  C1221   1.402   .     S
C1220  O1248   1.282   .     A
C1220  C1222   1.402   .     S
C1220  O1246   1.276   .     A
C1222  C1285   1.332   .     S
C1222  H1298   1.088   .     S
C1223  C1228   1.406   .     A
C1223  C1251   1.518   .     S
C1223  C1609   1.378   1_545 S
C1224  C1227   1.408   .     A
C1224  C1258   1.517   .     S
C1224  C1418   1.376   .     S
C1225  C1227   1.396   .     A
C1225  H1235   1.086   .     S
C1225  C1415   1.378   .     S
C1226  C1228   1.393   .     A
C1226  H1236   1.086   .     S
C1226  C1608   1.376   1_545 S
C1229  H1237   1.082   .     S
C1229  N1240   1.362   .     A
C1230  N1239   1.365   .     A
C1230  H1238   1.080   .     S
C1230  C80     1.436   1_556 S
C1231  N1239   1.370   .     A
C1231  O1265   1.382   .     S
C1231  C77     1.422   1_556 S
C1232  N1240   1.371   .     A
C1232  O1273   1.393   .     S
H1233  C1285   1.088   .     S
N1239  Zn1249  2.011   .     S
N1240  Zn1250  2.011   .     S
O1241  Zn1249  1.986   .     S
O1242  Zn1250  1.986   .     S
O1243  Zn1250  1.991   .     S
O1244  Zn1249  1.991   .     S
O1245  Zn1249  1.964   .     S
O1246  Zn1250  1.964   .     S
O1247  Zn1250  1.980   .     S
O1248  Zn1249  1.980   .     S
C1251  H1257   1.112   .     S
C1251  C1252   1.526   .     S
C1251  H1256   1.110   .     S
C1252  H1253   1.111   .     S
C1252  H1254   1.108   .     S
C1252  H1255   1.110   .     S
C1258  H1264   1.109   .     S
C1258  C1259   1.528   .     S
C1258  H1263   1.112   .     S
C1259  H1260   1.107   .     S
C1259  H1261   1.110   .     S
C1259  H1262   1.111   .     S
O1265  C1266   1.413   .     S
C1266  H1267   1.115   .     S
C1266  C1269   1.520   .     S
C1266  H116    1.113   1_556 S
C1269  H1270   1.111   .     S
C1269  H1272   1.110   .     S
C1269  H1335   1.111   .     S
O1273  C1274   1.413   .     S
C1274  C1277   1.522   .     S
C1274  H1275   1.115   .     S
H1276  C122    1.112   1_556 S
C1277  H1280   1.110   .     S
C1277  H1278   1.111   .     S
C1277  H1279   1.111   .     S
C1281  O1305   1.281   .     A
C1281  C1292   1.409   .     S
C1281  O1307   1.280   .     A
C1282  C1291   1.412   .     S
C1282  O1306   1.282   .     A
C1282  O1308   1.280   .     A
C1283  O1311   1.281   .     A
C1283  O1309   1.277   .     A
C1283  C1285   1.402   .     S
C1284  O1312   1.282   .     A
C1284  C1286   1.402   .     S
C1284  O1310   1.276   .     A
C1286  C1157   1.332   1_655 S
C1286  H1170   1.088   1_655 S
C1287  C1292   1.406   .     A
C1287  C1315   1.518   .     S
C1287  C1673   1.378   1_545 S
C1288  C1291   1.408   .     A
C1288  C1322   1.517   .     S
C1288  C1482   1.376   .     S
C1289  C1291   1.396   .     A
C1289  H1299   1.086   .     S
C1289  C1479   1.378   .     S
C1290  C1292   1.393   .     A
C1290  H1300   1.086   .     S
C1290  C1672   1.376   1_545 S
C1293  H1301   1.082   .     S
C1293  N1304   1.362   .     A
C1294  N1303   1.365   .     A
C1294  H1302   1.080   .     S
C1294  C144    1.436   1_556 S
C1295  N1303   1.370   .     A
C1295  O1329   1.382   .     S
C1295  C141    1.422   1_556 S
C1296  N1304   1.371   .     A
C1296  O1337   1.393   .     S
H1297  C1157   1.088   1_655 S
N1303  Zn1313  2.011   .     S
N1304  Zn1314  2.011   .     S
O1305  Zn1313  1.986   .     S
O1306  Zn1314  1.986   .     S
O1307  Zn1314  1.991   .     S
O1308  Zn1313  1.991   .     S
O1309  Zn1313  1.964   .     S
O1310  Zn1314  1.964   .     S
O1311  Zn1314  1.980   .     S
O1312  Zn1313  1.980   .     S
C1315  H1321   1.112   .     S
C1315  C1316   1.526   .     S
C1315  H1320   1.110   .     S
C1316  H1317   1.111   .     S
C1316  H1318   1.108   .     S
C1316  H1319   1.110   .     S
C1322  H1328   1.109   .     S
C1322  C1323   1.528   .     S
C1322  H1327   1.112   .     S
C1323  H1324   1.107   .     S
C1323  H1325   1.110   .     S
C1323  H1326   1.111   .     S
O1329  C1330   1.413   .     S
C1330  H1331   1.115   .     S
C1330  C1333   1.520   .     S
C1330  H180    1.113   1_556 S
C1333  H1334   1.111   .     S
C1333  H1336   1.110   .     S
C1333  H1207   1.111   1_655 S
O1337  C1338   1.413   .     S
C1338  C1341   1.522   .     S
C1338  H1339   1.115   .     S
H1340  C186    1.112   1_556 S
C1341  H1344   1.110   .     S
C1341  H1342   1.111   .     S
C1341  H1343   1.111   .     S
C1345  O1369   1.281   .     A
C1345  C1356   1.409   .     S
C1345  O1371   1.280   .     A
C1346  C1355   1.412   .     S
C1346  O1370   1.282   .     A
C1346  O1372   1.280   .     A
C1347  O1375   1.281   .     A
C1347  O1373   1.277   .     A
C1347  C1349   1.402   .     S
C1348  O1376   1.282   .     A
C1348  C1350   1.402   .     S
C1348  O1374   1.276   .     A
C1349  C1478   1.332   1_455 S
C1349  H1489   1.088   1_455 S
C1350  C1413   1.332   .     S
C1350  H1426   1.088   .     S
C1351  C1356   1.406   .     A
C1351  C1379   1.518   .     S
C1352  C1355   1.408   .     A
C1352  C1386   1.517   .     S
C1352  C1546   1.376   .     S
C1353  C1355   1.396   .     A
C1353  H1363   1.086   .     S
C1353  C1543   1.378   .     S
C1354  C1356   1.393   .     A
C1354  H1364   1.086   .     S
C1357  H1365   1.082   .     S
C1357  N1368   1.362   .     A
C1358  N1367   1.365   .     A
C1358  H1366   1.080   .     S
C1358  C208    1.436   1_556 S
C1359  N1367   1.370   .     A
C1359  O1393   1.382   .     S
C1359  C205    1.422   1_556 S
C1360  N1368   1.371   .     A
C1360  O1401   1.393   .     S
H1361  C1413   1.088   .     S
H1362  C1478   1.088   1_455 S
N1367  Zn1377  2.011   .     S
N1368  Zn1378  2.011   .     S
O1369  Zn1377  1.986   .     S
O1370  Zn1378  1.986   .     S
O1371  Zn1378  1.991   .     S
O1372  Zn1377  1.991   .     S
O1373  Zn1377  1.964   .     S
O1374  Zn1378  1.964   .     S
O1375  Zn1378  1.980   .     S
O1376  Zn1377  1.980   .     S
C1379  H1385   1.112   .     S
C1379  C1380   1.526   .     S
C1379  H1384   1.110   .     S
C1380  H1381   1.111   .     S
C1380  H1382   1.108   .     S
C1380  H1383   1.110   .     S
C1386  H1392   1.109   .     S
C1386  C1387   1.528   .     S
C1386  H1391   1.112   .     S
C1387  H1388   1.107   .     S
C1387  H1389   1.110   .     S
C1387  H1390   1.111   .     S
O1393  C1394   1.413   .     S
C1394  H1395   1.115   .     S
C1394  C1397   1.520   .     S
C1394  H244    1.113   1_556 S
C1397  H1398   1.111   .     S
C1397  H1400   1.110   .     S
C1397  H1463   1.111   .     S
H1399  C1525   1.111   1_455 S
O1401  C1402   1.413   .     S
C1402  C1405   1.522   .     S
C1402  H1403   1.115   .     S
H1404  C250    1.112   1_556 S
C1405  H1408   1.110   .     S
C1405  H1406   1.111   .     S
C1405  H1407   1.111   .     S
C1409  O1433   1.281   .     A
C1409  C1420   1.409   .     S
C1409  O1435   1.280   .     A
C1410  C1419   1.412   .     S
C1410  O1434   1.282   .     A
C1410  O1436   1.280   .     A
C1411  O1439   1.281   .     A
C1411  O1437   1.277   .     A
C1411  C1413   1.402   .     S
C1412  O1440   1.282   .     A
C1412  C1414   1.402   .     S
C1412  O1438   1.276   .     A
C1414  C1477   1.332   .     S
C1414  H1490   1.088   .     S
C1415  C1420   1.406   .     A
C1415  C1443   1.518   .     S
C1416  C1419   1.408   .     A
C1416  C1450   1.517   .     S
C1416  C1610   1.376   .     S
C1417  C1419   1.396   .     A
C1417  H1427   1.086   .     S
C1417  C1607   1.378   .     S
C1418  C1420   1.393   .     A
C1418  H1428   1.086   .     S
C1421  H1429   1.082   .     S
C1421  N1432   1.362   .     A
C1422  N1431   1.365   .     A
C1422  H1430   1.080   .     S
C1422  C272    1.436   1_556 S
C1423  N1431   1.370   .     A
C1423  O1457   1.382   .     S
C1423  C269    1.422   1_556 S
C1424  N1432   1.371   .     A
C1424  O1465   1.393   .     S
H1425  C1477   1.088   .     S
N1431  Zn1441  2.011   .     S
N1432  Zn1442  2.011   .     S
O1433  Zn1441  1.986   .     S
O1434  Zn1442  1.986   .     S
O1435  Zn1442  1.991   .     S
O1436  Zn1441  1.991   .     S
O1437  Zn1441  1.964   .     S
O1438  Zn1442  1.964   .     S
O1439  Zn1442  1.980   .     S
O1440  Zn1441  1.980   .     S
C1443  H1449   1.112   .     S
C1443  C1444   1.526   .     S
C1443  H1448   1.110   .     S
C1444  H1445   1.111   .     S
C1444  H1446   1.108   .     S
C1444  H1447   1.110   .     S
C1450  H1456   1.109   .     S
C1450  C1451   1.528   .     S
C1450  H1455   1.112   .     S
C1451  H1452   1.107   .     S
C1451  H1453   1.110   .     S
C1451  H1454   1.111   .     S
O1457  C1458   1.413   .     S
C1458  H1459   1.115   .     S
C1458  C1461   1.520   .     S
C1458  H308    1.113   1_556 S
C1461  H1462   1.111   .     S
C1461  H1464   1.110   .     S
C1461  H1527   1.111   .     S
O1465  C1466   1.413   .     S
C1466  C1469   1.522   .     S
C1466  H1467   1.115   .     S
H1468  C314    1.112   1_556 S
C1469  H1472   1.110   .     S
C1469  H1470   1.111   .     S
C1469  H1471   1.111   .     S
C1473  O1497   1.281   .     A
C1473  C1484   1.409   .     S
C1473  O1499   1.280   .     A
C1474  C1483   1.412   .     S
C1474  O1498   1.282   .     A
C1474  O1500   1.280   .     A
C1475  O1503   1.281   .     A
C1475  O1501   1.277   .     A
C1475  C1477   1.402   .     S
C1476  O1504   1.282   .     A
C1476  C1478   1.402   .     S
C1476  O1502   1.276   .     A
C1478  C1349   1.332   1_655 S
C1478  H1362   1.088   1_655 S
C1479  C1484   1.406   .     A
C1479  C1507   1.518   .     S
C1480  C1483   1.408   .     A
C1480  C1514   1.517   .     S
C1480  C1674   1.376   .     S
C1481  C1483   1.396   .     A
C1481  H1491   1.086   .     S
C1481  C1671   1.378   .     S
C1482  C1484   1.393   .     A
C1482  H1492   1.086   .     S
C1485  H1493   1.082   .     S
C1485  N1496   1.362   .     A
C1486  N1495   1.365   .     A
C1486  H1494   1.080   .     S
C1486  C336    1.436   1_556 S
C1487  N1495   1.370   .     A
C1487  O1521   1.382   .     S
C1487  C333    1.422   1_556 S
C1488  N1496   1.371   .     A
C1488  O1529   1.393   .     S
H1489  C1349   1.088   1_655 S
N1495  Zn1505  2.011   .     S
N1496  Zn1506  2.011   .     S
O1497  Zn1505  1.986   .     S
O1498  Zn1506  1.986   .     S
O1499  Zn1506  1.991   .     S
O1500  Zn1505  1.991   .     S
O1501  Zn1505  1.964   .     S
O1502  Zn1506  1.964   .     S
O1503  Zn1506  1.980   .     S
O1504  Zn1505  1.980   .     S
C1507  H1513   1.112   .     S
C1507  C1508   1.526   .     S
C1507  H1512   1.110   .     S
C1508  H1509   1.111   .     S
C1508  H1510   1.108   .     S
C1508  H1511   1.110   .     S
C1514  H1520   1.109   .     S
C1514  C1515   1.528   .     S
C1514  H1519   1.112   .     S
C1515  H1516   1.107   .     S
C1515  H1517   1.110   .     S
C1515  H1518   1.111   .     S
O1521  C1522   1.413   .     S
C1522  H1523   1.115   .     S
C1522  C1525   1.520   .     S
C1522  H372    1.113   1_556 S
C1525  H1526   1.111   .     S
C1525  H1528   1.110   .     S
C1525  H1399   1.111   1_655 S
O1529  C1530   1.413   .     S
C1530  C1533   1.522   .     S
C1530  H1531   1.115   .     S
H1532  C378    1.112   1_556 S
C1533  H1536   1.110   .     S
C1533  H1534   1.111   .     S
C1533  H1535   1.111   .     S
C1537  O1561   1.281   .     A
C1537  C1548   1.409   .     S
C1537  O1563   1.280   .     A
C1538  C1547   1.412   .     S
C1538  O1562   1.282   .     A
C1538  O1564   1.280   .     A
C1539  O1567   1.281   .     A
C1539  O1565   1.277   .     A
C1539  C1541   1.402   .     S
C1540  O1568   1.282   .     A
C1540  C1542   1.402   .     S
C1540  O1566   1.276   .     A
C1541  C1670   1.332   1_455 S
C1541  H1681   1.088   1_455 S
C1542  C1605   1.332   .     S
C1542  H1618   1.088   .     S
C1543  C1548   1.406   .     A
C1543  C1571   1.518   .     S
C1544  C1547   1.408   .     A
C1544  C1578   1.517   .     S
C1544  C1162   1.376   1_565 S
C1545  C1547   1.396   .     A
C1545  H1555   1.086   .     S
C1545  C1159   1.378   1_565 S
C1546  C1548   1.393   .     A
C1546  H1556   1.086   .     S
C1549  H1557   1.082   .     S
C1549  N1560   1.362   .     A
C1550  N1559   1.365   .     A
C1550  H1558   1.080   .     S
C1550  C400    1.436   1_556 S
C1551  N1559   1.370   .     A
C1551  O1585   1.382   .     S
C1551  C397    1.422   1_556 S
C1552  N1560   1.371   .     A
C1552  O1593   1.393   .     S
H1553  C1605   1.088   .     S
H1554  C1670   1.088   1_455 S
N1559  Zn1569  2.011   .     S
N1560  Zn1570  2.011   .     S
O1561  Zn1569  1.986   .     S
O1562  Zn1570  1.986   .     S
O1563  Zn1570  1.991   .     S
O1564  Zn1569  1.991   .     S
O1565  Zn1569  1.964   .     S
O1566  Zn1570  1.964   .     S
O1567  Zn1570  1.980   .     S
O1568  Zn1569  1.980   .     S
C1571  H1577   1.112   .     S
C1571  C1572   1.526   .     S
C1571  H1576   1.110   .     S
C1572  H1573   1.111   .     S
C1572  H1574   1.108   .     S
C1572  H1575   1.110   .     S
C1578  H1584   1.109   .     S
C1578  C1579   1.528   .     S
C1578  H1583   1.112   .     S
C1579  H1580   1.107   .     S
C1579  H1581   1.110   .     S
C1579  H1582   1.111   .     S
O1585  C1586   1.413   .     S
C1586  H1587   1.115   .     S
C1586  C1589   1.520   .     S
C1586  H436    1.113   1_556 S
C1589  H1590   1.111   .     S
C1589  H1592   1.110   .     S
C1589  H1655   1.111   .     S
H1591  C1717   1.111   1_455 S
O1593  C1594   1.413   .     S
C1594  C1597   1.522   .     S
C1594  H1595   1.115   .     S
H1596  C442    1.112   1_556 S
C1597  H1600   1.110   .     S
C1597  H1598   1.111   .     S
C1597  H1599   1.111   .     S
C1601  O1625   1.281   .     A
C1601  C1612   1.409   .     S
C1601  O1627   1.280   .     A
C1602  C1611   1.412   .     S
C1602  O1626   1.282   .     A
C1602  O1628   1.280   .     A
C1603  O1631   1.281   .     A
C1603  O1629   1.277   .     A
C1603  C1605   1.402   .     S
C1604  O1632   1.282   .     A
C1604  C1606   1.402   .     S
C1604  O1630   1.276   .     A
C1606  C1669   1.332   .     S
C1606  H1682   1.088   .     S
C1607  C1612   1.406   .     A
C1607  C1635   1.518   .     S
C1608  C1611   1.408   .     A
C1608  C1642   1.517   .     S
C1608  C1226   1.376   1_565 S
C1609  C1611   1.396   .     A
C1609  H1619   1.086   .     S
C1609  C1223   1.378   1_565 S
C1610  C1612   1.393   .     A
C1610  H1620   1.086   .     S
C1613  H1621   1.082   .     S
C1613  N1624   1.362   .     A
C1614  N1623   1.365   .     A
C1614  H1622   1.080   .     S
C1614  C464    1.436   1_556 S
C1615  N1623   1.370   .     A
C1615  O1649   1.382   .     S
C1615  C461    1.422   1_556 S
C1616  N1624   1.371   .     A
C1616  O1657   1.393   .     S
H1617  C1669   1.088   .     S
N1623  Zn1633  2.011   .     S
N1624  Zn1634  2.011   .     S
O1625  Zn1633  1.986   .     S
O1626  Zn1634  1.986   .     S
O1627  Zn1634  1.991   .     S
O1628  Zn1633  1.991   .     S
O1629  Zn1633  1.964   .     S
O1630  Zn1634  1.964   .     S
O1631  Zn1634  1.980   .     S
O1632  Zn1633  1.980   .     S
C1635  H1641   1.112   .     S
C1635  C1636   1.526   .     S
C1635  H1640   1.110   .     S
C1636  H1637   1.111   .     S
C1636  H1638   1.108   .     S
C1636  H1639   1.110   .     S
C1642  H1648   1.109   .     S
C1642  C1643   1.528   .     S
C1642  H1647   1.112   .     S
C1643  H1644   1.107   .     S
C1643  H1645   1.110   .     S
C1643  H1646   1.111   .     S
O1649  C1650   1.413   .     S
C1650  H1651   1.115   .     S
C1650  C1653   1.520   .     S
C1650  H500    1.113   1_556 S
C1653  H1654   1.111   .     S
C1653  H1656   1.110   .     S
C1653  H1719   1.111   .     S
O1657  C1658   1.413   .     S
C1658  C1661   1.522   .     S
C1658  H1659   1.115   .     S
H1660  C506    1.112   1_556 S
C1661  H1664   1.110   .     S
C1661  H1662   1.111   .     S
C1661  H1663   1.111   .     S
C1665  O1689   1.281   .     A
C1665  C1676   1.409   .     S
C1665  O1691   1.280   .     A
C1666  C1675   1.412   .     S
C1666  O1690   1.282   .     A
C1666  O1692   1.280   .     A
C1667  O1695   1.281   .     A
C1667  O1693   1.277   .     A
C1667  C1669   1.402   .     S
C1668  O1696   1.282   .     A
C1668  C1670   1.402   .     S
C1668  O1694   1.276   .     A
C1670  C1541   1.332   1_655 S
C1670  H1554   1.088   1_655 S
C1671  C1676   1.406   .     A
C1671  C1699   1.518   .     S
C1672  C1675   1.408   .     A
C1672  C1706   1.517   .     S
C1672  C1290   1.376   1_565 S
C1673  C1675   1.396   .     A
C1673  H1683   1.086   .     S
C1673  C1287   1.378   1_565 S
C1674  C1676   1.393   .     A
C1674  H1684   1.086   .     S
C1677  H1685   1.082   .     S
C1677  N1688   1.362   .     A
C1678  N1687   1.365   .     A
C1678  H1686   1.080   .     S
C1678  C528    1.436   1_556 S
C1679  N1687   1.370   .     A
C1679  O1713   1.382   .     S
C1679  C525    1.422   1_556 S
C1680  N1688   1.371   .     A
C1680  O1721   1.393   .     S
H1681  C1541   1.088   1_655 S
N1687  Zn1697  2.011   .     S
N1688  Zn1698  2.011   .     S
O1689  Zn1697  1.986   .     S
O1690  Zn1698  1.986   .     S
O1691  Zn1698  1.991   .     S
O1692  Zn1697  1.991   .     S
O1693  Zn1697  1.964   .     S
O1694  Zn1698  1.964   .     S
O1695  Zn1698  1.980   .     S
O1696  Zn1697  1.980   .     S
C1699  H1705   1.112   .     S
C1699  C1700   1.526   .     S
C1699  H1704   1.110   .     S
C1700  H1701   1.111   .     S
C1700  H1702   1.108   .     S
C1700  H1703   1.110   .     S
C1706  H1712   1.109   .     S
C1706  C1707   1.528   .     S
C1706  H1711   1.112   .     S
C1707  H1708   1.107   .     S
C1707  H1709   1.110   .     S
C1707  H1710   1.111   .     S
O1713  C1714   1.413   .     S
C1714  H1715   1.115   .     S
C1714  C1717   1.520   .     S
C1714  H564    1.113   1_556 S
C1717  H1718   1.111   .     S
C1717  H1720   1.110   .     S
C1717  H1591   1.111   1_655 S
O1721  C1722   1.413   .     S
C1722  C1725   1.522   .     S
C1722  H1723   1.115   .     S
H1724  C570    1.112   1_556 S
C1725  H1728   1.110   .     S
C1725  H1726   1.111   .     S
C1725  H1727   1.111   .     S
