data_str_m3_o1_o10_pcu_sym.43
_audit_creation_date              2020-01-03
_audit_creation_method            'Materials Studio'
_symmetry_space_group_name_H-M    'P1'
_symmetry_Int_Tables_number       1
_symmetry_cell_setting            triclinic
loop_
_symmetry_equiv_pos_as_xyz
  x,y,z
_cell_length_a                    25.7781
_cell_length_b                    32.1156
_cell_length_c                    29.5223
_cell_angle_alpha                 89.9562
_cell_angle_beta                  97.9894
_cell_angle_gamma                 90.1470
loop_
_atom_site_label
_atom_site_type_symbol
_atom_site_fract_x
_atom_site_fract_y
_atom_site_fract_z
_atom_site_U_iso_or_equiv
_atom_site_adp_type
_atom_site_occupancy
C1     C     0.16665   0.08663   0.16666   0.00000  Uiso   1.00
C2     C     0.15233   0.02128   0.20436   0.00000  Uiso   1.00
C3     C     0.16668   0.29084   0.16667   0.00000  Uiso   1.00
C4     C     0.16666   0.04249   0.16667   0.00000  Uiso   1.00
C5     C     0.20024   0.19177   0.02803   0.00000  Uiso   1.00
C6     C     0.13309   0.14156   0.30531   0.00000  Uiso   1.00
C7     C     0.20022   0.19177   0.31339   0.00000  Uiso   1.00
C8     C     0.13311   0.14157   0.01994   0.00000  Uiso   1.00
C9     C     0.16669   0.24670   0.16668   0.00000  Uiso   1.00
C10    C     0.06714   0.16643   0.15509   0.00000  Uiso   1.00
C11    C     0.26619   0.16691   0.17824   0.00000  Uiso   1.00
C12    C     0.01321   0.15895   0.15050   0.00000  Uiso   1.00
C13    C     0.32012   0.17438   0.18283   0.00000  Uiso   1.00
C14    C     0.18099   0.02139   0.12897   0.00000  Uiso   1.00
C15    C     0.15234   0.31194   0.20436   0.00000  Uiso   1.00
C16    C     0.18100   0.31206   0.12897   0.00000  Uiso   1.00
H17    H     0.19257   0.03775   0.09984   0.00000  Uiso   1.00
H18    H     0.14076   0.29559   0.23349   0.00000  Uiso   1.00
H19    H     0.22704   0.21183   0.29844   0.00000  Uiso   1.00
H20    H     0.10629   0.12150   0.03490   0.00000  Uiso   1.00
H21    H     0.19258   0.29579   0.09984   0.00000  Uiso   1.00
H22    H     0.14076   0.03755   0.23349   0.00000  Uiso   1.00
H23    H     0.22708   0.21184   0.04944   0.00000  Uiso   1.00
H24    H     0.10625   0.12150   0.28389   0.00000  Uiso   1.00
I25    I     0.31919   0.11255   0.10012   0.00000  Uiso   1.00
I26    I     0.01414   0.22078   0.23322   0.00000  Uiso   1.00
N27    N     0.16665   0.16666   0.28573   0.00000  Uiso   1.00
N28    N     0.16668   0.16668   0.04760   0.00000  Uiso   1.00
O29    O     0.16666   0.10558   0.20487   0.00000  Uiso   1.00
O30    O     0.16667   0.22775   0.12846   0.00000  Uiso   1.00
O31    O     0.16666   0.10559   0.12843   0.00000  Uiso   1.00
O32    O     0.16667   0.22774   0.20490   0.00000  Uiso   1.00
O33    O     0.09058   0.16666   0.19595   0.00000  Uiso   1.00
O34    O     0.24275   0.16667   0.13739   0.00000  Uiso   1.00
O35    O     0.09058   0.16667   0.11950   0.00000  Uiso   1.00
O36    O     0.24275   0.16666   0.21383   0.00000  Uiso   1.00
Zn37   Zn    0.16667   0.16666   0.21771   0.00000  Uiso   1.00
Zn38   Zn    0.16667   0.16667   0.11563   0.00000  Uiso   1.00
C39    C     0.49998   0.08663   0.16666   0.00000  Uiso   1.00
C40    C     0.48567   0.02128   0.20436   0.00000  Uiso   1.00
C41    C     0.50001   0.29084   0.16667   0.00000  Uiso   1.00
C42    C     0.49999   0.04249   0.16667   0.00000  Uiso   1.00
C43    C     0.53357   0.19177   0.02803   0.00000  Uiso   1.00
C44    C     0.46643   0.14156   0.30531   0.00000  Uiso   1.00
C45    C     0.53355   0.19177   0.31339   0.00000  Uiso   1.00
C46    C     0.46645   0.14157   0.01994   0.00000  Uiso   1.00
C47    C     0.50002   0.24670   0.16668   0.00000  Uiso   1.00
C48    C     0.40048   0.16643   0.15509   0.00000  Uiso   1.00
C49    C     0.59952   0.16691   0.17824   0.00000  Uiso   1.00
C50    C     0.34655   0.15895   0.15050   0.00000  Uiso   1.00
C51    C     0.65345   0.17438   0.18283   0.00000  Uiso   1.00
C52    C     0.51432   0.02139   0.12897   0.00000  Uiso   1.00
C53    C     0.48568   0.31194   0.20436   0.00000  Uiso   1.00
C54    C     0.51433   0.31206   0.12897   0.00000  Uiso   1.00
H55    H     0.52591   0.03775   0.09984   0.00000  Uiso   1.00
H56    H     0.47409   0.29559   0.23349   0.00000  Uiso   1.00
H57    H     0.56038   0.21183   0.29844   0.00000  Uiso   1.00
H58    H     0.43962   0.12150   0.03490   0.00000  Uiso   1.00
H59    H     0.52591   0.29579   0.09984   0.00000  Uiso   1.00
H60    H     0.47409   0.03755   0.23349   0.00000  Uiso   1.00
H61    H     0.56042   0.21184   0.04944   0.00000  Uiso   1.00
H62    H     0.43958   0.12150   0.28389   0.00000  Uiso   1.00
I63    I     0.65253   0.11255   0.10012   0.00000  Uiso   1.00
I64    I     0.34747   0.22078   0.23322   0.00000  Uiso   1.00
N65    N     0.49999   0.16666   0.28573   0.00000  Uiso   1.00
N66    N     0.50001   0.16668   0.04760   0.00000  Uiso   1.00
O67    O     0.50000   0.10558   0.20487   0.00000  Uiso   1.00
O68    O     0.50000   0.22775   0.12846   0.00000  Uiso   1.00
O69    O     0.50000   0.10559   0.12843   0.00000  Uiso   1.00
O70    O     0.50000   0.22774   0.20490   0.00000  Uiso   1.00
O71    O     0.42392   0.16666   0.19595   0.00000  Uiso   1.00
O72    O     0.57608   0.16667   0.13739   0.00000  Uiso   1.00
O73    O     0.42392   0.16667   0.11950   0.00000  Uiso   1.00
O74    O     0.57608   0.16666   0.21383   0.00000  Uiso   1.00
Zn75   Zn    0.50000   0.16666   0.21771   0.00000  Uiso   1.00
Zn76   Zn    0.50000   0.16667   0.11563   0.00000  Uiso   1.00
C77    C     0.83331   0.08663   0.16666   0.00000  Uiso   1.00
C78    C     0.81900   0.02128   0.20436   0.00000  Uiso   1.00
C79    C     0.83334   0.29084   0.16667   0.00000  Uiso   1.00
C80    C     0.83332   0.04249   0.16667   0.00000  Uiso   1.00
C81    C     0.86691   0.19177   0.02803   0.00000  Uiso   1.00
C82    C     0.79976   0.14156   0.30531   0.00000  Uiso   1.00
C83    C     0.86689   0.19177   0.31339   0.00000  Uiso   1.00
C84    C     0.79978   0.14157   0.01994   0.00000  Uiso   1.00
C85    C     0.83335   0.24670   0.16668   0.00000  Uiso   1.00
C86    C     0.73381   0.16643   0.15509   0.00000  Uiso   1.00
C87    C     0.93286   0.16691   0.17824   0.00000  Uiso   1.00
C88    C     0.67988   0.15895   0.15050   0.00000  Uiso   1.00
C89    C     0.98679   0.17438   0.18283   0.00000  Uiso   1.00
C90    C     0.84766   0.02139   0.12897   0.00000  Uiso   1.00
C91    C     0.81901   0.31194   0.20436   0.00000  Uiso   1.00
C92    C     0.84766   0.31206   0.12897   0.00000  Uiso   1.00
H93    H     0.85924   0.03775   0.09984   0.00000  Uiso   1.00
H94    H     0.80743   0.29559   0.23349   0.00000  Uiso   1.00
H95    H     0.89371   0.21183   0.29844   0.00000  Uiso   1.00
H96    H     0.77296   0.12150   0.03490   0.00000  Uiso   1.00
H97    H     0.85924   0.29579   0.09984   0.00000  Uiso   1.00
H98    H     0.80742   0.03755   0.23349   0.00000  Uiso   1.00
H99    H     0.89375   0.21184   0.04944   0.00000  Uiso   1.00
H100   H     0.77292   0.12150   0.28389   0.00000  Uiso   1.00
I101   I     0.98586   0.11255   0.10012   0.00000  Uiso   1.00
I102   I     0.68081   0.22078   0.23322   0.00000  Uiso   1.00
N103   N     0.83332   0.16666   0.28573   0.00000  Uiso   1.00
N104   N     0.83335   0.16668   0.04760   0.00000  Uiso   1.00
O105   O     0.83333   0.10558   0.20487   0.00000  Uiso   1.00
O106   O     0.83334   0.22775   0.12846   0.00000  Uiso   1.00
O107   O     0.83333   0.10559   0.12843   0.00000  Uiso   1.00
O108   O     0.83334   0.22774   0.20490   0.00000  Uiso   1.00
O109   O     0.75725   0.16666   0.19595   0.00000  Uiso   1.00
O110   O     0.90942   0.16667   0.13739   0.00000  Uiso   1.00
O111   O     0.75725   0.16667   0.11950   0.00000  Uiso   1.00
O112   O     0.90942   0.16666   0.21383   0.00000  Uiso   1.00
Zn113  Zn    0.83333   0.16666   0.21771   0.00000  Uiso   1.00
Zn114  Zn    0.83333   0.16667   0.11563   0.00000  Uiso   1.00
C115   C     0.16665   0.41997   0.16666   0.00000  Uiso   1.00
C116   C     0.15233   0.35461   0.20436   0.00000  Uiso   1.00
C117   C     0.16668   0.62418   0.16667   0.00000  Uiso   1.00
C118   C     0.16666   0.37583   0.16667   0.00000  Uiso   1.00
C119   C     0.20024   0.52511   0.02803   0.00000  Uiso   1.00
C120   C     0.13309   0.47489   0.30531   0.00000  Uiso   1.00
C121   C     0.20022   0.52510   0.31339   0.00000  Uiso   1.00
C122   C     0.13311   0.47490   0.01994   0.00000  Uiso   1.00
C123   C     0.16669   0.58003   0.16668   0.00000  Uiso   1.00
C124   C     0.06714   0.49976   0.15509   0.00000  Uiso   1.00
C125   C     0.26619   0.50024   0.17824   0.00000  Uiso   1.00
C126   C     0.01321   0.49228   0.15050   0.00000  Uiso   1.00
C127   C     0.32012   0.50772   0.18283   0.00000  Uiso   1.00
C128   C     0.18099   0.35472   0.12897   0.00000  Uiso   1.00
C129   C     0.15234   0.64528   0.20436   0.00000  Uiso   1.00
C130   C     0.18100   0.64539   0.12897   0.00000  Uiso   1.00
H131   H     0.19257   0.37108   0.09984   0.00000  Uiso   1.00
H132   H     0.14076   0.62892   0.23349   0.00000  Uiso   1.00
H133   H     0.22704   0.54517   0.29844   0.00000  Uiso   1.00
H134   H     0.10629   0.45483   0.03490   0.00000  Uiso   1.00
H135   H     0.19258   0.62912   0.09984   0.00000  Uiso   1.00
H136   H     0.14076   0.37088   0.23349   0.00000  Uiso   1.00
H137   H     0.22708   0.54517   0.04944   0.00000  Uiso   1.00
H138   H     0.10625   0.45483   0.28389   0.00000  Uiso   1.00
I139   I     0.31919   0.44588   0.10012   0.00000  Uiso   1.00
I140   I     0.01414   0.55411   0.23322   0.00000  Uiso   1.00
N141   N     0.16665   0.49999   0.28573   0.00000  Uiso   1.00
N142   N     0.16668   0.50001   0.04760   0.00000  Uiso   1.00
O143   O     0.16666   0.43892   0.20487   0.00000  Uiso   1.00
O144   O     0.16667   0.56108   0.12846   0.00000  Uiso   1.00
O145   O     0.16666   0.43893   0.12843   0.00000  Uiso   1.00
O146   O     0.16667   0.56107   0.20490   0.00000  Uiso   1.00
O147   O     0.09058   0.50000   0.19595   0.00000  Uiso   1.00
O148   O     0.24275   0.50000   0.13739   0.00000  Uiso   1.00
O149   O     0.09058   0.50000   0.11950   0.00000  Uiso   1.00
O150   O     0.24275   0.50000   0.21383   0.00000  Uiso   1.00
Zn151  Zn    0.16667   0.49999   0.21771   0.00000  Uiso   1.00
Zn152  Zn    0.16667   0.50001   0.11563   0.00000  Uiso   1.00
C153   C     0.49998   0.41997   0.16666   0.00000  Uiso   1.00
C154   C     0.48567   0.35461   0.20436   0.00000  Uiso   1.00
C155   C     0.50001   0.62418   0.16667   0.00000  Uiso   1.00
C156   C     0.49999   0.37583   0.16667   0.00000  Uiso   1.00
C157   C     0.53357   0.52511   0.02803   0.00000  Uiso   1.00
C158   C     0.46643   0.47489   0.30531   0.00000  Uiso   1.00
C159   C     0.53355   0.52510   0.31339   0.00000  Uiso   1.00
C160   C     0.46645   0.47490   0.01994   0.00000  Uiso   1.00
C161   C     0.50002   0.58003   0.16668   0.00000  Uiso   1.00
C162   C     0.40048   0.49976   0.15509   0.00000  Uiso   1.00
C163   C     0.59952   0.50024   0.17824   0.00000  Uiso   1.00
C164   C     0.34655   0.49228   0.15050   0.00000  Uiso   1.00
C165   C     0.65345   0.50772   0.18283   0.00000  Uiso   1.00
C166   C     0.51432   0.35472   0.12897   0.00000  Uiso   1.00
C167   C     0.48568   0.64528   0.20436   0.00000  Uiso   1.00
C168   C     0.51433   0.64539   0.12897   0.00000  Uiso   1.00
H169   H     0.52591   0.37108   0.09984   0.00000  Uiso   1.00
H170   H     0.47409   0.62892   0.23349   0.00000  Uiso   1.00
H171   H     0.56038   0.54517   0.29844   0.00000  Uiso   1.00
H172   H     0.43962   0.45483   0.03490   0.00000  Uiso   1.00
H173   H     0.52591   0.62912   0.09984   0.00000  Uiso   1.00
H174   H     0.47409   0.37088   0.23349   0.00000  Uiso   1.00
H175   H     0.56042   0.54517   0.04944   0.00000  Uiso   1.00
H176   H     0.43958   0.45483   0.28389   0.00000  Uiso   1.00
I177   I     0.65253   0.44588   0.10012   0.00000  Uiso   1.00
I178   I     0.34747   0.55411   0.23322   0.00000  Uiso   1.00
N179   N     0.49999   0.49999   0.28573   0.00000  Uiso   1.00
N180   N     0.50001   0.50001   0.04760   0.00000  Uiso   1.00
O181   O     0.50000   0.43892   0.20487   0.00000  Uiso   1.00
O182   O     0.50000   0.56108   0.12846   0.00000  Uiso   1.00
O183   O     0.50000   0.43893   0.12843   0.00000  Uiso   1.00
O184   O     0.50000   0.56107   0.20490   0.00000  Uiso   1.00
O185   O     0.42392   0.50000   0.19595   0.00000  Uiso   1.00
O186   O     0.57608   0.50000   0.13739   0.00000  Uiso   1.00
O187   O     0.42392   0.50000   0.11950   0.00000  Uiso   1.00
O188   O     0.57608   0.50000   0.21383   0.00000  Uiso   1.00
Zn189  Zn    0.50000   0.49999   0.21771   0.00000  Uiso   1.00
Zn190  Zn    0.50000   0.50001   0.11563   0.00000  Uiso   1.00
C191   C     0.83331   0.41997   0.16666   0.00000  Uiso   1.00
C192   C     0.81900   0.35461   0.20436   0.00000  Uiso   1.00
C193   C     0.83334   0.62418   0.16667   0.00000  Uiso   1.00
C194   C     0.83332   0.37583   0.16667   0.00000  Uiso   1.00
C195   C     0.86691   0.52511   0.02803   0.00000  Uiso   1.00
C196   C     0.79976   0.47489   0.30531   0.00000  Uiso   1.00
C197   C     0.86689   0.52510   0.31339   0.00000  Uiso   1.00
C198   C     0.79978   0.47490   0.01994   0.00000  Uiso   1.00
C199   C     0.83335   0.58003   0.16668   0.00000  Uiso   1.00
C200   C     0.73381   0.49976   0.15509   0.00000  Uiso   1.00
C201   C     0.93286   0.50024   0.17824   0.00000  Uiso   1.00
C202   C     0.67988   0.49228   0.15050   0.00000  Uiso   1.00
C203   C     0.98679   0.50772   0.18283   0.00000  Uiso   1.00
C204   C     0.84766   0.35472   0.12897   0.00000  Uiso   1.00
C205   C     0.81901   0.64528   0.20436   0.00000  Uiso   1.00
C206   C     0.84766   0.64539   0.12897   0.00000  Uiso   1.00
H207   H     0.85924   0.37108   0.09984   0.00000  Uiso   1.00
H208   H     0.80743   0.62892   0.23349   0.00000  Uiso   1.00
H209   H     0.89371   0.54517   0.29844   0.00000  Uiso   1.00
H210   H     0.77296   0.45483   0.03490   0.00000  Uiso   1.00
H211   H     0.85924   0.62912   0.09984   0.00000  Uiso   1.00
H212   H     0.80742   0.37088   0.23349   0.00000  Uiso   1.00
H213   H     0.89375   0.54517   0.04944   0.00000  Uiso   1.00
H214   H     0.77292   0.45483   0.28389   0.00000  Uiso   1.00
I215   I     0.98586   0.44588   0.10012   0.00000  Uiso   1.00
I216   I     0.68081   0.55411   0.23322   0.00000  Uiso   1.00
N217   N     0.83332   0.49999   0.28573   0.00000  Uiso   1.00
N218   N     0.83335   0.50001   0.04760   0.00000  Uiso   1.00
O219   O     0.83333   0.43892   0.20487   0.00000  Uiso   1.00
O220   O     0.83334   0.56108   0.12846   0.00000  Uiso   1.00
O221   O     0.83333   0.43893   0.12843   0.00000  Uiso   1.00
O222   O     0.83334   0.56107   0.20490   0.00000  Uiso   1.00
O223   O     0.75725   0.50000   0.19595   0.00000  Uiso   1.00
O224   O     0.90942   0.50000   0.13739   0.00000  Uiso   1.00
O225   O     0.75725   0.50000   0.11950   0.00000  Uiso   1.00
O226   O     0.90942   0.50000   0.21383   0.00000  Uiso   1.00
Zn227  Zn    0.83333   0.49999   0.21771   0.00000  Uiso   1.00
Zn228  Zn    0.83333   0.50001   0.11563   0.00000  Uiso   1.00
C229   C     0.16665   0.75330   0.16666   0.00000  Uiso   1.00
C230   C     0.15233   0.68794   0.20436   0.00000  Uiso   1.00
C231   C     0.16668   0.95751   0.16667   0.00000  Uiso   1.00
C232   C     0.16666   0.70916   0.16667   0.00000  Uiso   1.00
C233   C     0.20024   0.85844   0.02803   0.00000  Uiso   1.00
C234   C     0.13309   0.80823   0.30531   0.00000  Uiso   1.00
C235   C     0.20022   0.85843   0.31339   0.00000  Uiso   1.00
C236   C     0.13311   0.80823   0.01994   0.00000  Uiso   1.00
C237   C     0.16669   0.91337   0.16668   0.00000  Uiso   1.00
C238   C     0.06714   0.83309   0.15509   0.00000  Uiso   1.00
C239   C     0.26619   0.83357   0.17824   0.00000  Uiso   1.00
C240   C     0.01321   0.82562   0.15050   0.00000  Uiso   1.00
C241   C     0.32012   0.84105   0.18283   0.00000  Uiso   1.00
C242   C     0.18099   0.68806   0.12897   0.00000  Uiso   1.00
C243   C     0.15234   0.97861   0.20436   0.00000  Uiso   1.00
C244   C     0.18100   0.97872   0.12897   0.00000  Uiso   1.00
H245   H     0.19257   0.70441   0.09984   0.00000  Uiso   1.00
H246   H     0.14076   0.96225   0.23349   0.00000  Uiso   1.00
H247   H     0.22704   0.87850   0.29844   0.00000  Uiso   1.00
H248   H     0.10629   0.78817   0.03490   0.00000  Uiso   1.00
H249   H     0.19258   0.96245   0.09984   0.00000  Uiso   1.00
H250   H     0.14076   0.70421   0.23349   0.00000  Uiso   1.00
H251   H     0.22708   0.87850   0.04944   0.00000  Uiso   1.00
H252   H     0.10625   0.78816   0.28389   0.00000  Uiso   1.00
I253   I     0.31919   0.77922   0.10012   0.00000  Uiso   1.00
I254   I     0.01414   0.88745   0.23322   0.00000  Uiso   1.00
N255   N     0.16665   0.83332   0.28573   0.00000  Uiso   1.00
N256   N     0.16668   0.83334   0.04760   0.00000  Uiso   1.00
O257   O     0.16666   0.77225   0.20487   0.00000  Uiso   1.00
O258   O     0.16667   0.89442   0.12846   0.00000  Uiso   1.00
O259   O     0.16666   0.77226   0.12843   0.00000  Uiso   1.00
O260   O     0.16667   0.89441   0.20490   0.00000  Uiso   1.00
O261   O     0.09058   0.83333   0.19595   0.00000  Uiso   1.00
O262   O     0.24275   0.83334   0.13739   0.00000  Uiso   1.00
O263   O     0.09058   0.83334   0.11950   0.00000  Uiso   1.00
O264   O     0.24275   0.83333   0.21383   0.00000  Uiso   1.00
Zn265  Zn    0.16667   0.83333   0.21771   0.00000  Uiso   1.00
Zn266  Zn    0.16667   0.83334   0.11563   0.00000  Uiso   1.00
C267   C     0.49998   0.75330   0.16666   0.00000  Uiso   1.00
C268   C     0.48567   0.68794   0.20436   0.00000  Uiso   1.00
C269   C     0.50001   0.95751   0.16667   0.00000  Uiso   1.00
C270   C     0.49999   0.70916   0.16667   0.00000  Uiso   1.00
C271   C     0.53357   0.85844   0.02803   0.00000  Uiso   1.00
C272   C     0.46643   0.80823   0.30531   0.00000  Uiso   1.00
C273   C     0.53355   0.85843   0.31339   0.00000  Uiso   1.00
C274   C     0.46645   0.80823   0.01994   0.00000  Uiso   1.00
C275   C     0.50002   0.91337   0.16668   0.00000  Uiso   1.00
C276   C     0.40048   0.83309   0.15509   0.00000  Uiso   1.00
C277   C     0.59952   0.83357   0.17824   0.00000  Uiso   1.00
C278   C     0.34655   0.82562   0.15050   0.00000  Uiso   1.00
C279   C     0.65345   0.84105   0.18283   0.00000  Uiso   1.00
C280   C     0.51432   0.68806   0.12897   0.00000  Uiso   1.00
C281   C     0.48568   0.97861   0.20436   0.00000  Uiso   1.00
C282   C     0.51433   0.97872   0.12897   0.00000  Uiso   1.00
H283   H     0.52591   0.70441   0.09984   0.00000  Uiso   1.00
H284   H     0.47409   0.96225   0.23349   0.00000  Uiso   1.00
H285   H     0.56038   0.87850   0.29844   0.00000  Uiso   1.00
H286   H     0.43962   0.78817   0.03490   0.00000  Uiso   1.00
H287   H     0.52591   0.96245   0.09984   0.00000  Uiso   1.00
H288   H     0.47409   0.70421   0.23349   0.00000  Uiso   1.00
H289   H     0.56042   0.87850   0.04944   0.00000  Uiso   1.00
H290   H     0.43958   0.78816   0.28389   0.00000  Uiso   1.00
I291   I     0.65253   0.77922   0.10012   0.00000  Uiso   1.00
I292   I     0.34747   0.88745   0.23322   0.00000  Uiso   1.00
N293   N     0.49999   0.83332   0.28573   0.00000  Uiso   1.00
N294   N     0.50001   0.83334   0.04760   0.00000  Uiso   1.00
O295   O     0.50000   0.77225   0.20487   0.00000  Uiso   1.00
O296   O     0.50000   0.89442   0.12846   0.00000  Uiso   1.00
O297   O     0.50000   0.77226   0.12843   0.00000  Uiso   1.00
O298   O     0.50000   0.89441   0.20490   0.00000  Uiso   1.00
O299   O     0.42392   0.83333   0.19595   0.00000  Uiso   1.00
O300   O     0.57608   0.83334   0.13739   0.00000  Uiso   1.00
O301   O     0.42392   0.83334   0.11950   0.00000  Uiso   1.00
O302   O     0.57608   0.83333   0.21383   0.00000  Uiso   1.00
Zn303  Zn    0.50000   0.83333   0.21771   0.00000  Uiso   1.00
Zn304  Zn    0.50000   0.83334   0.11563   0.00000  Uiso   1.00
C305   C     0.83331   0.75330   0.16666   0.00000  Uiso   1.00
C306   C     0.81900   0.68794   0.20436   0.00000  Uiso   1.00
C307   C     0.83334   0.95751   0.16667   0.00000  Uiso   1.00
C308   C     0.83332   0.70916   0.16667   0.00000  Uiso   1.00
C309   C     0.86691   0.85844   0.02803   0.00000  Uiso   1.00
C310   C     0.79976   0.80823   0.30531   0.00000  Uiso   1.00
C311   C     0.86689   0.85843   0.31339   0.00000  Uiso   1.00
C312   C     0.79978   0.80823   0.01994   0.00000  Uiso   1.00
C313   C     0.83335   0.91337   0.16668   0.00000  Uiso   1.00
C314   C     0.73381   0.83309   0.15509   0.00000  Uiso   1.00
C315   C     0.93286   0.83357   0.17824   0.00000  Uiso   1.00
C316   C     0.67988   0.82562   0.15050   0.00000  Uiso   1.00
C317   C     0.98679   0.84105   0.18283   0.00000  Uiso   1.00
C318   C     0.84766   0.68806   0.12897   0.00000  Uiso   1.00
C319   C     0.81901   0.97861   0.20436   0.00000  Uiso   1.00
C320   C     0.84766   0.97872   0.12897   0.00000  Uiso   1.00
H321   H     0.85924   0.70441   0.09984   0.00000  Uiso   1.00
H322   H     0.80743   0.96225   0.23349   0.00000  Uiso   1.00
H323   H     0.89371   0.87850   0.29844   0.00000  Uiso   1.00
H324   H     0.77296   0.78817   0.03490   0.00000  Uiso   1.00
H325   H     0.85924   0.96245   0.09984   0.00000  Uiso   1.00
H326   H     0.80742   0.70421   0.23349   0.00000  Uiso   1.00
H327   H     0.89375   0.87850   0.04944   0.00000  Uiso   1.00
H328   H     0.77292   0.78816   0.28389   0.00000  Uiso   1.00
I329   I     0.98586   0.77922   0.10012   0.00000  Uiso   1.00
I330   I     0.68081   0.88745   0.23322   0.00000  Uiso   1.00
N331   N     0.83332   0.83332   0.28573   0.00000  Uiso   1.00
N332   N     0.83335   0.83334   0.04760   0.00000  Uiso   1.00
O333   O     0.83333   0.77225   0.20487   0.00000  Uiso   1.00
O334   O     0.83334   0.89442   0.12846   0.00000  Uiso   1.00
O335   O     0.83333   0.77226   0.12843   0.00000  Uiso   1.00
O336   O     0.83334   0.89441   0.20490   0.00000  Uiso   1.00
O337   O     0.75725   0.83333   0.19595   0.00000  Uiso   1.00
O338   O     0.90942   0.83334   0.13739   0.00000  Uiso   1.00
O339   O     0.75725   0.83334   0.11950   0.00000  Uiso   1.00
O340   O     0.90942   0.83333   0.21383   0.00000  Uiso   1.00
Zn341  Zn    0.83333   0.83333   0.21771   0.00000  Uiso   1.00
Zn342  Zn    0.83333   0.83334   0.11563   0.00000  Uiso   1.00
C343   C     0.16665   0.08663   0.49999   0.00000  Uiso   1.00
C344   C     0.15233   0.02128   0.53770   0.00000  Uiso   1.00
C345   C     0.16668   0.29084   0.50000   0.00000  Uiso   1.00
C346   C     0.16666   0.04249   0.50000   0.00000  Uiso   1.00
C347   C     0.20024   0.19177   0.36136   0.00000  Uiso   1.00
C348   C     0.13309   0.14156   0.63864   0.00000  Uiso   1.00
C349   C     0.20022   0.19177   0.64672   0.00000  Uiso   1.00
C350   C     0.13311   0.14157   0.35328   0.00000  Uiso   1.00
C351   C     0.16669   0.24670   0.50001   0.00000  Uiso   1.00
C352   C     0.06714   0.16643   0.48842   0.00000  Uiso   1.00
C353   C     0.26619   0.16691   0.51158   0.00000  Uiso   1.00
C354   C     0.01321   0.15895   0.48384   0.00000  Uiso   1.00
C355   C     0.32012   0.17438   0.51616   0.00000  Uiso   1.00
C356   C     0.18099   0.02139   0.46230   0.00000  Uiso   1.00
C357   C     0.15234   0.31194   0.53770   0.00000  Uiso   1.00
C358   C     0.18100   0.31206   0.46230   0.00000  Uiso   1.00
H359   H     0.19257   0.03775   0.43317   0.00000  Uiso   1.00
H360   H     0.14076   0.29559   0.56683   0.00000  Uiso   1.00
H361   H     0.22704   0.21183   0.63177   0.00000  Uiso   1.00
H362   H     0.10629   0.12150   0.36823   0.00000  Uiso   1.00
H363   H     0.19258   0.29579   0.43317   0.00000  Uiso   1.00
H364   H     0.14076   0.03755   0.56683   0.00000  Uiso   1.00
H365   H     0.22708   0.21184   0.38277   0.00000  Uiso   1.00
H366   H     0.10625   0.12150   0.61723   0.00000  Uiso   1.00
I367   I     0.31919   0.11255   0.43345   0.00000  Uiso   1.00
I368   I     0.01414   0.22078   0.56655   0.00000  Uiso   1.00
N369   N     0.16665   0.16666   0.61907   0.00000  Uiso   1.00
N370   N     0.16668   0.16668   0.38093   0.00000  Uiso   1.00
O371   O     0.16666   0.10558   0.53821   0.00000  Uiso   1.00
O372   O     0.16667   0.22775   0.46179   0.00000  Uiso   1.00
O373   O     0.16666   0.10559   0.46176   0.00000  Uiso   1.00
O374   O     0.16667   0.22774   0.53824   0.00000  Uiso   1.00
O375   O     0.09058   0.16666   0.52928   0.00000  Uiso   1.00
O376   O     0.24275   0.16667   0.47072   0.00000  Uiso   1.00
O377   O     0.09058   0.16667   0.45284   0.00000  Uiso   1.00
O378   O     0.24275   0.16666   0.54716   0.00000  Uiso   1.00
Zn379  Zn    0.16667   0.16666   0.55104   0.00000  Uiso   1.00
Zn380  Zn    0.16667   0.16667   0.44896   0.00000  Uiso   1.00
C381   C     0.49998   0.08663   0.49999   0.00000  Uiso   1.00
C382   C     0.48567   0.02128   0.53770   0.00000  Uiso   1.00
C383   C     0.50001   0.29084   0.50000   0.00000  Uiso   1.00
C384   C     0.49999   0.04249   0.50000   0.00000  Uiso   1.00
C385   C     0.53357   0.19177   0.36136   0.00000  Uiso   1.00
C386   C     0.46643   0.14156   0.63864   0.00000  Uiso   1.00
C387   C     0.53355   0.19177   0.64672   0.00000  Uiso   1.00
C388   C     0.46645   0.14157   0.35328   0.00000  Uiso   1.00
C389   C     0.50002   0.24670   0.50001   0.00000  Uiso   1.00
C390   C     0.40048   0.16643   0.48842   0.00000  Uiso   1.00
C391   C     0.59952   0.16691   0.51158   0.00000  Uiso   1.00
C392   C     0.34655   0.15895   0.48384   0.00000  Uiso   1.00
C393   C     0.65345   0.17438   0.51616   0.00000  Uiso   1.00
C394   C     0.51432   0.02139   0.46230   0.00000  Uiso   1.00
C395   C     0.48568   0.31194   0.53770   0.00000  Uiso   1.00
C396   C     0.51433   0.31206   0.46230   0.00000  Uiso   1.00
H397   H     0.52591   0.03775   0.43317   0.00000  Uiso   1.00
H398   H     0.47409   0.29559   0.56683   0.00000  Uiso   1.00
H399   H     0.56038   0.21183   0.63177   0.00000  Uiso   1.00
H400   H     0.43962   0.12150   0.36823   0.00000  Uiso   1.00
H401   H     0.52591   0.29579   0.43317   0.00000  Uiso   1.00
H402   H     0.47409   0.03755   0.56683   0.00000  Uiso   1.00
H403   H     0.56042   0.21184   0.38277   0.00000  Uiso   1.00
H404   H     0.43958   0.12150   0.61723   0.00000  Uiso   1.00
I405   I     0.65253   0.11255   0.43345   0.00000  Uiso   1.00
I406   I     0.34747   0.22078   0.56655   0.00000  Uiso   1.00
N407   N     0.49999   0.16666   0.61907   0.00000  Uiso   1.00
N408   N     0.50001   0.16668   0.38093   0.00000  Uiso   1.00
O409   O     0.50000   0.10558   0.53821   0.00000  Uiso   1.00
O410   O     0.50000   0.22775   0.46179   0.00000  Uiso   1.00
O411   O     0.50000   0.10559   0.46176   0.00000  Uiso   1.00
O412   O     0.50000   0.22774   0.53824   0.00000  Uiso   1.00
O413   O     0.42392   0.16666   0.52928   0.00000  Uiso   1.00
O414   O     0.57608   0.16667   0.47072   0.00000  Uiso   1.00
O415   O     0.42392   0.16667   0.45284   0.00000  Uiso   1.00
O416   O     0.57608   0.16666   0.54716   0.00000  Uiso   1.00
Zn417  Zn    0.50000   0.16666   0.55104   0.00000  Uiso   1.00
Zn418  Zn    0.50000   0.16667   0.44896   0.00000  Uiso   1.00
C419   C     0.83331   0.08663   0.49999   0.00000  Uiso   1.00
C420   C     0.81900   0.02128   0.53770   0.00000  Uiso   1.00
C421   C     0.83334   0.29084   0.50000   0.00000  Uiso   1.00
C422   C     0.83332   0.04249   0.50000   0.00000  Uiso   1.00
C423   C     0.86691   0.19177   0.36136   0.00000  Uiso   1.00
C424   C     0.79976   0.14156   0.63864   0.00000  Uiso   1.00
C425   C     0.86689   0.19177   0.64672   0.00000  Uiso   1.00
C426   C     0.79978   0.14157   0.35328   0.00000  Uiso   1.00
C427   C     0.83335   0.24670   0.50001   0.00000  Uiso   1.00
C428   C     0.73381   0.16643   0.48842   0.00000  Uiso   1.00
C429   C     0.93286   0.16691   0.51158   0.00000  Uiso   1.00
C430   C     0.67988   0.15895   0.48384   0.00000  Uiso   1.00
C431   C     0.98679   0.17438   0.51616   0.00000  Uiso   1.00
C432   C     0.84766   0.02139   0.46230   0.00000  Uiso   1.00
C433   C     0.81901   0.31194   0.53770   0.00000  Uiso   1.00
C434   C     0.84766   0.31206   0.46230   0.00000  Uiso   1.00
H435   H     0.85924   0.03775   0.43317   0.00000  Uiso   1.00
H436   H     0.80743   0.29559   0.56683   0.00000  Uiso   1.00
H437   H     0.89371   0.21183   0.63177   0.00000  Uiso   1.00
H438   H     0.77296   0.12150   0.36823   0.00000  Uiso   1.00
H439   H     0.85924   0.29579   0.43317   0.00000  Uiso   1.00
H440   H     0.80742   0.03755   0.56683   0.00000  Uiso   1.00
H441   H     0.89375   0.21184   0.38277   0.00000  Uiso   1.00
H442   H     0.77292   0.12150   0.61723   0.00000  Uiso   1.00
I443   I     0.98586   0.11255   0.43345   0.00000  Uiso   1.00
I444   I     0.68081   0.22078   0.56655   0.00000  Uiso   1.00
N445   N     0.83332   0.16666   0.61907   0.00000  Uiso   1.00
N446   N     0.83335   0.16668   0.38093   0.00000  Uiso   1.00
O447   O     0.83333   0.10558   0.53821   0.00000  Uiso   1.00
O448   O     0.83334   0.22775   0.46179   0.00000  Uiso   1.00
O449   O     0.83333   0.10559   0.46176   0.00000  Uiso   1.00
O450   O     0.83334   0.22774   0.53824   0.00000  Uiso   1.00
O451   O     0.75725   0.16666   0.52928   0.00000  Uiso   1.00
O452   O     0.90942   0.16667   0.47072   0.00000  Uiso   1.00
O453   O     0.75725   0.16667   0.45284   0.00000  Uiso   1.00
O454   O     0.90942   0.16666   0.54716   0.00000  Uiso   1.00
Zn455  Zn    0.83333   0.16666   0.55104   0.00000  Uiso   1.00
Zn456  Zn    0.83333   0.16667   0.44896   0.00000  Uiso   1.00
C457   C     0.16665   0.41997   0.49999   0.00000  Uiso   1.00
C458   C     0.15233   0.35461   0.53770   0.00000  Uiso   1.00
C459   C     0.16668   0.62418   0.50000   0.00000  Uiso   1.00
C460   C     0.16666   0.37583   0.50000   0.00000  Uiso   1.00
C461   C     0.20024   0.52511   0.36136   0.00000  Uiso   1.00
C462   C     0.13309   0.47489   0.63864   0.00000  Uiso   1.00
C463   C     0.20022   0.52510   0.64672   0.00000  Uiso   1.00
C464   C     0.13311   0.47490   0.35328   0.00000  Uiso   1.00
C465   C     0.16669   0.58003   0.50001   0.00000  Uiso   1.00
C466   C     0.06714   0.49976   0.48842   0.00000  Uiso   1.00
C467   C     0.26619   0.50024   0.51158   0.00000  Uiso   1.00
C468   C     0.01321   0.49228   0.48384   0.00000  Uiso   1.00
C469   C     0.32012   0.50772   0.51616   0.00000  Uiso   1.00
C470   C     0.18099   0.35472   0.46230   0.00000  Uiso   1.00
C471   C     0.15234   0.64528   0.53770   0.00000  Uiso   1.00
C472   C     0.18100   0.64539   0.46230   0.00000  Uiso   1.00
H473   H     0.19257   0.37108   0.43317   0.00000  Uiso   1.00
H474   H     0.14076   0.62892   0.56683   0.00000  Uiso   1.00
H475   H     0.22704   0.54517   0.63177   0.00000  Uiso   1.00
H476   H     0.10629   0.45483   0.36823   0.00000  Uiso   1.00
H477   H     0.19258   0.62912   0.43317   0.00000  Uiso   1.00
H478   H     0.14076   0.37088   0.56683   0.00000  Uiso   1.00
H479   H     0.22708   0.54517   0.38277   0.00000  Uiso   1.00
H480   H     0.10625   0.45483   0.61723   0.00000  Uiso   1.00
I481   I     0.31919   0.44588   0.43345   0.00000  Uiso   1.00
I482   I     0.01414   0.55411   0.56655   0.00000  Uiso   1.00
N483   N     0.16665   0.49999   0.61907   0.00000  Uiso   1.00
N484   N     0.16668   0.50001   0.38093   0.00000  Uiso   1.00
O485   O     0.16666   0.43892   0.53821   0.00000  Uiso   1.00
O486   O     0.16667   0.56108   0.46179   0.00000  Uiso   1.00
O487   O     0.16666   0.43893   0.46176   0.00000  Uiso   1.00
O488   O     0.16667   0.56107   0.53824   0.00000  Uiso   1.00
O489   O     0.09058   0.50000   0.52928   0.00000  Uiso   1.00
O490   O     0.24275   0.50000   0.47072   0.00000  Uiso   1.00
O491   O     0.09058   0.50000   0.45284   0.00000  Uiso   1.00
O492   O     0.24275   0.50000   0.54716   0.00000  Uiso   1.00
Zn493  Zn    0.16667   0.49999   0.55104   0.00000  Uiso   1.00
Zn494  Zn    0.16667   0.50001   0.44896   0.00000  Uiso   1.00
C495   C     0.49998   0.41997   0.49999   0.00000  Uiso   1.00
C496   C     0.48567   0.35461   0.53770   0.00000  Uiso   1.00
C497   C     0.50001   0.62418   0.50000   0.00000  Uiso   1.00
C498   C     0.49999   0.37583   0.50000   0.00000  Uiso   1.00
C499   C     0.53357   0.52511   0.36136   0.00000  Uiso   1.00
C500   C     0.46643   0.47489   0.63864   0.00000  Uiso   1.00
C501   C     0.53355   0.52510   0.64672   0.00000  Uiso   1.00
C502   C     0.46645   0.47490   0.35328   0.00000  Uiso   1.00
C503   C     0.50002   0.58003   0.50001   0.00000  Uiso   1.00
C504   C     0.40048   0.49976   0.48842   0.00000  Uiso   1.00
C505   C     0.59952   0.50024   0.51158   0.00000  Uiso   1.00
C506   C     0.34655   0.49228   0.48384   0.00000  Uiso   1.00
C507   C     0.65345   0.50772   0.51616   0.00000  Uiso   1.00
C508   C     0.51432   0.35472   0.46230   0.00000  Uiso   1.00
C509   C     0.48568   0.64528   0.53770   0.00000  Uiso   1.00
C510   C     0.51433   0.64539   0.46230   0.00000  Uiso   1.00
H511   H     0.52591   0.37108   0.43317   0.00000  Uiso   1.00
H512   H     0.47409   0.62892   0.56683   0.00000  Uiso   1.00
H513   H     0.56038   0.54517   0.63177   0.00000  Uiso   1.00
H514   H     0.43962   0.45483   0.36823   0.00000  Uiso   1.00
H515   H     0.52591   0.62912   0.43317   0.00000  Uiso   1.00
H516   H     0.47409   0.37088   0.56683   0.00000  Uiso   1.00
H517   H     0.56042   0.54517   0.38277   0.00000  Uiso   1.00
H518   H     0.43958   0.45483   0.61723   0.00000  Uiso   1.00
I519   I     0.65253   0.44588   0.43345   0.00000  Uiso   1.00
I520   I     0.34747   0.55411   0.56655   0.00000  Uiso   1.00
N521   N     0.49999   0.49999   0.61907   0.00000  Uiso   1.00
N522   N     0.50001   0.50001   0.38093   0.00000  Uiso   1.00
O523   O     0.50000   0.43892   0.53821   0.00000  Uiso   1.00
O524   O     0.50000   0.56108   0.46179   0.00000  Uiso   1.00
O525   O     0.50000   0.43893   0.46176   0.00000  Uiso   1.00
O526   O     0.50000   0.56107   0.53824   0.00000  Uiso   1.00
O527   O     0.42392   0.50000   0.52928   0.00000  Uiso   1.00
O528   O     0.57608   0.50000   0.47072   0.00000  Uiso   1.00
O529   O     0.42392   0.50000   0.45284   0.00000  Uiso   1.00
O530   O     0.57608   0.50000   0.54716   0.00000  Uiso   1.00
Zn531  Zn    0.50000   0.49999   0.55104   0.00000  Uiso   1.00
Zn532  Zn    0.50000   0.50001   0.44896   0.00000  Uiso   1.00
C533   C     0.83331   0.41997   0.49999   0.00000  Uiso   1.00
C534   C     0.81900   0.35461   0.53770   0.00000  Uiso   1.00
C535   C     0.83334   0.62418   0.50000   0.00000  Uiso   1.00
C536   C     0.83332   0.37583   0.50000   0.00000  Uiso   1.00
C537   C     0.86691   0.52511   0.36136   0.00000  Uiso   1.00
C538   C     0.79976   0.47489   0.63864   0.00000  Uiso   1.00
C539   C     0.86689   0.52510   0.64672   0.00000  Uiso   1.00
C540   C     0.79978   0.47490   0.35328   0.00000  Uiso   1.00
C541   C     0.83335   0.58003   0.50001   0.00000  Uiso   1.00
C542   C     0.73381   0.49976   0.48842   0.00000  Uiso   1.00
C543   C     0.93286   0.50024   0.51158   0.00000  Uiso   1.00
C544   C     0.67988   0.49228   0.48384   0.00000  Uiso   1.00
C545   C     0.98679   0.50772   0.51616   0.00000  Uiso   1.00
C546   C     0.84766   0.35472   0.46230   0.00000  Uiso   1.00
C547   C     0.81901   0.64528   0.53770   0.00000  Uiso   1.00
C548   C     0.84766   0.64539   0.46230   0.00000  Uiso   1.00
H549   H     0.85924   0.37108   0.43317   0.00000  Uiso   1.00
H550   H     0.80743   0.62892   0.56683   0.00000  Uiso   1.00
H551   H     0.89371   0.54517   0.63177   0.00000  Uiso   1.00
H552   H     0.77296   0.45483   0.36823   0.00000  Uiso   1.00
H553   H     0.85924   0.62912   0.43317   0.00000  Uiso   1.00
H554   H     0.80742   0.37088   0.56683   0.00000  Uiso   1.00
H555   H     0.89375   0.54517   0.38277   0.00000  Uiso   1.00
H556   H     0.77292   0.45483   0.61723   0.00000  Uiso   1.00
I557   I     0.98586   0.44588   0.43345   0.00000  Uiso   1.00
I558   I     0.68081   0.55411   0.56655   0.00000  Uiso   1.00
N559   N     0.83332   0.49999   0.61907   0.00000  Uiso   1.00
N560   N     0.83335   0.50001   0.38093   0.00000  Uiso   1.00
O561   O     0.83333   0.43892   0.53821   0.00000  Uiso   1.00
O562   O     0.83334   0.56108   0.46179   0.00000  Uiso   1.00
O563   O     0.83333   0.43893   0.46176   0.00000  Uiso   1.00
O564   O     0.83334   0.56107   0.53824   0.00000  Uiso   1.00
O565   O     0.75725   0.50000   0.52928   0.00000  Uiso   1.00
O566   O     0.90942   0.50000   0.47072   0.00000  Uiso   1.00
O567   O     0.75725   0.50000   0.45284   0.00000  Uiso   1.00
O568   O     0.90942   0.50000   0.54716   0.00000  Uiso   1.00
Zn569  Zn    0.83333   0.49999   0.55104   0.00000  Uiso   1.00
Zn570  Zn    0.83333   0.50001   0.44896   0.00000  Uiso   1.00
C571   C     0.16665   0.75330   0.49999   0.00000  Uiso   1.00
C572   C     0.15233   0.68794   0.53770   0.00000  Uiso   1.00
C573   C     0.16668   0.95751   0.50000   0.00000  Uiso   1.00
C574   C     0.16666   0.70916   0.50000   0.00000  Uiso   1.00
C575   C     0.20024   0.85844   0.36136   0.00000  Uiso   1.00
C576   C     0.13309   0.80823   0.63864   0.00000  Uiso   1.00
C577   C     0.20022   0.85843   0.64672   0.00000  Uiso   1.00
C578   C     0.13311   0.80823   0.35328   0.00000  Uiso   1.00
C579   C     0.16669   0.91337   0.50001   0.00000  Uiso   1.00
C580   C     0.06714   0.83309   0.48842   0.00000  Uiso   1.00
C581   C     0.26619   0.83357   0.51158   0.00000  Uiso   1.00
C582   C     0.01321   0.82562   0.48384   0.00000  Uiso   1.00
C583   C     0.32012   0.84105   0.51616   0.00000  Uiso   1.00
C584   C     0.18099   0.68806   0.46230   0.00000  Uiso   1.00
C585   C     0.15234   0.97861   0.53770   0.00000  Uiso   1.00
C586   C     0.18100   0.97872   0.46230   0.00000  Uiso   1.00
H587   H     0.19257   0.70441   0.43317   0.00000  Uiso   1.00
H588   H     0.14076   0.96225   0.56683   0.00000  Uiso   1.00
H589   H     0.22704   0.87850   0.63177   0.00000  Uiso   1.00
H590   H     0.10629   0.78817   0.36823   0.00000  Uiso   1.00
H591   H     0.19258   0.96245   0.43317   0.00000  Uiso   1.00
H592   H     0.14076   0.70421   0.56683   0.00000  Uiso   1.00
H593   H     0.22708   0.87850   0.38277   0.00000  Uiso   1.00
H594   H     0.10625   0.78816   0.61723   0.00000  Uiso   1.00
I595   I     0.31919   0.77922   0.43345   0.00000  Uiso   1.00
I596   I     0.01414   0.88745   0.56655   0.00000  Uiso   1.00
N597   N     0.16665   0.83332   0.61907   0.00000  Uiso   1.00
N598   N     0.16668   0.83334   0.38093   0.00000  Uiso   1.00
O599   O     0.16666   0.77225   0.53821   0.00000  Uiso   1.00
O600   O     0.16667   0.89442   0.46179   0.00000  Uiso   1.00
O601   O     0.16666   0.77226   0.46176   0.00000  Uiso   1.00
O602   O     0.16667   0.89441   0.53824   0.00000  Uiso   1.00
O603   O     0.09058   0.83333   0.52928   0.00000  Uiso   1.00
O604   O     0.24275   0.83334   0.47072   0.00000  Uiso   1.00
O605   O     0.09058   0.83334   0.45284   0.00000  Uiso   1.00
O606   O     0.24275   0.83333   0.54716   0.00000  Uiso   1.00
Zn607  Zn    0.16667   0.83333   0.55104   0.00000  Uiso   1.00
Zn608  Zn    0.16667   0.83334   0.44896   0.00000  Uiso   1.00
C609   C     0.49998   0.75330   0.49999   0.00000  Uiso   1.00
C610   C     0.48567   0.68794   0.53770   0.00000  Uiso   1.00
C611   C     0.50001   0.95751   0.50000   0.00000  Uiso   1.00
C612   C     0.49999   0.70916   0.50000   0.00000  Uiso   1.00
C613   C     0.53357   0.85844   0.36136   0.00000  Uiso   1.00
C614   C     0.46643   0.80823   0.63864   0.00000  Uiso   1.00
C615   C     0.53355   0.85843   0.64672   0.00000  Uiso   1.00
C616   C     0.46645   0.80823   0.35328   0.00000  Uiso   1.00
C617   C     0.50002   0.91337   0.50001   0.00000  Uiso   1.00
C618   C     0.40048   0.83309   0.48842   0.00000  Uiso   1.00
C619   C     0.59952   0.83357   0.51158   0.00000  Uiso   1.00
C620   C     0.34655   0.82562   0.48384   0.00000  Uiso   1.00
C621   C     0.65345   0.84105   0.51616   0.00000  Uiso   1.00
C622   C     0.51432   0.68806   0.46230   0.00000  Uiso   1.00
C623   C     0.48568   0.97861   0.53770   0.00000  Uiso   1.00
C624   C     0.51433   0.97872   0.46230   0.00000  Uiso   1.00
H625   H     0.52591   0.70441   0.43317   0.00000  Uiso   1.00
H626   H     0.47409   0.96225   0.56683   0.00000  Uiso   1.00
H627   H     0.56038   0.87850   0.63177   0.00000  Uiso   1.00
H628   H     0.43962   0.78817   0.36823   0.00000  Uiso   1.00
H629   H     0.52591   0.96245   0.43317   0.00000  Uiso   1.00
H630   H     0.47409   0.70421   0.56683   0.00000  Uiso   1.00
H631   H     0.56042   0.87850   0.38277   0.00000  Uiso   1.00
H632   H     0.43958   0.78816   0.61723   0.00000  Uiso   1.00
I633   I     0.65253   0.77922   0.43345   0.00000  Uiso   1.00
I634   I     0.34747   0.88745   0.56655   0.00000  Uiso   1.00
N635   N     0.49999   0.83332   0.61907   0.00000  Uiso   1.00
N636   N     0.50001   0.83334   0.38093   0.00000  Uiso   1.00
O637   O     0.50000   0.77225   0.53821   0.00000  Uiso   1.00
O638   O     0.50000   0.89442   0.46179   0.00000  Uiso   1.00
O639   O     0.50000   0.77226   0.46176   0.00000  Uiso   1.00
O640   O     0.50000   0.89441   0.53824   0.00000  Uiso   1.00
O641   O     0.42392   0.83333   0.52928   0.00000  Uiso   1.00
O642   O     0.57608   0.83334   0.47072   0.00000  Uiso   1.00
O643   O     0.42392   0.83334   0.45284   0.00000  Uiso   1.00
O644   O     0.57608   0.83333   0.54716   0.00000  Uiso   1.00
Zn645  Zn    0.50000   0.83333   0.55104   0.00000  Uiso   1.00
Zn646  Zn    0.50000   0.83334   0.44896   0.00000  Uiso   1.00
C647   C     0.83331   0.75330   0.49999   0.00000  Uiso   1.00
C648   C     0.81900   0.68794   0.53770   0.00000  Uiso   1.00
C649   C     0.83334   0.95751   0.50000   0.00000  Uiso   1.00
C650   C     0.83332   0.70916   0.50000   0.00000  Uiso   1.00
C651   C     0.86691   0.85844   0.36136   0.00000  Uiso   1.00
C652   C     0.79976   0.80823   0.63864   0.00000  Uiso   1.00
C653   C     0.86689   0.85843   0.64672   0.00000  Uiso   1.00
C654   C     0.79978   0.80823   0.35328   0.00000  Uiso   1.00
C655   C     0.83335   0.91337   0.50001   0.00000  Uiso   1.00
C656   C     0.73381   0.83309   0.48842   0.00000  Uiso   1.00
C657   C     0.93286   0.83357   0.51158   0.00000  Uiso   1.00
C658   C     0.67988   0.82562   0.48384   0.00000  Uiso   1.00
C659   C     0.98679   0.84105   0.51616   0.00000  Uiso   1.00
C660   C     0.84766   0.68806   0.46230   0.00000  Uiso   1.00
C661   C     0.81901   0.97861   0.53770   0.00000  Uiso   1.00
C662   C     0.84766   0.97872   0.46230   0.00000  Uiso   1.00
H663   H     0.85924   0.70441   0.43317   0.00000  Uiso   1.00
H664   H     0.80743   0.96225   0.56683   0.00000  Uiso   1.00
H665   H     0.89371   0.87850   0.63177   0.00000  Uiso   1.00
H666   H     0.77296   0.78817   0.36823   0.00000  Uiso   1.00
H667   H     0.85924   0.96245   0.43317   0.00000  Uiso   1.00
H668   H     0.80742   0.70421   0.56683   0.00000  Uiso   1.00
H669   H     0.89375   0.87850   0.38277   0.00000  Uiso   1.00
H670   H     0.77292   0.78816   0.61723   0.00000  Uiso   1.00
I671   I     0.98586   0.77922   0.43345   0.00000  Uiso   1.00
I672   I     0.68081   0.88745   0.56655   0.00000  Uiso   1.00
N673   N     0.83332   0.83332   0.61907   0.00000  Uiso   1.00
N674   N     0.83335   0.83334   0.38093   0.00000  Uiso   1.00
O675   O     0.83333   0.77225   0.53821   0.00000  Uiso   1.00
O676   O     0.83334   0.89442   0.46179   0.00000  Uiso   1.00
O677   O     0.83333   0.77226   0.46176   0.00000  Uiso   1.00
O678   O     0.83334   0.89441   0.53824   0.00000  Uiso   1.00
O679   O     0.75725   0.83333   0.52928   0.00000  Uiso   1.00
O680   O     0.90942   0.83334   0.47072   0.00000  Uiso   1.00
O681   O     0.75725   0.83334   0.45284   0.00000  Uiso   1.00
O682   O     0.90942   0.83333   0.54716   0.00000  Uiso   1.00
Zn683  Zn    0.83333   0.83333   0.55104   0.00000  Uiso   1.00
Zn684  Zn    0.83333   0.83334   0.44896   0.00000  Uiso   1.00
C685   C     0.16665   0.08663   0.83332   0.00000  Uiso   1.00
C686   C     0.15233   0.02128   0.87103   0.00000  Uiso   1.00
C687   C     0.16668   0.29084   0.83333   0.00000  Uiso   1.00
C688   C     0.16666   0.04249   0.83333   0.00000  Uiso   1.00
C689   C     0.20024   0.19177   0.69469   0.00000  Uiso   1.00
C690   C     0.13309   0.14156   0.97197   0.00000  Uiso   1.00
C691   C     0.20022   0.19177   0.98006   0.00000  Uiso   1.00
C692   C     0.13311   0.14157   0.68661   0.00000  Uiso   1.00
C693   C     0.16669   0.24670   0.83334   0.00000  Uiso   1.00
C694   C     0.06714   0.16643   0.82176   0.00000  Uiso   1.00
C695   C     0.26619   0.16691   0.84491   0.00000  Uiso   1.00
C696   C     0.01321   0.15895   0.81717   0.00000  Uiso   1.00
C697   C     0.32012   0.17438   0.84950   0.00000  Uiso   1.00
C698   C     0.18099   0.02139   0.79564   0.00000  Uiso   1.00
C699   C     0.15234   0.31194   0.87103   0.00000  Uiso   1.00
C700   C     0.18100   0.31206   0.79564   0.00000  Uiso   1.00
H701   H     0.19257   0.03775   0.76651   0.00000  Uiso   1.00
H702   H     0.14076   0.29559   0.90016   0.00000  Uiso   1.00
H703   H     0.22704   0.21183   0.96510   0.00000  Uiso   1.00
H704   H     0.10629   0.12150   0.70156   0.00000  Uiso   1.00
H705   H     0.19258   0.29579   0.76651   0.00000  Uiso   1.00
H706   H     0.14076   0.03755   0.90016   0.00000  Uiso   1.00
H707   H     0.22708   0.21184   0.71611   0.00000  Uiso   1.00
H708   H     0.10625   0.12150   0.95056   0.00000  Uiso   1.00
I709   I     0.31919   0.11255   0.76678   0.00000  Uiso   1.00
I710   I     0.01414   0.22078   0.89988   0.00000  Uiso   1.00
N711   N     0.16665   0.16666   0.95240   0.00000  Uiso   1.00
N712   N     0.16668   0.16668   0.71427   0.00000  Uiso   1.00
O713   O     0.16666   0.10558   0.87154   0.00000  Uiso   1.00
O714   O     0.16667   0.22775   0.79513   0.00000  Uiso   1.00
O715   O     0.16666   0.10559   0.79510   0.00000  Uiso   1.00
O716   O     0.16667   0.22774   0.87157   0.00000  Uiso   1.00
O717   O     0.09058   0.16666   0.86261   0.00000  Uiso   1.00
O718   O     0.24275   0.16667   0.80405   0.00000  Uiso   1.00
O719   O     0.09058   0.16667   0.78617   0.00000  Uiso   1.00
O720   O     0.24275   0.16666   0.88050   0.00000  Uiso   1.00
Zn721  Zn    0.16667   0.16666   0.88437   0.00000  Uiso   1.00
Zn722  Zn    0.16667   0.16667   0.78229   0.00000  Uiso   1.00
C723   C     0.49998   0.08663   0.83332   0.00000  Uiso   1.00
C724   C     0.48567   0.02128   0.87103   0.00000  Uiso   1.00
C725   C     0.50001   0.29084   0.83333   0.00000  Uiso   1.00
C726   C     0.49999   0.04249   0.83333   0.00000  Uiso   1.00
C727   C     0.53357   0.19177   0.69469   0.00000  Uiso   1.00
C728   C     0.46643   0.14156   0.97197   0.00000  Uiso   1.00
C729   C     0.53355   0.19177   0.98006   0.00000  Uiso   1.00
C730   C     0.46645   0.14157   0.68661   0.00000  Uiso   1.00
C731   C     0.50002   0.24670   0.83334   0.00000  Uiso   1.00
C732   C     0.40048   0.16643   0.82176   0.00000  Uiso   1.00
C733   C     0.59952   0.16691   0.84491   0.00000  Uiso   1.00
C734   C     0.34655   0.15895   0.81717   0.00000  Uiso   1.00
C735   C     0.65345   0.17438   0.84950   0.00000  Uiso   1.00
C736   C     0.51432   0.02139   0.79564   0.00000  Uiso   1.00
C737   C     0.48568   0.31194   0.87103   0.00000  Uiso   1.00
C738   C     0.51433   0.31206   0.79564   0.00000  Uiso   1.00
H739   H     0.52591   0.03775   0.76651   0.00000  Uiso   1.00
H740   H     0.47409   0.29559   0.90016   0.00000  Uiso   1.00
H741   H     0.56038   0.21183   0.96510   0.00000  Uiso   1.00
H742   H     0.43962   0.12150   0.70156   0.00000  Uiso   1.00
H743   H     0.52591   0.29579   0.76651   0.00000  Uiso   1.00
H744   H     0.47409   0.03755   0.90016   0.00000  Uiso   1.00
H745   H     0.56042   0.21184   0.71611   0.00000  Uiso   1.00
H746   H     0.43958   0.12150   0.95056   0.00000  Uiso   1.00
I747   I     0.65253   0.11255   0.76678   0.00000  Uiso   1.00
I748   I     0.34747   0.22078   0.89988   0.00000  Uiso   1.00
N749   N     0.49999   0.16666   0.95240   0.00000  Uiso   1.00
N750   N     0.50001   0.16668   0.71427   0.00000  Uiso   1.00
O751   O     0.50000   0.10558   0.87154   0.00000  Uiso   1.00
O752   O     0.50000   0.22775   0.79513   0.00000  Uiso   1.00
O753   O     0.50000   0.10559   0.79510   0.00000  Uiso   1.00
O754   O     0.50000   0.22774   0.87157   0.00000  Uiso   1.00
O755   O     0.42392   0.16666   0.86261   0.00000  Uiso   1.00
O756   O     0.57608   0.16667   0.80405   0.00000  Uiso   1.00
O757   O     0.42392   0.16667   0.78617   0.00000  Uiso   1.00
O758   O     0.57608   0.16666   0.88050   0.00000  Uiso   1.00
Zn759  Zn    0.50000   0.16666   0.88437   0.00000  Uiso   1.00
Zn760  Zn    0.50000   0.16667   0.78229   0.00000  Uiso   1.00
C761   C     0.83331   0.08663   0.83332   0.00000  Uiso   1.00
C762   C     0.81900   0.02128   0.87103   0.00000  Uiso   1.00
C763   C     0.83334   0.29084   0.83333   0.00000  Uiso   1.00
C764   C     0.83332   0.04249   0.83333   0.00000  Uiso   1.00
C765   C     0.86691   0.19177   0.69469   0.00000  Uiso   1.00
C766   C     0.79976   0.14156   0.97197   0.00000  Uiso   1.00
C767   C     0.86689   0.19177   0.98006   0.00000  Uiso   1.00
C768   C     0.79978   0.14157   0.68661   0.00000  Uiso   1.00
C769   C     0.83335   0.24670   0.83334   0.00000  Uiso   1.00
C770   C     0.73381   0.16643   0.82176   0.00000  Uiso   1.00
C771   C     0.93286   0.16691   0.84491   0.00000  Uiso   1.00
C772   C     0.67988   0.15895   0.81717   0.00000  Uiso   1.00
C773   C     0.98679   0.17438   0.84950   0.00000  Uiso   1.00
C774   C     0.84766   0.02139   0.79564   0.00000  Uiso   1.00
C775   C     0.81901   0.31194   0.87103   0.00000  Uiso   1.00
C776   C     0.84766   0.31206   0.79564   0.00000  Uiso   1.00
H777   H     0.85924   0.03775   0.76651   0.00000  Uiso   1.00
H778   H     0.80743   0.29559   0.90016   0.00000  Uiso   1.00
H779   H     0.89371   0.21183   0.96510   0.00000  Uiso   1.00
H780   H     0.77296   0.12150   0.70156   0.00000  Uiso   1.00
H781   H     0.85924   0.29579   0.76651   0.00000  Uiso   1.00
H782   H     0.80742   0.03755   0.90016   0.00000  Uiso   1.00
H783   H     0.89375   0.21184   0.71611   0.00000  Uiso   1.00
H784   H     0.77292   0.12150   0.95056   0.00000  Uiso   1.00
I785   I     0.98586   0.11255   0.76678   0.00000  Uiso   1.00
I786   I     0.68081   0.22078   0.89988   0.00000  Uiso   1.00
N787   N     0.83332   0.16666   0.95240   0.00000  Uiso   1.00
N788   N     0.83335   0.16668   0.71427   0.00000  Uiso   1.00
O789   O     0.83333   0.10558   0.87154   0.00000  Uiso   1.00
O790   O     0.83334   0.22775   0.79513   0.00000  Uiso   1.00
O791   O     0.83333   0.10559   0.79510   0.00000  Uiso   1.00
O792   O     0.83334   0.22774   0.87157   0.00000  Uiso   1.00
O793   O     0.75725   0.16666   0.86261   0.00000  Uiso   1.00
O794   O     0.90942   0.16667   0.80405   0.00000  Uiso   1.00
O795   O     0.75725   0.16667   0.78617   0.00000  Uiso   1.00
O796   O     0.90942   0.16666   0.88050   0.00000  Uiso   1.00
Zn797  Zn    0.83333   0.16666   0.88437   0.00000  Uiso   1.00
Zn798  Zn    0.83333   0.16667   0.78229   0.00000  Uiso   1.00
C799   C     0.16665   0.41997   0.83332   0.00000  Uiso   1.00
C800   C     0.15233   0.35461   0.87103   0.00000  Uiso   1.00
C801   C     0.16668   0.62418   0.83333   0.00000  Uiso   1.00
C802   C     0.16666   0.37583   0.83333   0.00000  Uiso   1.00
C803   C     0.20024   0.52511   0.69469   0.00000  Uiso   1.00
C804   C     0.13309   0.47489   0.97197   0.00000  Uiso   1.00
C805   C     0.20022   0.52510   0.98006   0.00000  Uiso   1.00
C806   C     0.13311   0.47490   0.68661   0.00000  Uiso   1.00
C807   C     0.16669   0.58003   0.83334   0.00000  Uiso   1.00
C808   C     0.06714   0.49976   0.82176   0.00000  Uiso   1.00
C809   C     0.26619   0.50024   0.84491   0.00000  Uiso   1.00
C810   C     0.01321   0.49228   0.81717   0.00000  Uiso   1.00
C811   C     0.32012   0.50772   0.84950   0.00000  Uiso   1.00
C812   C     0.18099   0.35472   0.79564   0.00000  Uiso   1.00
C813   C     0.15234   0.64528   0.87103   0.00000  Uiso   1.00
C814   C     0.18100   0.64539   0.79564   0.00000  Uiso   1.00
H815   H     0.19257   0.37108   0.76651   0.00000  Uiso   1.00
H816   H     0.14076   0.62892   0.90016   0.00000  Uiso   1.00
H817   H     0.22704   0.54517   0.96510   0.00000  Uiso   1.00
H818   H     0.10629   0.45483   0.70156   0.00000  Uiso   1.00
H819   H     0.19258   0.62912   0.76651   0.00000  Uiso   1.00
H820   H     0.14076   0.37088   0.90016   0.00000  Uiso   1.00
H821   H     0.22708   0.54517   0.71611   0.00000  Uiso   1.00
H822   H     0.10625   0.45483   0.95056   0.00000  Uiso   1.00
I823   I     0.31919   0.44588   0.76678   0.00000  Uiso   1.00
I824   I     0.01414   0.55411   0.89988   0.00000  Uiso   1.00
N825   N     0.16665   0.49999   0.95240   0.00000  Uiso   1.00
N826   N     0.16668   0.50001   0.71427   0.00000  Uiso   1.00
O827   O     0.16666   0.43892   0.87154   0.00000  Uiso   1.00
O828   O     0.16667   0.56108   0.79513   0.00000  Uiso   1.00
O829   O     0.16666   0.43893   0.79510   0.00000  Uiso   1.00
O830   O     0.16667   0.56107   0.87157   0.00000  Uiso   1.00
O831   O     0.09058   0.50000   0.86261   0.00000  Uiso   1.00
O832   O     0.24275   0.50000   0.80405   0.00000  Uiso   1.00
O833   O     0.09058   0.50000   0.78617   0.00000  Uiso   1.00
O834   O     0.24275   0.50000   0.88050   0.00000  Uiso   1.00
Zn835  Zn    0.16667   0.49999   0.88437   0.00000  Uiso   1.00
Zn836  Zn    0.16667   0.50001   0.78229   0.00000  Uiso   1.00
C837   C     0.49998   0.41997   0.83332   0.00000  Uiso   1.00
C838   C     0.48567   0.35461   0.87103   0.00000  Uiso   1.00
C839   C     0.50001   0.62418   0.83333   0.00000  Uiso   1.00
C840   C     0.49999   0.37583   0.83333   0.00000  Uiso   1.00
C841   C     0.53357   0.52511   0.69469   0.00000  Uiso   1.00
C842   C     0.46643   0.47489   0.97197   0.00000  Uiso   1.00
C843   C     0.53355   0.52510   0.98006   0.00000  Uiso   1.00
C844   C     0.46645   0.47490   0.68661   0.00000  Uiso   1.00
C845   C     0.50002   0.58003   0.83334   0.00000  Uiso   1.00
C846   C     0.40048   0.49976   0.82176   0.00000  Uiso   1.00
C847   C     0.59952   0.50024   0.84491   0.00000  Uiso   1.00
C848   C     0.34655   0.49228   0.81717   0.00000  Uiso   1.00
C849   C     0.65345   0.50772   0.84950   0.00000  Uiso   1.00
C850   C     0.51432   0.35472   0.79564   0.00000  Uiso   1.00
C851   C     0.48568   0.64528   0.87103   0.00000  Uiso   1.00
C852   C     0.51433   0.64539   0.79564   0.00000  Uiso   1.00
H853   H     0.52591   0.37108   0.76651   0.00000  Uiso   1.00
H854   H     0.47409   0.62892   0.90016   0.00000  Uiso   1.00
H855   H     0.56038   0.54517   0.96510   0.00000  Uiso   1.00
H856   H     0.43962   0.45483   0.70156   0.00000  Uiso   1.00
H857   H     0.52591   0.62912   0.76651   0.00000  Uiso   1.00
H858   H     0.47409   0.37088   0.90016   0.00000  Uiso   1.00
H859   H     0.56042   0.54517   0.71611   0.00000  Uiso   1.00
H860   H     0.43958   0.45483   0.95056   0.00000  Uiso   1.00
I861   I     0.65253   0.44588   0.76678   0.00000  Uiso   1.00
I862   I     0.34747   0.55411   0.89988   0.00000  Uiso   1.00
N863   N     0.49999   0.49999   0.95240   0.00000  Uiso   1.00
N864   N     0.50001   0.50001   0.71427   0.00000  Uiso   1.00
O865   O     0.50000   0.43892   0.87154   0.00000  Uiso   1.00
O866   O     0.50000   0.56108   0.79513   0.00000  Uiso   1.00
O867   O     0.50000   0.43893   0.79510   0.00000  Uiso   1.00
O868   O     0.50000   0.56107   0.87157   0.00000  Uiso   1.00
O869   O     0.42392   0.50000   0.86261   0.00000  Uiso   1.00
O870   O     0.57608   0.50000   0.80405   0.00000  Uiso   1.00
O871   O     0.42392   0.50000   0.78617   0.00000  Uiso   1.00
O872   O     0.57608   0.50000   0.88050   0.00000  Uiso   1.00
Zn873  Zn    0.50000   0.49999   0.88437   0.00000  Uiso   1.00
Zn874  Zn    0.50000   0.50001   0.78229   0.00000  Uiso   1.00
C875   C     0.83331   0.41997   0.83332   0.00000  Uiso   1.00
C876   C     0.81900   0.35461   0.87103   0.00000  Uiso   1.00
C877   C     0.83334   0.62418   0.83333   0.00000  Uiso   1.00
C878   C     0.83332   0.37583   0.83333   0.00000  Uiso   1.00
C879   C     0.86691   0.52511   0.69469   0.00000  Uiso   1.00
C880   C     0.79976   0.47489   0.97197   0.00000  Uiso   1.00
C881   C     0.86689   0.52510   0.98006   0.00000  Uiso   1.00
C882   C     0.79978   0.47490   0.68661   0.00000  Uiso   1.00
C883   C     0.83335   0.58003   0.83334   0.00000  Uiso   1.00
C884   C     0.73381   0.49976   0.82176   0.00000  Uiso   1.00
C885   C     0.93286   0.50024   0.84491   0.00000  Uiso   1.00
C886   C     0.67988   0.49228   0.81717   0.00000  Uiso   1.00
C887   C     0.98679   0.50772   0.84950   0.00000  Uiso   1.00
C888   C     0.84766   0.35472   0.79564   0.00000  Uiso   1.00
C889   C     0.81901   0.64528   0.87103   0.00000  Uiso   1.00
C890   C     0.84766   0.64539   0.79564   0.00000  Uiso   1.00
H891   H     0.85924   0.37108   0.76651   0.00000  Uiso   1.00
H892   H     0.80743   0.62892   0.90016   0.00000  Uiso   1.00
H893   H     0.89371   0.54517   0.96510   0.00000  Uiso   1.00
H894   H     0.77296   0.45483   0.70156   0.00000  Uiso   1.00
H895   H     0.85924   0.62912   0.76651   0.00000  Uiso   1.00
H896   H     0.80742   0.37088   0.90016   0.00000  Uiso   1.00
H897   H     0.89375   0.54517   0.71611   0.00000  Uiso   1.00
H898   H     0.77292   0.45483   0.95056   0.00000  Uiso   1.00
I899   I     0.98586   0.44588   0.76678   0.00000  Uiso   1.00
I900   I     0.68081   0.55411   0.89988   0.00000  Uiso   1.00
N901   N     0.83332   0.49999   0.95240   0.00000  Uiso   1.00
N902   N     0.83335   0.50001   0.71427   0.00000  Uiso   1.00
O903   O     0.83333   0.43892   0.87154   0.00000  Uiso   1.00
O904   O     0.83334   0.56108   0.79513   0.00000  Uiso   1.00
O905   O     0.83333   0.43893   0.79510   0.00000  Uiso   1.00
O906   O     0.83334   0.56107   0.87157   0.00000  Uiso   1.00
O907   O     0.75725   0.50000   0.86261   0.00000  Uiso   1.00
O908   O     0.90942   0.50000   0.80405   0.00000  Uiso   1.00
O909   O     0.75725   0.50000   0.78617   0.00000  Uiso   1.00
O910   O     0.90942   0.50000   0.88050   0.00000  Uiso   1.00
Zn911  Zn    0.83333   0.49999   0.88437   0.00000  Uiso   1.00
Zn912  Zn    0.83333   0.50001   0.78229   0.00000  Uiso   1.00
C913   C     0.16665   0.75330   0.83332   0.00000  Uiso   1.00
C914   C     0.15233   0.68794   0.87103   0.00000  Uiso   1.00
C915   C     0.16668   0.95751   0.83333   0.00000  Uiso   1.00
C916   C     0.16666   0.70916   0.83333   0.00000  Uiso   1.00
C917   C     0.20024   0.85844   0.69469   0.00000  Uiso   1.00
C918   C     0.13309   0.80823   0.97197   0.00000  Uiso   1.00
C919   C     0.20022   0.85843   0.98006   0.00000  Uiso   1.00
C920   C     0.13311   0.80823   0.68661   0.00000  Uiso   1.00
C921   C     0.16669   0.91337   0.83334   0.00000  Uiso   1.00
C922   C     0.06714   0.83309   0.82176   0.00000  Uiso   1.00
C923   C     0.26619   0.83357   0.84491   0.00000  Uiso   1.00
C924   C     0.01321   0.82562   0.81717   0.00000  Uiso   1.00
C925   C     0.32012   0.84105   0.84950   0.00000  Uiso   1.00
C926   C     0.18099   0.68806   0.79564   0.00000  Uiso   1.00
C927   C     0.15234   0.97861   0.87103   0.00000  Uiso   1.00
C928   C     0.18100   0.97872   0.79564   0.00000  Uiso   1.00
H929   H     0.19257   0.70441   0.76651   0.00000  Uiso   1.00
H930   H     0.14076   0.96225   0.90016   0.00000  Uiso   1.00
H931   H     0.22704   0.87850   0.96510   0.00000  Uiso   1.00
H932   H     0.10629   0.78817   0.70156   0.00000  Uiso   1.00
H933   H     0.19258   0.96245   0.76651   0.00000  Uiso   1.00
H934   H     0.14076   0.70421   0.90016   0.00000  Uiso   1.00
H935   H     0.22708   0.87850   0.71611   0.00000  Uiso   1.00
H936   H     0.10625   0.78816   0.95056   0.00000  Uiso   1.00
I937   I     0.31919   0.77922   0.76678   0.00000  Uiso   1.00
I938   I     0.01414   0.88745   0.89988   0.00000  Uiso   1.00
N939   N     0.16665   0.83332   0.95240   0.00000  Uiso   1.00
N940   N     0.16668   0.83334   0.71427   0.00000  Uiso   1.00
O941   O     0.16666   0.77225   0.87154   0.00000  Uiso   1.00
O942   O     0.16667   0.89442   0.79513   0.00000  Uiso   1.00
O943   O     0.16666   0.77226   0.79510   0.00000  Uiso   1.00
O944   O     0.16667   0.89441   0.87157   0.00000  Uiso   1.00
O945   O     0.09058   0.83333   0.86261   0.00000  Uiso   1.00
O946   O     0.24275   0.83334   0.80405   0.00000  Uiso   1.00
O947   O     0.09058   0.83334   0.78617   0.00000  Uiso   1.00
O948   O     0.24275   0.83333   0.88050   0.00000  Uiso   1.00
Zn949  Zn    0.16667   0.83333   0.88437   0.00000  Uiso   1.00
Zn950  Zn    0.16667   0.83334   0.78229   0.00000  Uiso   1.00
C951   C     0.49998   0.75330   0.83332   0.00000  Uiso   1.00
C952   C     0.48567   0.68794   0.87103   0.00000  Uiso   1.00
C953   C     0.50001   0.95751   0.83333   0.00000  Uiso   1.00
C954   C     0.49999   0.70916   0.83333   0.00000  Uiso   1.00
C955   C     0.53357   0.85844   0.69469   0.00000  Uiso   1.00
C956   C     0.46643   0.80823   0.97197   0.00000  Uiso   1.00
C957   C     0.53355   0.85843   0.98006   0.00000  Uiso   1.00
C958   C     0.46645   0.80823   0.68661   0.00000  Uiso   1.00
C959   C     0.50002   0.91337   0.83334   0.00000  Uiso   1.00
C960   C     0.40048   0.83309   0.82176   0.00000  Uiso   1.00
C961   C     0.59952   0.83357   0.84491   0.00000  Uiso   1.00
C962   C     0.34655   0.82562   0.81717   0.00000  Uiso   1.00
C963   C     0.65345   0.84105   0.84950   0.00000  Uiso   1.00
C964   C     0.51432   0.68806   0.79564   0.00000  Uiso   1.00
C965   C     0.48568   0.97861   0.87103   0.00000  Uiso   1.00
C966   C     0.51433   0.97872   0.79564   0.00000  Uiso   1.00
H967   H     0.52591   0.70441   0.76651   0.00000  Uiso   1.00
H968   H     0.47409   0.96225   0.90016   0.00000  Uiso   1.00
H969   H     0.56038   0.87850   0.96510   0.00000  Uiso   1.00
H970   H     0.43962   0.78817   0.70156   0.00000  Uiso   1.00
H971   H     0.52591   0.96245   0.76651   0.00000  Uiso   1.00
H972   H     0.47409   0.70421   0.90016   0.00000  Uiso   1.00
H973   H     0.56042   0.87850   0.71611   0.00000  Uiso   1.00
H974   H     0.43958   0.78816   0.95056   0.00000  Uiso   1.00
I975   I     0.65253   0.77922   0.76678   0.00000  Uiso   1.00
I976   I     0.34747   0.88745   0.89988   0.00000  Uiso   1.00
N977   N     0.49999   0.83332   0.95240   0.00000  Uiso   1.00
N978   N     0.50001   0.83334   0.71427   0.00000  Uiso   1.00
O979   O     0.50000   0.77225   0.87154   0.00000  Uiso   1.00
O980   O     0.50000   0.89442   0.79513   0.00000  Uiso   1.00
O981   O     0.50000   0.77226   0.79510   0.00000  Uiso   1.00
O982   O     0.50000   0.89441   0.87157   0.00000  Uiso   1.00
O983   O     0.42392   0.83333   0.86261   0.00000  Uiso   1.00
O984   O     0.57608   0.83334   0.80405   0.00000  Uiso   1.00
O985   O     0.42392   0.83334   0.78617   0.00000  Uiso   1.00
O986   O     0.57608   0.83333   0.88050   0.00000  Uiso   1.00
Zn987  Zn    0.50000   0.83333   0.88437   0.00000  Uiso   1.00
Zn988  Zn    0.50000   0.83334   0.78229   0.00000  Uiso   1.00
C989   C     0.83331   0.75330   0.83332   0.00000  Uiso   1.00
C990   C     0.81900   0.68794   0.87103   0.00000  Uiso   1.00
C991   C     0.83334   0.95751   0.83333   0.00000  Uiso   1.00
C992   C     0.83332   0.70916   0.83333   0.00000  Uiso   1.00
C993   C     0.86691   0.85844   0.69469   0.00000  Uiso   1.00
C994   C     0.79976   0.80823   0.97197   0.00000  Uiso   1.00
C995   C     0.86689   0.85843   0.98006   0.00000  Uiso   1.00
C996   C     0.79978   0.80823   0.68661   0.00000  Uiso   1.00
C997   C     0.83335   0.91337   0.83334   0.00000  Uiso   1.00
C998   C     0.73381   0.83309   0.82176   0.00000  Uiso   1.00
C999   C     0.93286   0.83357   0.84491   0.00000  Uiso   1.00
C1000  C     0.67988   0.82562   0.81717   0.00000  Uiso   1.00
C1001  C     0.98679   0.84105   0.84950   0.00000  Uiso   1.00
C1002  C     0.84766   0.68806   0.79564   0.00000  Uiso   1.00
C1003  C     0.81901   0.97861   0.87103   0.00000  Uiso   1.00
C1004  C     0.84766   0.97872   0.79564   0.00000  Uiso   1.00
H1005  H     0.85924   0.70441   0.76651   0.00000  Uiso   1.00
H1006  H     0.80743   0.96225   0.90016   0.00000  Uiso   1.00
H1007  H     0.89371   0.87850   0.96510   0.00000  Uiso   1.00
H1008  H     0.77296   0.78817   0.70156   0.00000  Uiso   1.00
H1009  H     0.85924   0.96245   0.76651   0.00000  Uiso   1.00
H1010  H     0.80742   0.70421   0.90016   0.00000  Uiso   1.00
H1011  H     0.89375   0.87850   0.71611   0.00000  Uiso   1.00
H1012  H     0.77292   0.78816   0.95056   0.00000  Uiso   1.00
I1013  I     0.98586   0.77922   0.76678   0.00000  Uiso   1.00
I1014  I     0.68081   0.88745   0.89988   0.00000  Uiso   1.00
N1015  N     0.83332   0.83332   0.95240   0.00000  Uiso   1.00
N1016  N     0.83335   0.83334   0.71427   0.00000  Uiso   1.00
O1017  O     0.83333   0.77225   0.87154   0.00000  Uiso   1.00
O1018  O     0.83334   0.89442   0.79513   0.00000  Uiso   1.00
O1019  O     0.83333   0.77226   0.79510   0.00000  Uiso   1.00
O1020  O     0.83334   0.89441   0.87157   0.00000  Uiso   1.00
O1021  O     0.75725   0.83333   0.86261   0.00000  Uiso   1.00
O1022  O     0.90942   0.83334   0.80405   0.00000  Uiso   1.00
O1023  O     0.75725   0.83334   0.78617   0.00000  Uiso   1.00
O1024  O     0.90942   0.83333   0.88050   0.00000  Uiso   1.00
Zn1025 Zn    0.83333   0.83333   0.88437   0.00000  Uiso   1.00
Zn1026 Zn    0.83333   0.83334   0.78229   0.00000  Uiso   1.00
loop_
_geom_bond_atom_site_label_1
_geom_bond_atom_site_label_2
_geom_bond_distance
_geom_bond_site_symmetry_2
_ccdc_geom_bond_type
C1     C4      1.418   .     S
C1     O29     1.282   .     A
C1     O31     1.282   .     A
C2     H22     1.084   .     S
C2     C4      1.397   .     A
C2     C243    1.370   1_545 S
C3     C9      1.418   .     S
C3     C15     1.397   .     A
C3     C16     1.397   .     A
C4     C14     1.397   .     A
C5     N28     1.366   .     A
C5     H23     1.082   .     S
C5     C691    1.416   1_554 S
C6     N27     1.366   .     A
C6     H24     1.082   .     S
C6     C350    1.416   .     S
C7     N27     1.366   .     A
C7     H19     1.082   .     S
C7     C347    1.416   .     S
C8     H20     1.082   .     S
C8     N28     1.366   .     A
C8     C690    1.416   1_554 S
C9     O30     1.282   .     A
C9     O32     1.282   .     A
C10    C12     1.398   .     S
C10    O33     1.272   .     A
C10    O35     1.283   .     A
C11    C13     1.398   .     S
C11    O36     1.283   .     A
C11    O34     1.272   .     A
C12    C89     1.343   1_455 S
C12    I101    2.153   1_455 S
C13    C50     1.343   .     S
C13    I64     2.153   .     S
C14    H17     1.084   .     S
C14    C244    1.370   1_545 S
C15    H18     1.084   .     S
C15    C116    1.370   .     S
C16    H21     1.084   .     S
C16    C128    1.370   .     S
I25    C50     2.153   .     S
I26    C89     2.153   1_455 S
N27    Zn37    2.008   .     S
N28    Zn38    2.008   .     S
O29    Zn37    1.998   .     S
O30    Zn38    1.998   .     S
O31    Zn38    1.997   .     S
O32    Zn37    1.997   .     S
O33    Zn37    1.977   .     S
O34    Zn38    1.977   .     S
O35    Zn38    1.980   .     S
O36    Zn37    1.980   .     S
C39    C42     1.418   .     S
C39    O67     1.282   .     A
C39    O69     1.282   .     A
C40    H60     1.084   .     S
C40    C42     1.397   .     A
C40    C281    1.370   1_545 S
C41    C47     1.418   .     S
C41    C53     1.397   .     A
C41    C54     1.397   .     A
C42    C52     1.397   .     A
C43    N66     1.366   .     A
C43    H61     1.082   .     S
C43    C729    1.416   1_554 S
C44    N65     1.366   .     A
C44    H62     1.082   .     S
C44    C388    1.416   .     S
C45    N65     1.366   .     A
C45    H57     1.082   .     S
C45    C385    1.416   .     S
C46    H58     1.082   .     S
C46    N66     1.366   .     A
C46    C728    1.416   1_554 S
C47    O68     1.282   .     A
C47    O70     1.282   .     A
C48    C50     1.398   .     S
C48    O71     1.272   .     A
C48    O73     1.283   .     A
C49    C51     1.398   .     S
C49    O74     1.283   .     A
C49    O72     1.272   .     A
C51    C88     1.343   .     S
C51    I102    2.153   .     S
C52    H55     1.084   .     S
C52    C282    1.370   1_545 S
C53    H56     1.084   .     S
C53    C154    1.370   .     S
C54    H59     1.084   .     S
C54    C166    1.370   .     S
I63    C88     2.153   .     S
N65    Zn75    2.008   .     S
N66    Zn76    2.008   .     S
O67    Zn75    1.998   .     S
O68    Zn76    1.998   .     S
O69    Zn76    1.997   .     S
O70    Zn75    1.997   .     S
O71    Zn75    1.977   .     S
O72    Zn76    1.977   .     S
O73    Zn76    1.980   .     S
O74    Zn75    1.980   .     S
C77    C80     1.418   .     S
C77    O105    1.282   .     A
C77    O107    1.282   .     A
C78    H98     1.084   .     S
C78    C80     1.397   .     A
C78    C319    1.370   1_545 S
C79    C85     1.418   .     S
C79    C91     1.397   .     A
C79    C92     1.397   .     A
C80    C90     1.397   .     A
C81    N104    1.366   .     A
C81    H99     1.082   .     S
C81    C767    1.416   1_554 S
C82    N103    1.366   .     A
C82    H100    1.082   .     S
C82    C426    1.416   .     S
C83    N103    1.366   .     A
C83    H95     1.082   .     S
C83    C423    1.416   .     S
C84    H96     1.082   .     S
C84    N104    1.366   .     A
C84    C766    1.416   1_554 S
C85    O106    1.282   .     A
C85    O108    1.282   .     A
C86    C88     1.398   .     S
C86    O109    1.272   .     A
C86    O111    1.283   .     A
C87    C89     1.398   .     S
C87    O112    1.283   .     A
C87    O110    1.272   .     A
C89    C12     1.343   1_655 S
C89    I26     2.153   1_655 S
C90    H93     1.084   .     S
C90    C320    1.370   1_545 S
C91    H94     1.084   .     S
C91    C192    1.370   .     S
C92    H97     1.084   .     S
C92    C204    1.370   .     S
I101   C12     2.153   1_655 S
N103   Zn113   2.008   .     S
N104   Zn114   2.008   .     S
O105   Zn113   1.998   .     S
O106   Zn114   1.998   .     S
O107   Zn114   1.997   .     S
O108   Zn113   1.997   .     S
O109   Zn113   1.977   .     S
O110   Zn114   1.977   .     S
O111   Zn114   1.980   .     S
O112   Zn113   1.980   .     S
C115   C118    1.418   .     S
C115   O143    1.282   .     A
C115   O145    1.282   .     A
C116   H136    1.084   .     S
C116   C118    1.397   .     A
C117   C123    1.418   .     S
C117   C129    1.397   .     A
C117   C130    1.397   .     A
C118   C128    1.397   .     A
C119   N142    1.366   .     A
C119   H137    1.082   .     S
C119   C805    1.416   1_554 S
C120   N141    1.366   .     A
C120   H138    1.082   .     S
C120   C464    1.416   .     S
C121   N141    1.366   .     A
C121   H133    1.082   .     S
C121   C461    1.416   .     S
C122   H134    1.082   .     S
C122   N142    1.366   .     A
C122   C804    1.416   1_554 S
C123   O144    1.282   .     A
C123   O146    1.282   .     A
C124   C126    1.398   .     S
C124   O147    1.272   .     A
C124   O149    1.283   .     A
C125   C127    1.398   .     S
C125   O150    1.283   .     A
C125   O148    1.272   .     A
C126   C203    1.343   1_455 S
C126   I215    2.153   1_455 S
C127   C164    1.343   .     S
C127   I178    2.153   .     S
C128   H131    1.084   .     S
C129   H132    1.084   .     S
C129   C230    1.370   .     S
C130   H135    1.084   .     S
C130   C242    1.370   .     S
I139   C164    2.153   .     S
I140   C203    2.153   1_455 S
N141   Zn151   2.008   .     S
N142   Zn152   2.008   .     S
O143   Zn151   1.998   .     S
O144   Zn152   1.998   .     S
O145   Zn152   1.997   .     S
O146   Zn151   1.997   .     S
O147   Zn151   1.977   .     S
O148   Zn152   1.977   .     S
O149   Zn152   1.980   .     S
O150   Zn151   1.980   .     S
C153   C156    1.418   .     S
C153   O181    1.282   .     A
C153   O183    1.282   .     A
C154   H174    1.084   .     S
C154   C156    1.397   .     A
C155   C161    1.418   .     S
C155   C167    1.397   .     A
C155   C168    1.397   .     A
C156   C166    1.397   .     A
C157   N180    1.366   .     A
C157   H175    1.082   .     S
C157   C843    1.416   1_554 S
C158   N179    1.366   .     A
C158   H176    1.082   .     S
C158   C502    1.416   .     S
C159   N179    1.366   .     A
C159   H171    1.082   .     S
C159   C499    1.416   .     S
C160   H172    1.082   .     S
C160   N180    1.366   .     A
C160   C842    1.416   1_554 S
C161   O182    1.282   .     A
C161   O184    1.282   .     A
C162   C164    1.398   .     S
C162   O185    1.272   .     A
C162   O187    1.283   .     A
C163   C165    1.398   .     S
C163   O188    1.283   .     A
C163   O186    1.272   .     A
C165   C202    1.343   .     S
C165   I216    2.153   .     S
C166   H169    1.084   .     S
C167   H170    1.084   .     S
C167   C268    1.370   .     S
C168   H173    1.084   .     S
C168   C280    1.370   .     S
I177   C202    2.153   .     S
N179   Zn189   2.008   .     S
N180   Zn190   2.008   .     S
O181   Zn189   1.998   .     S
O182   Zn190   1.998   .     S
O183   Zn190   1.997   .     S
O184   Zn189   1.997   .     S
O185   Zn189   1.977   .     S
O186   Zn190   1.977   .     S
O187   Zn190   1.980   .     S
O188   Zn189   1.980   .     S
C191   C194    1.418   .     S
C191   O219    1.282   .     A
C191   O221    1.282   .     A
C192   H212    1.084   .     S
C192   C194    1.397   .     A
C193   C199    1.418   .     S
C193   C205    1.397   .     A
C193   C206    1.397   .     A
C194   C204    1.397   .     A
C195   N218    1.366   .     A
C195   H213    1.082   .     S
C195   C881    1.416   1_554 S
C196   N217    1.366   .     A
C196   H214    1.082   .     S
C196   C540    1.416   .     S
C197   N217    1.366   .     A
C197   H209    1.082   .     S
C197   C537    1.416   .     S
C198   H210    1.082   .     S
C198   N218    1.366   .     A
C198   C880    1.416   1_554 S
C199   O220    1.282   .     A
C199   O222    1.282   .     A
C200   C202    1.398   .     S
C200   O223    1.272   .     A
C200   O225    1.283   .     A
C201   C203    1.398   .     S
C201   O226    1.283   .     A
C201   O224    1.272   .     A
C203   C126    1.343   1_655 S
C203   I140    2.153   1_655 S
C204   H207    1.084   .     S
C205   H208    1.084   .     S
C205   C306    1.370   .     S
C206   H211    1.084   .     S
C206   C318    1.370   .     S
I215   C126    2.153   1_655 S
N217   Zn227   2.008   .     S
N218   Zn228   2.008   .     S
O219   Zn227   1.998   .     S
O220   Zn228   1.998   .     S
O221   Zn228   1.997   .     S
O222   Zn227   1.997   .     S
O223   Zn227   1.977   .     S
O224   Zn228   1.977   .     S
O225   Zn228   1.980   .     S
O226   Zn227   1.980   .     S
C229   C232    1.418   .     S
C229   O257    1.282   .     A
C229   O259    1.282   .     A
C230   H250    1.084   .     S
C230   C232    1.397   .     A
C231   C237    1.418   .     S
C231   C243    1.397   .     A
C231   C244    1.397   .     A
C232   C242    1.397   .     A
C233   N256    1.366   .     A
C233   H251    1.082   .     S
C233   C919    1.416   1_554 S
C234   N255    1.366   .     A
C234   H252    1.082   .     S
C234   C578    1.416   .     S
C235   N255    1.366   .     A
C235   H247    1.082   .     S
C235   C575    1.416   .     S
C236   H248    1.082   .     S
C236   N256    1.366   .     A
C236   C918    1.416   1_554 S
C237   O258    1.282   .     A
C237   O260    1.282   .     A
C238   C240    1.398   .     S
C238   O261    1.272   .     A
C238   O263    1.283   .     A
C239   C241    1.398   .     S
C239   O264    1.283   .     A
C239   O262    1.272   .     A
C240   C317    1.343   1_455 S
C240   I329    2.153   1_455 S
C241   C278    1.343   .     S
C241   I292    2.153   .     S
C242   H245    1.084   .     S
C243   H246    1.084   .     S
C243   C2      1.370   1_565 S
C244   H249    1.084   .     S
C244   C14     1.370   1_565 S
I253   C278    2.153   .     S
I254   C317    2.153   1_455 S
N255   Zn265   2.008   .     S
N256   Zn266   2.008   .     S
O257   Zn265   1.998   .     S
O258   Zn266   1.998   .     S
O259   Zn266   1.997   .     S
O260   Zn265   1.997   .     S
O261   Zn265   1.977   .     S
O262   Zn266   1.977   .     S
O263   Zn266   1.980   .     S
O264   Zn265   1.980   .     S
C267   C270    1.418   .     S
C267   O295    1.282   .     A
C267   O297    1.282   .     A
C268   H288    1.084   .     S
C268   C270    1.397   .     A
C269   C275    1.418   .     S
C269   C281    1.397   .     A
C269   C282    1.397   .     A
C270   C280    1.397   .     A
C271   N294    1.366   .     A
C271   H289    1.082   .     S
C271   C957    1.416   1_554 S
C272   N293    1.366   .     A
C272   H290    1.082   .     S
C272   C616    1.416   .     S
C273   N293    1.366   .     A
C273   H285    1.082   .     S
C273   C613    1.416   .     S
C274   H286    1.082   .     S
C274   N294    1.366   .     A
C274   C956    1.416   1_554 S
C275   O296    1.282   .     A
C275   O298    1.282   .     A
C276   C278    1.398   .     S
C276   O299    1.272   .     A
C276   O301    1.283   .     A
C277   C279    1.398   .     S
C277   O302    1.283   .     A
C277   O300    1.272   .     A
C279   C316    1.343   .     S
C279   I330    2.153   .     S
C280   H283    1.084   .     S
C281   H284    1.084   .     S
C281   C40     1.370   1_565 S
C282   H287    1.084   .     S
C282   C52     1.370   1_565 S
I291   C316    2.153   .     S
N293   Zn303   2.008   .     S
N294   Zn304   2.008   .     S
O295   Zn303   1.998   .     S
O296   Zn304   1.998   .     S
O297   Zn304   1.997   .     S
O298   Zn303   1.997   .     S
O299   Zn303   1.977   .     S
O300   Zn304   1.977   .     S
O301   Zn304   1.980   .     S
O302   Zn303   1.980   .     S
C305   C308    1.418   .     S
C305   O333    1.282   .     A
C305   O335    1.282   .     A
C306   H326    1.084   .     S
C306   C308    1.397   .     A
C307   C313    1.418   .     S
C307   C319    1.397   .     A
C307   C320    1.397   .     A
C308   C318    1.397   .     A
C309   N332    1.366   .     A
C309   H327    1.082   .     S
C309   C995    1.416   1_554 S
C310   N331    1.366   .     A
C310   H328    1.082   .     S
C310   C654    1.416   .     S
C311   N331    1.366   .     A
C311   H323    1.082   .     S
C311   C651    1.416   .     S
C312   H324    1.082   .     S
C312   N332    1.366   .     A
C312   C994    1.416   1_554 S
C313   O334    1.282   .     A
C313   O336    1.282   .     A
C314   C316    1.398   .     S
C314   O337    1.272   .     A
C314   O339    1.283   .     A
C315   C317    1.398   .     S
C315   O340    1.283   .     A
C315   O338    1.272   .     A
C317   C240    1.343   1_655 S
C317   I254    2.153   1_655 S
C318   H321    1.084   .     S
C319   H322    1.084   .     S
C319   C78     1.370   1_565 S
C320   H325    1.084   .     S
C320   C90     1.370   1_565 S
I329   C240    2.153   1_655 S
N331   Zn341   2.008   .     S
N332   Zn342   2.008   .     S
O333   Zn341   1.998   .     S
O334   Zn342   1.998   .     S
O335   Zn342   1.997   .     S
O336   Zn341   1.997   .     S
O337   Zn341   1.977   .     S
O338   Zn342   1.977   .     S
O339   Zn342   1.980   .     S
O340   Zn341   1.980   .     S
C343   C346    1.418   .     S
C343   O371    1.282   .     A
C343   O373    1.282   .     A
C344   H364    1.084   .     S
C344   C346    1.397   .     A
C344   C585    1.370   1_545 S
C345   C351    1.418   .     S
C345   C357    1.397   .     A
C345   C358    1.397   .     A
C346   C356    1.397   .     A
C347   N370    1.366   .     A
C347   H365    1.082   .     S
C348   N369    1.366   .     A
C348   H366    1.082   .     S
C348   C692    1.416   .     S
C349   N369    1.366   .     A
C349   H361    1.082   .     S
C349   C689    1.416   .     S
C350   H362    1.082   .     S
C350   N370    1.366   .     A
C351   O372    1.282   .     A
C351   O374    1.282   .     A
C352   C354    1.398   .     S
C352   O375    1.272   .     A
C352   O377    1.283   .     A
C353   C355    1.398   .     S
C353   O378    1.283   .     A
C353   O376    1.272   .     A
C354   C431    1.343   1_455 S
C354   I443    2.153   1_455 S
C355   C392    1.343   .     S
C355   I406    2.153   .     S
C356   H359    1.084   .     S
C356   C586    1.370   1_545 S
C357   H360    1.084   .     S
C357   C458    1.370   .     S
C358   H363    1.084   .     S
C358   C470    1.370   .     S
I367   C392    2.153   .     S
I368   C431    2.153   1_455 S
N369   Zn379   2.008   .     S
N370   Zn380   2.008   .     S
O371   Zn379   1.998   .     S
O372   Zn380   1.998   .     S
O373   Zn380   1.997   .     S
O374   Zn379   1.997   .     S
O375   Zn379   1.977   .     S
O376   Zn380   1.977   .     S
O377   Zn380   1.980   .     S
O378   Zn379   1.980   .     S
C381   C384    1.418   .     S
C381   O409    1.282   .     A
C381   O411    1.282   .     A
C382   H402    1.084   .     S
C382   C384    1.397   .     A
C382   C623    1.370   1_545 S
C383   C389    1.418   .     S
C383   C395    1.397   .     A
C383   C396    1.397   .     A
C384   C394    1.397   .     A
C385   N408    1.366   .     A
C385   H403    1.082   .     S
C386   N407    1.366   .     A
C386   H404    1.082   .     S
C386   C730    1.416   .     S
C387   N407    1.366   .     A
C387   H399    1.082   .     S
C387   C727    1.416   .     S
C388   H400    1.082   .     S
C388   N408    1.366   .     A
C389   O410    1.282   .     A
C389   O412    1.282   .     A
C390   C392    1.398   .     S
C390   O413    1.272   .     A
C390   O415    1.283   .     A
C391   C393    1.398   .     S
C391   O416    1.283   .     A
C391   O414    1.272   .     A
C393   C430    1.343   .     S
C393   I444    2.153   .     S
C394   H397    1.084   .     S
C394   C624    1.370   1_545 S
C395   H398    1.084   .     S
C395   C496    1.370   .     S
C396   H401    1.084   .     S
C396   C508    1.370   .     S
I405   C430    2.153   .     S
N407   Zn417   2.008   .     S
N408   Zn418   2.008   .     S
O409   Zn417   1.998   .     S
O410   Zn418   1.998   .     S
O411   Zn418   1.997   .     S
O412   Zn417   1.997   .     S
O413   Zn417   1.977   .     S
O414   Zn418   1.977   .     S
O415   Zn418   1.980   .     S
O416   Zn417   1.980   .     S
C419   C422    1.418   .     S
C419   O447    1.282   .     A
C419   O449    1.282   .     A
C420   H440    1.084   .     S
C420   C422    1.397   .     A
C420   C661    1.370   1_545 S
C421   C427    1.418   .     S
C421   C433    1.397   .     A
C421   C434    1.397   .     A
C422   C432    1.397   .     A
C423   N446    1.366   .     A
C423   H441    1.082   .     S
C424   N445    1.366   .     A
C424   H442    1.082   .     S
C424   C768    1.416   .     S
C425   N445    1.366   .     A
C425   H437    1.082   .     S
C425   C765    1.416   .     S
C426   H438    1.082   .     S
C426   N446    1.366   .     A
C427   O448    1.282   .     A
C427   O450    1.282   .     A
C428   C430    1.398   .     S
C428   O451    1.272   .     A
C428   O453    1.283   .     A
C429   C431    1.398   .     S
C429   O454    1.283   .     A
C429   O452    1.272   .     A
C431   C354    1.343   1_655 S
C431   I368    2.153   1_655 S
C432   H435    1.084   .     S
C432   C662    1.370   1_545 S
C433   H436    1.084   .     S
C433   C534    1.370   .     S
C434   H439    1.084   .     S
C434   C546    1.370   .     S
I443   C354    2.153   1_655 S
N445   Zn455   2.008   .     S
N446   Zn456   2.008   .     S
O447   Zn455   1.998   .     S
O448   Zn456   1.998   .     S
O449   Zn456   1.997   .     S
O450   Zn455   1.997   .     S
O451   Zn455   1.977   .     S
O452   Zn456   1.977   .     S
O453   Zn456   1.980   .     S
O454   Zn455   1.980   .     S
C457   C460    1.418   .     S
C457   O485    1.282   .     A
C457   O487    1.282   .     A
C458   H478    1.084   .     S
C458   C460    1.397   .     A
C459   C465    1.418   .     S
C459   C471    1.397   .     A
C459   C472    1.397   .     A
C460   C470    1.397   .     A
C461   N484    1.366   .     A
C461   H479    1.082   .     S
C462   N483    1.366   .     A
C462   H480    1.082   .     S
C462   C806    1.416   .     S
C463   N483    1.366   .     A
C463   H475    1.082   .     S
C463   C803    1.416   .     S
C464   H476    1.082   .     S
C464   N484    1.366   .     A
C465   O486    1.282   .     A
C465   O488    1.282   .     A
C466   C468    1.398   .     S
C466   O489    1.272   .     A
C466   O491    1.283   .     A
C467   C469    1.398   .     S
C467   O492    1.283   .     A
C467   O490    1.272   .     A
C468   C545    1.343   1_455 S
C468   I557    2.153   1_455 S
C469   C506    1.343   .     S
C469   I520    2.153   .     S
C470   H473    1.084   .     S
C471   H474    1.084   .     S
C471   C572    1.370   .     S
C472   H477    1.084   .     S
C472   C584    1.370   .     S
I481   C506    2.153   .     S
I482   C545    2.153   1_455 S
N483   Zn493   2.008   .     S
N484   Zn494   2.008   .     S
O485   Zn493   1.998   .     S
O486   Zn494   1.998   .     S
O487   Zn494   1.997   .     S
O488   Zn493   1.997   .     S
O489   Zn493   1.977   .     S
O490   Zn494   1.977   .     S
O491   Zn494   1.980   .     S
O492   Zn493   1.980   .     S
C495   C498    1.418   .     S
C495   O523    1.282   .     A
C495   O525    1.282   .     A
C496   H516    1.084   .     S
C496   C498    1.397   .     A
C497   C503    1.418   .     S
C497   C509    1.397   .     A
C497   C510    1.397   .     A
C498   C508    1.397   .     A
C499   N522    1.366   .     A
C499   H517    1.082   .     S
C500   N521    1.366   .     A
C500   H518    1.082   .     S
C500   C844    1.416   .     S
C501   N521    1.366   .     A
C501   H513    1.082   .     S
C501   C841    1.416   .     S
C502   H514    1.082   .     S
C502   N522    1.366   .     A
C503   O524    1.282   .     A
C503   O526    1.282   .     A
C504   C506    1.398   .     S
C504   O527    1.272   .     A
C504   O529    1.283   .     A
C505   C507    1.398   .     S
C505   O530    1.283   .     A
C505   O528    1.272   .     A
C507   C544    1.343   .     S
C507   I558    2.153   .     S
C508   H511    1.084   .     S
C509   H512    1.084   .     S
C509   C610    1.370   .     S
C510   H515    1.084   .     S
C510   C622    1.370   .     S
I519   C544    2.153   .     S
N521   Zn531   2.008   .     S
N522   Zn532   2.008   .     S
O523   Zn531   1.998   .     S
O524   Zn532   1.998   .     S
O525   Zn532   1.997   .     S
O526   Zn531   1.997   .     S
O527   Zn531   1.977   .     S
O528   Zn532   1.977   .     S
O529   Zn532   1.980   .     S
O530   Zn531   1.980   .     S
C533   C536    1.418   .     S
C533   O561    1.282   .     A
C533   O563    1.282   .     A
C534   H554    1.084   .     S
C534   C536    1.397   .     A
C535   C541    1.418   .     S
C535   C547    1.397   .     A
C535   C548    1.397   .     A
C536   C546    1.397   .     A
C537   N560    1.366   .     A
C537   H555    1.082   .     S
C538   N559    1.366   .     A
C538   H556    1.082   .     S
C538   C882    1.416   .     S
C539   N559    1.366   .     A
C539   H551    1.082   .     S
C539   C879    1.416   .     S
C540   H552    1.082   .     S
C540   N560    1.366   .     A
C541   O562    1.282   .     A
C541   O564    1.282   .     A
C542   C544    1.398   .     S
C542   O565    1.272   .     A
C542   O567    1.283   .     A
C543   C545    1.398   .     S
C543   O568    1.283   .     A
C543   O566    1.272   .     A
C545   C468    1.343   1_655 S
C545   I482    2.153   1_655 S
C546   H549    1.084   .     S
C547   H550    1.084   .     S
C547   C648    1.370   .     S
C548   H553    1.084   .     S
C548   C660    1.370   .     S
I557   C468    2.153   1_655 S
N559   Zn569   2.008   .     S
N560   Zn570   2.008   .     S
O561   Zn569   1.998   .     S
O562   Zn570   1.998   .     S
O563   Zn570   1.997   .     S
O564   Zn569   1.997   .     S
O565   Zn569   1.977   .     S
O566   Zn570   1.977   .     S
O567   Zn570   1.980   .     S
O568   Zn569   1.980   .     S
C571   C574    1.418   .     S
C571   O599    1.282   .     A
C571   O601    1.282   .     A
C572   H592    1.084   .     S
C572   C574    1.397   .     A
C573   C579    1.418   .     S
C573   C585    1.397   .     A
C573   C586    1.397   .     A
C574   C584    1.397   .     A
C575   N598    1.366   .     A
C575   H593    1.082   .     S
C576   N597    1.366   .     A
C576   H594    1.082   .     S
C576   C920    1.416   .     S
C577   N597    1.366   .     A
C577   H589    1.082   .     S
C577   C917    1.416   .     S
C578   H590    1.082   .     S
C578   N598    1.366   .     A
C579   O600    1.282   .     A
C579   O602    1.282   .     A
C580   C582    1.398   .     S
C580   O603    1.272   .     A
C580   O605    1.283   .     A
C581   C583    1.398   .     S
C581   O606    1.283   .     A
C581   O604    1.272   .     A
C582   C659    1.343   1_455 S
C582   I671    2.153   1_455 S
C583   C620    1.343   .     S
C583   I634    2.153   .     S
C584   H587    1.084   .     S
C585   H588    1.084   .     S
C585   C344    1.370   1_565 S
C586   H591    1.084   .     S
C586   C356    1.370   1_565 S
I595   C620    2.153   .     S
I596   C659    2.153   1_455 S
N597   Zn607   2.008   .     S
N598   Zn608   2.008   .     S
O599   Zn607   1.998   .     S
O600   Zn608   1.998   .     S
O601   Zn608   1.997   .     S
O602   Zn607   1.997   .     S
O603   Zn607   1.977   .     S
O604   Zn608   1.977   .     S
O605   Zn608   1.980   .     S
O606   Zn607   1.980   .     S
C609   C612    1.418   .     S
C609   O637    1.282   .     A
C609   O639    1.282   .     A
C610   H630    1.084   .     S
C610   C612    1.397   .     A
C611   C617    1.418   .     S
C611   C623    1.397   .     A
C611   C624    1.397   .     A
C612   C622    1.397   .     A
C613   N636    1.366   .     A
C613   H631    1.082   .     S
C614   N635    1.366   .     A
C614   H632    1.082   .     S
C614   C958    1.416   .     S
C615   N635    1.366   .     A
C615   H627    1.082   .     S
C615   C955    1.416   .     S
C616   H628    1.082   .     S
C616   N636    1.366   .     A
C617   O638    1.282   .     A
C617   O640    1.282   .     A
C618   C620    1.398   .     S
C618   O641    1.272   .     A
C618   O643    1.283   .     A
C619   C621    1.398   .     S
C619   O644    1.283   .     A
C619   O642    1.272   .     A
C621   C658    1.343   .     S
C621   I672    2.153   .     S
C622   H625    1.084   .     S
C623   H626    1.084   .     S
C623   C382    1.370   1_565 S
C624   H629    1.084   .     S
C624   C394    1.370   1_565 S
I633   C658    2.153   .     S
N635   Zn645   2.008   .     S
N636   Zn646   2.008   .     S
O637   Zn645   1.998   .     S
O638   Zn646   1.998   .     S
O639   Zn646   1.997   .     S
O640   Zn645   1.997   .     S
O641   Zn645   1.977   .     S
O642   Zn646   1.977   .     S
O643   Zn646   1.980   .     S
O644   Zn645   1.980   .     S
C647   C650    1.418   .     S
C647   O675    1.282   .     A
C647   O677    1.282   .     A
C648   H668    1.084   .     S
C648   C650    1.397   .     A
C649   C655    1.418   .     S
C649   C661    1.397   .     A
C649   C662    1.397   .     A
C650   C660    1.397   .     A
C651   N674    1.366   .     A
C651   H669    1.082   .     S
C652   N673    1.366   .     A
C652   H670    1.082   .     S
C652   C996    1.416   .     S
C653   N673    1.366   .     A
C653   H665    1.082   .     S
C653   C993    1.416   .     S
C654   H666    1.082   .     S
C654   N674    1.366   .     A
C655   O676    1.282   .     A
C655   O678    1.282   .     A
C656   C658    1.398   .     S
C656   O679    1.272   .     A
C656   O681    1.283   .     A
C657   C659    1.398   .     S
C657   O682    1.283   .     A
C657   O680    1.272   .     A
C659   C582    1.343   1_655 S
C659   I596    2.153   1_655 S
C660   H663    1.084   .     S
C661   H664    1.084   .     S
C661   C420    1.370   1_565 S
C662   H667    1.084   .     S
C662   C432    1.370   1_565 S
I671   C582    2.153   1_655 S
N673   Zn683   2.008   .     S
N674   Zn684   2.008   .     S
O675   Zn683   1.998   .     S
O676   Zn684   1.998   .     S
O677   Zn684   1.997   .     S
O678   Zn683   1.997   .     S
O679   Zn683   1.977   .     S
O680   Zn684   1.977   .     S
O681   Zn684   1.980   .     S
O682   Zn683   1.980   .     S
C685   C688    1.418   .     S
C685   O713    1.282   .     A
C685   O715    1.282   .     A
C686   H706    1.084   .     S
C686   C688    1.397   .     A
C686   C927    1.370   1_545 S
C687   C693    1.418   .     S
C687   C699    1.397   .     A
C687   C700    1.397   .     A
C688   C698    1.397   .     A
C689   N712    1.366   .     A
C689   H707    1.082   .     S
C690   N711    1.366   .     A
C690   H708    1.082   .     S
C690   C8      1.416   1_556 S
C691   N711    1.366   .     A
C691   H703    1.082   .     S
C691   C5      1.416   1_556 S
C692   H704    1.082   .     S
C692   N712    1.366   .     A
C693   O714    1.282   .     A
C693   O716    1.282   .     A
C694   C696    1.398   .     S
C694   O717    1.272   .     A
C694   O719    1.283   .     A
C695   C697    1.398   .     S
C695   O720    1.283   .     A
C695   O718    1.272   .     A
C696   C773    1.343   1_455 S
C696   I785    2.153   1_455 S
C697   C734    1.343   .     S
C697   I748    2.153   .     S
C698   H701    1.084   .     S
C698   C928    1.370   1_545 S
C699   H702    1.084   .     S
C699   C800    1.370   .     S
C700   H705    1.084   .     S
C700   C812    1.370   .     S
I709   C734    2.153   .     S
I710   C773    2.153   1_455 S
N711   Zn721   2.008   .     S
N712   Zn722   2.008   .     S
O713   Zn721   1.998   .     S
O714   Zn722   1.998   .     S
O715   Zn722   1.997   .     S
O716   Zn721   1.997   .     S
O717   Zn721   1.977   .     S
O718   Zn722   1.977   .     S
O719   Zn722   1.980   .     S
O720   Zn721   1.980   .     S
C723   C726    1.418   .     S
C723   O751    1.282   .     A
C723   O753    1.282   .     A
C724   H744    1.084   .     S
C724   C726    1.397   .     A
C724   C965    1.370   1_545 S
C725   C731    1.418   .     S
C725   C737    1.397   .     A
C725   C738    1.397   .     A
C726   C736    1.397   .     A
C727   N750    1.366   .     A
C727   H745    1.082   .     S
C728   N749    1.366   .     A
C728   H746    1.082   .     S
C728   C46     1.416   1_556 S
C729   N749    1.366   .     A
C729   H741    1.082   .     S
C729   C43     1.416   1_556 S
C730   H742    1.082   .     S
C730   N750    1.366   .     A
C731   O752    1.282   .     A
C731   O754    1.282   .     A
C732   C734    1.398   .     S
C732   O755    1.272   .     A
C732   O757    1.283   .     A
C733   C735    1.398   .     S
C733   O758    1.283   .     A
C733   O756    1.272   .     A
C735   C772    1.343   .     S
C735   I786    2.153   .     S
C736   H739    1.084   .     S
C736   C966    1.370   1_545 S
C737   H740    1.084   .     S
C737   C838    1.370   .     S
C738   H743    1.084   .     S
C738   C850    1.370   .     S
I747   C772    2.153   .     S
N749   Zn759   2.008   .     S
N750   Zn760   2.008   .     S
O751   Zn759   1.998   .     S
O752   Zn760   1.998   .     S
O753   Zn760   1.997   .     S
O754   Zn759   1.997   .     S
O755   Zn759   1.977   .     S
O756   Zn760   1.977   .     S
O757   Zn760   1.980   .     S
O758   Zn759   1.980   .     S
C761   C764    1.418   .     S
C761   O789    1.282   .     A
C761   O791    1.282   .     A
C762   H782    1.084   .     S
C762   C764    1.397   .     A
C762   C1003   1.370   1_545 S
C763   C769    1.418   .     S
C763   C775    1.397   .     A
C763   C776    1.397   .     A
C764   C774    1.397   .     A
C765   N788    1.366   .     A
C765   H783    1.082   .     S
C766   N787    1.366   .     A
C766   H784    1.082   .     S
C766   C84     1.416   1_556 S
C767   N787    1.366   .     A
C767   H779    1.082   .     S
C767   C81     1.416   1_556 S
C768   H780    1.082   .     S
C768   N788    1.366   .     A
C769   O790    1.282   .     A
C769   O792    1.282   .     A
C770   C772    1.398   .     S
C770   O793    1.272   .     A
C770   O795    1.283   .     A
C771   C773    1.398   .     S
C771   O796    1.283   .     A
C771   O794    1.272   .     A
C773   C696    1.343   1_655 S
C773   I710    2.153   1_655 S
C774   H777    1.084   .     S
C774   C1004   1.370   1_545 S
C775   H778    1.084   .     S
C775   C876    1.370   .     S
C776   H781    1.084   .     S
C776   C888    1.370   .     S
I785   C696    2.153   1_655 S
N787   Zn797   2.008   .     S
N788   Zn798   2.008   .     S
O789   Zn797   1.998   .     S
O790   Zn798   1.998   .     S
O791   Zn798   1.997   .     S
O792   Zn797   1.997   .     S
O793   Zn797   1.977   .     S
O794   Zn798   1.977   .     S
O795   Zn798   1.980   .     S
O796   Zn797   1.980   .     S
C799   C802    1.418   .     S
C799   O827    1.282   .     A
C799   O829    1.282   .     A
C800   H820    1.084   .     S
C800   C802    1.397   .     A
C801   C807    1.418   .     S
C801   C813    1.397   .     A
C801   C814    1.397   .     A
C802   C812    1.397   .     A
C803   N826    1.366   .     A
C803   H821    1.082   .     S
C804   N825    1.366   .     A
C804   H822    1.082   .     S
C804   C122    1.416   1_556 S
C805   N825    1.366   .     A
C805   H817    1.082   .     S
C805   C119    1.416   1_556 S
C806   H818    1.082   .     S
C806   N826    1.366   .     A
C807   O828    1.282   .     A
C807   O830    1.282   .     A
C808   C810    1.398   .     S
C808   O831    1.272   .     A
C808   O833    1.283   .     A
C809   C811    1.398   .     S
C809   O834    1.283   .     A
C809   O832    1.272   .     A
C810   C887    1.343   1_455 S
C810   I899    2.153   1_455 S
C811   C848    1.343   .     S
C811   I862    2.153   .     S
C812   H815    1.084   .     S
C813   H816    1.084   .     S
C813   C914    1.370   .     S
C814   H819    1.084   .     S
C814   C926    1.370   .     S
I823   C848    2.153   .     S
I824   C887    2.153   1_455 S
N825   Zn835   2.008   .     S
N826   Zn836   2.008   .     S
O827   Zn835   1.998   .     S
O828   Zn836   1.998   .     S
O829   Zn836   1.997   .     S
O830   Zn835   1.997   .     S
O831   Zn835   1.977   .     S
O832   Zn836   1.977   .     S
O833   Zn836   1.980   .     S
O834   Zn835   1.980   .     S
C837   C840    1.418   .     S
C837   O865    1.282   .     A
C837   O867    1.282   .     A
C838   H858    1.084   .     S
C838   C840    1.397   .     A
C839   C845    1.418   .     S
C839   C851    1.397   .     A
C839   C852    1.397   .     A
C840   C850    1.397   .     A
C841   N864    1.366   .     A
C841   H859    1.082   .     S
C842   N863    1.366   .     A
C842   H860    1.082   .     S
C842   C160    1.416   1_556 S
C843   N863    1.366   .     A
C843   H855    1.082   .     S
C843   C157    1.416   1_556 S
C844   H856    1.082   .     S
C844   N864    1.366   .     A
C845   O866    1.282   .     A
C845   O868    1.282   .     A
C846   C848    1.398   .     S
C846   O869    1.272   .     A
C846   O871    1.283   .     A
C847   C849    1.398   .     S
C847   O872    1.283   .     A
C847   O870    1.272   .     A
C849   C886    1.343   .     S
C849   I900    2.153   .     S
C850   H853    1.084   .     S
C851   H854    1.084   .     S
C851   C952    1.370   .     S
C852   H857    1.084   .     S
C852   C964    1.370   .     S
I861   C886    2.153   .     S
N863   Zn873   2.008   .     S
N864   Zn874   2.008   .     S
O865   Zn873   1.998   .     S
O866   Zn874   1.998   .     S
O867   Zn874   1.997   .     S
O868   Zn873   1.997   .     S
O869   Zn873   1.977   .     S
O870   Zn874   1.977   .     S
O871   Zn874   1.980   .     S
O872   Zn873   1.980   .     S
C875   C878    1.418   .     S
C875   O903    1.282   .     A
C875   O905    1.282   .     A
C876   H896    1.084   .     S
C876   C878    1.397   .     A
C877   C883    1.418   .     S
C877   C889    1.397   .     A
C877   C890    1.397   .     A
C878   C888    1.397   .     A
C879   N902    1.366   .     A
C879   H897    1.082   .     S
C880   N901    1.366   .     A
C880   H898    1.082   .     S
C880   C198    1.416   1_556 S
C881   N901    1.366   .     A
C881   H893    1.082   .     S
C881   C195    1.416   1_556 S
C882   H894    1.082   .     S
C882   N902    1.366   .     A
C883   O904    1.282   .     A
C883   O906    1.282   .     A
C884   C886    1.398   .     S
C884   O907    1.272   .     A
C884   O909    1.283   .     A
C885   C887    1.398   .     S
C885   O910    1.283   .     A
C885   O908    1.272   .     A
C887   C810    1.343   1_655 S
C887   I824    2.153   1_655 S
C888   H891    1.084   .     S
C889   H892    1.084   .     S
C889   C990    1.370   .     S
C890   H895    1.084   .     S
C890   C1002   1.370   .     S
I899   C810    2.153   1_655 S
N901   Zn911   2.008   .     S
N902   Zn912   2.008   .     S
O903   Zn911   1.998   .     S
O904   Zn912   1.998   .     S
O905   Zn912   1.997   .     S
O906   Zn911   1.997   .     S
O907   Zn911   1.977   .     S
O908   Zn912   1.977   .     S
O909   Zn912   1.980   .     S
O910   Zn911   1.980   .     S
C913   C916    1.418   .     S
C913   O941    1.282   .     A
C913   O943    1.282   .     A
C914   H934    1.084   .     S
C914   C916    1.397   .     A
C915   C921    1.418   .     S
C915   C927    1.397   .     A
C915   C928    1.397   .     A
C916   C926    1.397   .     A
C917   N940    1.366   .     A
C917   H935    1.082   .     S
C918   N939    1.366   .     A
C918   H936    1.082   .     S
C918   C236    1.416   1_556 S
C919   N939    1.366   .     A
C919   H931    1.082   .     S
C919   C233    1.416   1_556 S
C920   H932    1.082   .     S
C920   N940    1.366   .     A
C921   O942    1.282   .     A
C921   O944    1.282   .     A
C922   C924    1.398   .     S
C922   O945    1.272   .     A
C922   O947    1.283   .     A
C923   C925    1.398   .     S
C923   O948    1.283   .     A
C923   O946    1.272   .     A
C924   C1001   1.343   1_455 S
C924   I1013   2.153   1_455 S
C925   C962    1.343   .     S
C925   I976    2.153   .     S
C926   H929    1.084   .     S
C927   H930    1.084   .     S
C927   C686    1.370   1_565 S
C928   H933    1.084   .     S
C928   C698    1.370   1_565 S
I937   C962    2.153   .     S
I938   C1001   2.153   1_455 S
N939   Zn949   2.008   .     S
N940   Zn950   2.008   .     S
O941   Zn949   1.998   .     S
O942   Zn950   1.998   .     S
O943   Zn950   1.997   .     S
O944   Zn949   1.997   .     S
O945   Zn949   1.977   .     S
O946   Zn950   1.977   .     S
O947   Zn950   1.980   .     S
O948   Zn949   1.980   .     S
C951   C954    1.418   .     S
C951   O979    1.282   .     A
C951   O981    1.282   .     A
C952   H972    1.084   .     S
C952   C954    1.397   .     A
C953   C959    1.418   .     S
C953   C965    1.397   .     A
C953   C966    1.397   .     A
C954   C964    1.397   .     A
C955   N978    1.366   .     A
C955   H973    1.082   .     S
C956   N977    1.366   .     A
C956   H974    1.082   .     S
C956   C274    1.416   1_556 S
C957   N977    1.366   .     A
C957   H969    1.082   .     S
C957   C271    1.416   1_556 S
C958   H970    1.082   .     S
C958   N978    1.366   .     A
C959   O980    1.282   .     A
C959   O982    1.282   .     A
C960   C962    1.398   .     S
C960   O983    1.272   .     A
C960   O985    1.283   .     A
C961   C963    1.398   .     S
C961   O986    1.283   .     A
C961   O984    1.272   .     A
C963   C1000   1.343   .     S
C963   I1014   2.153   .     S
C964   H967    1.084   .     S
C965   H968    1.084   .     S
C965   C724    1.370   1_565 S
C966   H971    1.084   .     S
C966   C736    1.370   1_565 S
I975   C1000   2.153   .     S
N977   Zn987   2.008   .     S
N978   Zn988   2.008   .     S
O979   Zn987   1.998   .     S
O980   Zn988   1.998   .     S
O981   Zn988   1.997   .     S
O982   Zn987   1.997   .     S
O983   Zn987   1.977   .     S
O984   Zn988   1.977   .     S
O985   Zn988   1.980   .     S
O986   Zn987   1.980   .     S
C989   C992    1.418   .     S
C989   O1017   1.282   .     A
C989   O1019   1.282   .     A
C990   H1010   1.084   .     S
C990   C992    1.397   .     A
C991   C997    1.418   .     S
C991   C1003   1.397   .     A
C991   C1004   1.397   .     A
C992   C1002   1.397   .     A
C993   N1016   1.366   .     A
C993   H1011   1.082   .     S
C994   N1015   1.366   .     A
C994   H1012   1.082   .     S
C994   C312    1.416   1_556 S
C995   N1015   1.366   .     A
C995   H1007   1.082   .     S
C995   C309    1.416   1_556 S
C996   H1008   1.082   .     S
C996   N1016   1.366   .     A
C997   O1018   1.282   .     A
C997   O1020   1.282   .     A
C998   C1000   1.398   .     S
C998   O1021   1.272   .     A
C998   O1023   1.283   .     A
C999   C1001   1.398   .     S
C999   O1024   1.283   .     A
C999   O1022   1.272   .     A
C1001  C924    1.343   1_655 S
C1001  I938    2.153   1_655 S
C1002  H1005   1.084   .     S
C1003  H1006   1.084   .     S
C1003  C762    1.370   1_565 S
C1004  H1009   1.084   .     S
C1004  C774    1.370   1_565 S
I1013  C924    2.153   1_655 S
N1015  Zn1025  2.008   .     S
N1016  Zn1026  2.008   .     S
O1017  Zn1025  1.998   .     S
O1018  Zn1026  1.998   .     S
O1019  Zn1026  1.997   .     S
O1020  Zn1025  1.997   .     S
O1021  Zn1025  1.977   .     S
O1022  Zn1026  1.977   .     S
O1023  Zn1026  1.980   .     S
O1024  Zn1025  1.980   .     S
