data_str_m3_o1_o17_pcu_sym.160
_audit_creation_date              2020-01-03
_audit_creation_method            'Materials Studio'
_symmetry_space_group_name_H-M    'P1'
_symmetry_Int_Tables_number       1
_symmetry_cell_setting            triclinic
loop_
_symmetry_equiv_pos_as_xyz
  x,y,z
_cell_length_a                    32.0401
_cell_length_b                    29.9239
_cell_length_c                    29.9763
_cell_angle_alpha                 89.6249
_cell_angle_beta                  92.9819
_cell_angle_gamma                 92.0493
loop_
_atom_site_label
_atom_site_type_symbol
_atom_site_fract_x
_atom_site_fract_y
_atom_site_fract_z
_atom_site_U_iso_or_equiv
_atom_site_adp_type
_atom_site_occupancy
O1     O     0.10559   0.20487   0.25000   0.00000  Uiso   1.00
O2     O     0.22774   0.12846   0.25001   0.00000  Uiso   1.00
O3     O     0.22774   0.20487   0.25001   0.00000  Uiso   1.00
O4     O     0.10559   0.12846   0.25000   0.00000  Uiso   1.00
C5     C     0.08691   0.16572   0.25424   0.00000  Uiso   1.00
C6     C     0.24642   0.16762   0.24577   0.00000  Uiso   1.00
O7     O     0.16666   0.20489   0.18393   0.00000  Uiso   1.00
O8     O     0.16667   0.12844   0.31608   0.00000  Uiso   1.00
O9     O     0.16667   0.20489   0.31608   0.00000  Uiso   1.00
O10    O     0.16666   0.12844   0.18393   0.00000  Uiso   1.00
C11    C     0.16708   0.16683   0.16388   0.00000  Uiso   1.00
C12    C     0.16625   0.16650   0.33612   0.00000  Uiso   1.00
Zn13   Zn    0.16667   0.21771   0.25000   0.00000  Uiso   1.00
Zn14   Zn    0.16667   0.11563   0.25000   0.00000  Uiso   1.00
C15    C     0.20420   0.17165   0.40827   0.00000  Uiso   1.00
C16    C     0.12913   0.16168   0.09173   0.00000  Uiso   1.00
C17    C     0.16613   0.16616   0.38388   0.00000  Uiso   1.00
C18    C     0.16720   0.16717   0.11612   0.00000  Uiso   1.00
C19    C     0.12810   0.15983   0.40447   0.00000  Uiso   1.00
C20    C     0.20523   0.17350   0.09553   0.00000  Uiso   1.00
C21    C     0.12722   0.16428   0.45118   0.00000  Uiso   1.00
C22    C     0.20611   0.16906   0.04882   0.00000  Uiso   1.00
C23    C     0.16624   0.16677   0.47650   0.00000  Uiso   1.00
C24    C     0.16709   0.16657   0.02350   0.00000  Uiso   1.00
C25    C     0.20455   0.16947   0.45485   0.00000  Uiso   1.00
C26    C     0.12879   0.16387   0.04515   0.00000  Uiso   1.00
C27    C     0.08928   0.16636   0.47375   0.00000  Uiso   1.00
C28    C     0.24405   0.16699   0.02625   0.00000  Uiso   1.00
C29    C     0.09077   0.16449   0.02006   0.00000  Uiso   1.00
C30    C     0.24257   0.16886   0.47994   0.00000  Uiso   1.00
H31    H     0.06150   0.16468   0.03659   0.00000  Uiso   1.00
H32    H     0.27183   0.16867   0.46341   0.00000  Uiso   1.00
C33    C     0.01840   0.12463   0.24771   0.00000  Uiso   1.00
C34    C     0.31494   0.20870   0.25231   0.00000  Uiso   1.00
C35    C     0.31056   0.12919   0.23210   0.00000  Uiso   1.00
C36    C     0.02277   0.20415   0.26792   0.00000  Uiso   1.00
C37    C     0.29107   0.16958   0.24015   0.00000  Uiso   1.00
C38    C     0.04227   0.16376   0.25987   0.00000  Uiso   1.00
C39    C     0.19155   0.02455   0.28061   0.00000  Uiso   1.00
C40    C     0.14179   0.30878   0.21939   0.00000  Uiso   1.00
C41    C     0.14241   0.02335   0.21889   0.00000  Uiso   1.00
C42    C     0.19091   0.30998   0.28111   0.00000  Uiso   1.00
N43    N     0.16667   0.28573   0.25000   0.00000  Uiso   1.00
N44    N     0.16667   0.04760   0.25000   0.00000  Uiso   1.00
C45    C     0.24279   0.17784   0.38491   0.00000  Uiso   1.00
N46    N     0.27338   0.18274   0.36627   0.00000  Uiso   1.00
C47    C     0.09054   0.15550   0.11509   0.00000  Uiso   1.00
N48    N     0.05995   0.15060   0.13373   0.00000  Uiso   1.00
C49    C     0.09165   0.14430   0.37739   0.00000  Uiso   1.00
N50    N     0.06267   0.13152   0.35593   0.00000  Uiso   1.00
C51    C     0.24168   0.18903   0.12261   0.00000  Uiso   1.00
N52    N     0.27066   0.20181   0.14408   0.00000  Uiso   1.00
C53    C     0.04693   0.17417   0.45079   0.00000  Uiso   1.00
H54    H     0.04961   0.20012   0.42435   0.00000  Uiso   1.00
H55    H     0.03312   0.14236   0.43692   0.00000  Uiso   1.00
H56    H     0.02450   0.18689   0.47430   0.00000  Uiso   1.00
C57    C     0.28641   0.15918   0.04921   0.00000  Uiso   1.00
H58    H     0.28373   0.13322   0.07565   0.00000  Uiso   1.00
H59    H     0.30884   0.14647   0.02570   0.00000  Uiso   1.00
H60    H     0.30021   0.19098   0.06309   0.00000  Uiso   1.00
C61    C     0.03430   0.07778   0.25466   0.00000  Uiso   1.00
H62    H     0.05947   0.07631   0.28136   0.00000  Uiso   1.00
H63    H     0.00908   0.05496   0.26653   0.00000  Uiso   1.00
H64    H     0.04469   0.06457   0.22287   0.00000  Uiso   1.00
C65    C     0.29903   0.25555   0.24537   0.00000  Uiso   1.00
H66    H     0.27387   0.25703   0.21866   0.00000  Uiso   1.00
H67    H     0.28864   0.26875   0.27716   0.00000  Uiso   1.00
H68    H     0.32425   0.27838   0.23351   0.00000  Uiso   1.00
C69    C     0.28875   0.09194   0.20451   0.00000  Uiso   1.00
H70    H     0.26253   0.10464   0.18288   0.00000  Uiso   1.00
H71    H     0.31076   0.07770   0.18143   0.00000  Uiso   1.00
H72    H     0.27685   0.06493   0.22655   0.00000  Uiso   1.00
C73    C     0.04459   0.24139   0.29551   0.00000  Uiso   1.00
H74    H     0.07081   0.22869   0.31713   0.00000  Uiso   1.00
H75    H     0.05649   0.26840   0.27346   0.00000  Uiso   1.00
H76    H     0.02258   0.25563   0.31859   0.00000  Uiso   1.00
C77    C     0.22123   0.04893   0.31378   0.00000  Uiso   1.00
H78    H     0.22160   0.08505   0.31154   0.00000  Uiso   1.00
H79    H     0.21336   0.03990   0.34842   0.00000  Uiso   1.00
H80    H     0.25388   0.04008   0.30806   0.00000  Uiso   1.00
C81    C     0.11209   0.28441   0.18622   0.00000  Uiso   1.00
H82    H     0.11174   0.24829   0.18846   0.00000  Uiso   1.00
H83    H     0.07945   0.29324   0.19196   0.00000  Uiso   1.00
H84    H     0.11995   0.29344   0.15159   0.00000  Uiso   1.00
C85    C     0.11874   0.04731   0.18143   0.00000  Uiso   1.00
H86    H     0.10925   0.08030   0.19135   0.00000  Uiso   1.00
H87    H     0.13842   0.05047   0.15208   0.00000  Uiso   1.00
H88    H     0.08875   0.03018   0.17078   0.00000  Uiso   1.00
C89    C     0.21455   0.28601   0.31859   0.00000  Uiso   1.00
H90    H     0.22411   0.25306   0.30864   0.00000  Uiso   1.00
H91    H     0.24450   0.30317   0.32933   0.00000  Uiso   1.00
H92    H     0.19482   0.28278   0.34789   0.00000  Uiso   1.00
O93    O     0.43892   0.20487   0.25000   0.00000  Uiso   1.00
O94    O     0.56108   0.12846   0.25001   0.00000  Uiso   1.00
O95    O     0.56108   0.20487   0.25001   0.00000  Uiso   1.00
O96    O     0.43892   0.12846   0.25000   0.00000  Uiso   1.00
C97    C     0.42025   0.16572   0.25424   0.00000  Uiso   1.00
C98    C     0.57975   0.16762   0.24577   0.00000  Uiso   1.00
O99    O     0.49999   0.20489   0.18393   0.00000  Uiso   1.00
O100   O     0.50001   0.12844   0.31608   0.00000  Uiso   1.00
O101   O     0.50001   0.20489   0.31608   0.00000  Uiso   1.00
O102   O     0.49999   0.12844   0.18393   0.00000  Uiso   1.00
C103   C     0.50042   0.16683   0.16388   0.00000  Uiso   1.00
C104   C     0.49958   0.16650   0.33612   0.00000  Uiso   1.00
Zn105  Zn    0.50000   0.21771   0.25000   0.00000  Uiso   1.00
Zn106  Zn    0.50000   0.11563   0.25000   0.00000  Uiso   1.00
C107   C     0.53753   0.17165   0.40827   0.00000  Uiso   1.00
C108   C     0.46247   0.16168   0.09173   0.00000  Uiso   1.00
C109   C     0.49946   0.16616   0.38388   0.00000  Uiso   1.00
C110   C     0.50054   0.16717   0.11612   0.00000  Uiso   1.00
C111   C     0.46144   0.15983   0.40447   0.00000  Uiso   1.00
C112   C     0.53857   0.17350   0.09553   0.00000  Uiso   1.00
C113   C     0.46056   0.16428   0.45118   0.00000  Uiso   1.00
C114   C     0.53945   0.16906   0.04882   0.00000  Uiso   1.00
C115   C     0.49957   0.16677   0.47650   0.00000  Uiso   1.00
C116   C     0.50043   0.16657   0.02350   0.00000  Uiso   1.00
C117   C     0.53788   0.16947   0.45485   0.00000  Uiso   1.00
C118   C     0.46212   0.16387   0.04515   0.00000  Uiso   1.00
C119   C     0.42262   0.16636   0.47375   0.00000  Uiso   1.00
C120   C     0.57739   0.16699   0.02625   0.00000  Uiso   1.00
C121   C     0.42410   0.16449   0.02006   0.00000  Uiso   1.00
C122   C     0.57590   0.16886   0.47994   0.00000  Uiso   1.00
H123   H     0.39484   0.16468   0.03659   0.00000  Uiso   1.00
H124   H     0.60517   0.16867   0.46341   0.00000  Uiso   1.00
C125   C     0.35173   0.12463   0.24771   0.00000  Uiso   1.00
C126   C     0.64827   0.20870   0.25231   0.00000  Uiso   1.00
C127   C     0.64390   0.12919   0.23210   0.00000  Uiso   1.00
C128   C     0.35611   0.20415   0.26792   0.00000  Uiso   1.00
C129   C     0.62440   0.16958   0.24015   0.00000  Uiso   1.00
C130   C     0.37560   0.16376   0.25987   0.00000  Uiso   1.00
C131   C     0.52488   0.02455   0.28061   0.00000  Uiso   1.00
C132   C     0.47512   0.30878   0.21939   0.00000  Uiso   1.00
C133   C     0.47575   0.02335   0.21889   0.00000  Uiso   1.00
C134   C     0.52425   0.30998   0.28111   0.00000  Uiso   1.00
N135   N     0.50000   0.28573   0.25000   0.00000  Uiso   1.00
N136   N     0.50000   0.04760   0.25000   0.00000  Uiso   1.00
C137   C     0.57612   0.17784   0.38491   0.00000  Uiso   1.00
N138   N     0.60672   0.18274   0.36627   0.00000  Uiso   1.00
C139   C     0.42388   0.15550   0.11509   0.00000  Uiso   1.00
N140   N     0.39328   0.15060   0.13373   0.00000  Uiso   1.00
C141   C     0.42498   0.14430   0.37739   0.00000  Uiso   1.00
N142   N     0.39600   0.13152   0.35593   0.00000  Uiso   1.00
C143   C     0.57502   0.18903   0.12261   0.00000  Uiso   1.00
N144   N     0.60400   0.20181   0.14408   0.00000  Uiso   1.00
C145   C     0.38026   0.17417   0.45079   0.00000  Uiso   1.00
H146   H     0.38295   0.20012   0.42435   0.00000  Uiso   1.00
H147   H     0.36645   0.14236   0.43692   0.00000  Uiso   1.00
H148   H     0.35783   0.18689   0.47430   0.00000  Uiso   1.00
C149   C     0.61974   0.15918   0.04921   0.00000  Uiso   1.00
H150   H     0.61706   0.13322   0.07565   0.00000  Uiso   1.00
H151   H     0.64217   0.14647   0.02570   0.00000  Uiso   1.00
H152   H     0.63354   0.19098   0.06309   0.00000  Uiso   1.00
C153   C     0.36764   0.07778   0.25466   0.00000  Uiso   1.00
H154   H     0.39281   0.07631   0.28136   0.00000  Uiso   1.00
H155   H     0.34241   0.05496   0.26653   0.00000  Uiso   1.00
H156   H     0.37802   0.06457   0.22287   0.00000  Uiso   1.00
C157   C     0.63236   0.25555   0.24537   0.00000  Uiso   1.00
H158   H     0.60720   0.25703   0.21866   0.00000  Uiso   1.00
H159   H     0.62197   0.26875   0.27716   0.00000  Uiso   1.00
H160   H     0.65759   0.27838   0.23351   0.00000  Uiso   1.00
C161   C     0.62209   0.09194   0.20451   0.00000  Uiso   1.00
H162   H     0.59586   0.10464   0.18288   0.00000  Uiso   1.00
H163   H     0.64409   0.07770   0.18143   0.00000  Uiso   1.00
H164   H     0.61018   0.06493   0.22655   0.00000  Uiso   1.00
C165   C     0.37792   0.24139   0.29551   0.00000  Uiso   1.00
H166   H     0.40415   0.22869   0.31713   0.00000  Uiso   1.00
H167   H     0.38983   0.26840   0.27346   0.00000  Uiso   1.00
H168   H     0.35592   0.25563   0.31859   0.00000  Uiso   1.00
C169   C     0.55457   0.04893   0.31378   0.00000  Uiso   1.00
H170   H     0.55494   0.08505   0.31154   0.00000  Uiso   1.00
H171   H     0.54669   0.03990   0.34842   0.00000  Uiso   1.00
H172   H     0.58721   0.04008   0.30806   0.00000  Uiso   1.00
C173   C     0.44543   0.28441   0.18622   0.00000  Uiso   1.00
H174   H     0.44507   0.24829   0.18846   0.00000  Uiso   1.00
H175   H     0.41278   0.29324   0.19196   0.00000  Uiso   1.00
H176   H     0.45328   0.29344   0.15159   0.00000  Uiso   1.00
C177   C     0.45208   0.04731   0.18143   0.00000  Uiso   1.00
H178   H     0.44258   0.08030   0.19135   0.00000  Uiso   1.00
H179   H     0.47175   0.05047   0.15208   0.00000  Uiso   1.00
H180   H     0.42209   0.03018   0.17078   0.00000  Uiso   1.00
C181   C     0.54789   0.28601   0.31859   0.00000  Uiso   1.00
H182   H     0.55745   0.25306   0.30864   0.00000  Uiso   1.00
H183   H     0.57783   0.30317   0.32933   0.00000  Uiso   1.00
H184   H     0.52815   0.28278   0.34789   0.00000  Uiso   1.00
O185   O     0.77226   0.20487   0.25000   0.00000  Uiso   1.00
O186   O     0.89441   0.12846   0.25001   0.00000  Uiso   1.00
O187   O     0.89441   0.20487   0.25001   0.00000  Uiso   1.00
O188   O     0.77226   0.12846   0.25000   0.00000  Uiso   1.00
C189   C     0.75358   0.16572   0.25424   0.00000  Uiso   1.00
C190   C     0.91309   0.16762   0.24577   0.00000  Uiso   1.00
O191   O     0.83333   0.20489   0.18393   0.00000  Uiso   1.00
O192   O     0.83334   0.12844   0.31608   0.00000  Uiso   1.00
O193   O     0.83334   0.20489   0.31608   0.00000  Uiso   1.00
O194   O     0.83333   0.12844   0.18393   0.00000  Uiso   1.00
C195   C     0.83375   0.16683   0.16388   0.00000  Uiso   1.00
C196   C     0.83292   0.16650   0.33612   0.00000  Uiso   1.00
Zn197  Zn    0.83333   0.21771   0.25000   0.00000  Uiso   1.00
Zn198  Zn    0.83333   0.11563   0.25000   0.00000  Uiso   1.00
C199   C     0.87087   0.17165   0.40827   0.00000  Uiso   1.00
C200   C     0.79580   0.16168   0.09173   0.00000  Uiso   1.00
C201   C     0.83280   0.16616   0.38388   0.00000  Uiso   1.00
C202   C     0.83387   0.16717   0.11612   0.00000  Uiso   1.00
C203   C     0.79477   0.15983   0.40447   0.00000  Uiso   1.00
C204   C     0.87190   0.17350   0.09553   0.00000  Uiso   1.00
C205   C     0.79389   0.16428   0.45118   0.00000  Uiso   1.00
C206   C     0.87278   0.16906   0.04882   0.00000  Uiso   1.00
C207   C     0.83291   0.16677   0.47650   0.00000  Uiso   1.00
C208   C     0.83376   0.16657   0.02350   0.00000  Uiso   1.00
C209   C     0.87121   0.16947   0.45485   0.00000  Uiso   1.00
C210   C     0.79546   0.16387   0.04515   0.00000  Uiso   1.00
C211   C     0.75595   0.16636   0.47375   0.00000  Uiso   1.00
C212   C     0.91072   0.16699   0.02625   0.00000  Uiso   1.00
C213   C     0.75743   0.16449   0.02006   0.00000  Uiso   1.00
C214   C     0.90924   0.16886   0.47994   0.00000  Uiso   1.00
H215   H     0.72817   0.16468   0.03659   0.00000  Uiso   1.00
H216   H     0.93850   0.16867   0.46341   0.00000  Uiso   1.00
C217   C     0.68506   0.12463   0.24771   0.00000  Uiso   1.00
C218   C     0.98160   0.20870   0.25231   0.00000  Uiso   1.00
C219   C     0.97723   0.12919   0.23210   0.00000  Uiso   1.00
C220   C     0.68944   0.20415   0.26792   0.00000  Uiso   1.00
C221   C     0.95774   0.16958   0.24015   0.00000  Uiso   1.00
C222   C     0.70893   0.16376   0.25987   0.00000  Uiso   1.00
C223   C     0.85821   0.02455   0.28061   0.00000  Uiso   1.00
C224   C     0.80845   0.30878   0.21939   0.00000  Uiso   1.00
C225   C     0.80908   0.02335   0.21889   0.00000  Uiso   1.00
C226   C     0.85758   0.30998   0.28111   0.00000  Uiso   1.00
N227   N     0.83333   0.28573   0.25000   0.00000  Uiso   1.00
N228   N     0.83333   0.04760   0.25000   0.00000  Uiso   1.00
C229   C     0.90946   0.17784   0.38491   0.00000  Uiso   1.00
N230   N     0.94005   0.18274   0.36627   0.00000  Uiso   1.00
C231   C     0.75721   0.15550   0.11509   0.00000  Uiso   1.00
N232   N     0.72662   0.15060   0.13373   0.00000  Uiso   1.00
C233   C     0.75832   0.14430   0.37739   0.00000  Uiso   1.00
N234   N     0.72934   0.13152   0.35593   0.00000  Uiso   1.00
C235   C     0.90835   0.18903   0.12261   0.00000  Uiso   1.00
N236   N     0.93733   0.20181   0.14408   0.00000  Uiso   1.00
C237   C     0.71360   0.17417   0.45079   0.00000  Uiso   1.00
H238   H     0.71628   0.20012   0.42435   0.00000  Uiso   1.00
H239   H     0.69979   0.14236   0.43692   0.00000  Uiso   1.00
H240   H     0.69117   0.18689   0.47430   0.00000  Uiso   1.00
C241   C     0.95307   0.15918   0.04921   0.00000  Uiso   1.00
H242   H     0.95039   0.13322   0.07565   0.00000  Uiso   1.00
H243   H     0.97551   0.14647   0.02570   0.00000  Uiso   1.00
H244   H     0.96688   0.19098   0.06309   0.00000  Uiso   1.00
C245   C     0.70097   0.07778   0.25466   0.00000  Uiso   1.00
H246   H     0.72614   0.07631   0.28136   0.00000  Uiso   1.00
H247   H     0.67575   0.05496   0.26653   0.00000  Uiso   1.00
H248   H     0.71136   0.06457   0.22287   0.00000  Uiso   1.00
C249   C     0.96570   0.25555   0.24537   0.00000  Uiso   1.00
H250   H     0.94053   0.25703   0.21866   0.00000  Uiso   1.00
H251   H     0.95530   0.26875   0.27716   0.00000  Uiso   1.00
H252   H     0.99092   0.27838   0.23351   0.00000  Uiso   1.00
C253   C     0.95542   0.09194   0.20451   0.00000  Uiso   1.00
H254   H     0.92920   0.10464   0.18288   0.00000  Uiso   1.00
H255   H     0.97743   0.07770   0.18143   0.00000  Uiso   1.00
H256   H     0.94351   0.06493   0.22655   0.00000  Uiso   1.00
C257   C     0.71125   0.24139   0.29551   0.00000  Uiso   1.00
H258   H     0.73748   0.22869   0.31713   0.00000  Uiso   1.00
H259   H     0.72316   0.26840   0.27346   0.00000  Uiso   1.00
H260   H     0.68925   0.25563   0.31859   0.00000  Uiso   1.00
C261   C     0.88790   0.04893   0.31378   0.00000  Uiso   1.00
H262   H     0.88827   0.08505   0.31154   0.00000  Uiso   1.00
H263   H     0.88003   0.03990   0.34842   0.00000  Uiso   1.00
H264   H     0.92054   0.04008   0.30806   0.00000  Uiso   1.00
C265   C     0.77876   0.28441   0.18622   0.00000  Uiso   1.00
H266   H     0.77840   0.24829   0.18846   0.00000  Uiso   1.00
H267   H     0.74612   0.29324   0.19196   0.00000  Uiso   1.00
H268   H     0.78662   0.29344   0.15159   0.00000  Uiso   1.00
C269   C     0.78541   0.04731   0.18143   0.00000  Uiso   1.00
H270   H     0.77591   0.08030   0.19135   0.00000  Uiso   1.00
H271   H     0.80509   0.05047   0.15208   0.00000  Uiso   1.00
H272   H     0.75542   0.03018   0.17078   0.00000  Uiso   1.00
C273   C     0.88122   0.28601   0.31859   0.00000  Uiso   1.00
H274   H     0.89078   0.25306   0.30864   0.00000  Uiso   1.00
H275   H     0.91117   0.30317   0.32933   0.00000  Uiso   1.00
H276   H     0.86149   0.28278   0.34789   0.00000  Uiso   1.00
O277   O     0.10559   0.53821   0.25000   0.00000  Uiso   1.00
O278   O     0.22774   0.46179   0.25001   0.00000  Uiso   1.00
O279   O     0.22774   0.53821   0.25001   0.00000  Uiso   1.00
O280   O     0.10559   0.46179   0.25000   0.00000  Uiso   1.00
C281   C     0.08691   0.49905   0.25424   0.00000  Uiso   1.00
C282   C     0.24642   0.50095   0.24577   0.00000  Uiso   1.00
O283   O     0.16666   0.53823   0.18393   0.00000  Uiso   1.00
O284   O     0.16667   0.46177   0.31608   0.00000  Uiso   1.00
O285   O     0.16667   0.53823   0.31608   0.00000  Uiso   1.00
O286   O     0.16666   0.46177   0.18393   0.00000  Uiso   1.00
C287   C     0.16708   0.50017   0.16388   0.00000  Uiso   1.00
C288   C     0.16625   0.49983   0.33612   0.00000  Uiso   1.00
Zn289  Zn    0.16667   0.55104   0.25000   0.00000  Uiso   1.00
Zn290  Zn    0.16667   0.44896   0.25000   0.00000  Uiso   1.00
C291   C     0.20420   0.50499   0.40827   0.00000  Uiso   1.00
C292   C     0.12913   0.49502   0.09173   0.00000  Uiso   1.00
C293   C     0.16613   0.49950   0.38388   0.00000  Uiso   1.00
C294   C     0.16720   0.50050   0.11612   0.00000  Uiso   1.00
C295   C     0.12810   0.49317   0.40447   0.00000  Uiso   1.00
C296   C     0.20523   0.50684   0.09553   0.00000  Uiso   1.00
C297   C     0.12722   0.49762   0.45118   0.00000  Uiso   1.00
C298   C     0.20611   0.50239   0.04882   0.00000  Uiso   1.00
C299   C     0.16624   0.50010   0.47650   0.00000  Uiso   1.00
C300   C     0.16709   0.49990   0.02350   0.00000  Uiso   1.00
C301   C     0.20455   0.50281   0.45485   0.00000  Uiso   1.00
C302   C     0.12879   0.49720   0.04515   0.00000  Uiso   1.00
C303   C     0.08928   0.49969   0.47375   0.00000  Uiso   1.00
C304   C     0.24405   0.50032   0.02625   0.00000  Uiso   1.00
C305   C     0.09077   0.49782   0.02006   0.00000  Uiso   1.00
C306   C     0.24257   0.50219   0.47994   0.00000  Uiso   1.00
H307   H     0.06150   0.49801   0.03659   0.00000  Uiso   1.00
H308   H     0.27183   0.50200   0.46341   0.00000  Uiso   1.00
C309   C     0.01840   0.45797   0.24771   0.00000  Uiso   1.00
C310   C     0.31494   0.54204   0.25231   0.00000  Uiso   1.00
C311   C     0.31056   0.46252   0.23210   0.00000  Uiso   1.00
C312   C     0.02277   0.53748   0.26792   0.00000  Uiso   1.00
C313   C     0.29107   0.50291   0.24015   0.00000  Uiso   1.00
C314   C     0.04227   0.49709   0.25987   0.00000  Uiso   1.00
C315   C     0.19155   0.35789   0.28061   0.00000  Uiso   1.00
C316   C     0.14179   0.64211   0.21939   0.00000  Uiso   1.00
C317   C     0.14241   0.35669   0.21889   0.00000  Uiso   1.00
C318   C     0.19091   0.64331   0.28111   0.00000  Uiso   1.00
N319   N     0.16667   0.61907   0.25000   0.00000  Uiso   1.00
N320   N     0.16667   0.38093   0.25000   0.00000  Uiso   1.00
C321   C     0.24279   0.51117   0.38491   0.00000  Uiso   1.00
N322   N     0.27338   0.51607   0.36627   0.00000  Uiso   1.00
C323   C     0.09054   0.48883   0.11509   0.00000  Uiso   1.00
N324   N     0.05995   0.48393   0.13373   0.00000  Uiso   1.00
C325   C     0.09165   0.47764   0.37739   0.00000  Uiso   1.00
N326   N     0.06267   0.46485   0.35593   0.00000  Uiso   1.00
C327   C     0.24168   0.52236   0.12261   0.00000  Uiso   1.00
N328   N     0.27066   0.53514   0.14408   0.00000  Uiso   1.00
C329   C     0.04693   0.50750   0.45079   0.00000  Uiso   1.00
H330   H     0.04961   0.53345   0.42435   0.00000  Uiso   1.00
H331   H     0.03312   0.47570   0.43692   0.00000  Uiso   1.00
H332   H     0.02450   0.52022   0.47430   0.00000  Uiso   1.00
C333   C     0.28641   0.49252   0.04921   0.00000  Uiso   1.00
H334   H     0.28373   0.46656   0.07565   0.00000  Uiso   1.00
H335   H     0.30884   0.47980   0.02570   0.00000  Uiso   1.00
H336   H     0.30021   0.52432   0.06309   0.00000  Uiso   1.00
C337   C     0.03430   0.41112   0.25466   0.00000  Uiso   1.00
H338   H     0.05947   0.40965   0.28136   0.00000  Uiso   1.00
H339   H     0.00908   0.38829   0.26653   0.00000  Uiso   1.00
H340   H     0.04469   0.39791   0.22287   0.00000  Uiso   1.00
C341   C     0.29903   0.58888   0.24537   0.00000  Uiso   1.00
H342   H     0.27387   0.59036   0.21866   0.00000  Uiso   1.00
H343   H     0.28864   0.60209   0.27716   0.00000  Uiso   1.00
H344   H     0.32425   0.61171   0.23351   0.00000  Uiso   1.00
C345   C     0.28875   0.42528   0.20451   0.00000  Uiso   1.00
H346   H     0.26253   0.43797   0.18288   0.00000  Uiso   1.00
H347   H     0.31076   0.41104   0.18143   0.00000  Uiso   1.00
H348   H     0.27685   0.39827   0.22655   0.00000  Uiso   1.00
C349   C     0.04459   0.57472   0.29551   0.00000  Uiso   1.00
H350   H     0.07081   0.56203   0.31713   0.00000  Uiso   1.00
H351   H     0.05649   0.60173   0.27346   0.00000  Uiso   1.00
H352   H     0.02258   0.58896   0.31859   0.00000  Uiso   1.00
C353   C     0.22123   0.38226   0.31378   0.00000  Uiso   1.00
H354   H     0.22160   0.41838   0.31154   0.00000  Uiso   1.00
H355   H     0.21336   0.37324   0.34842   0.00000  Uiso   1.00
H356   H     0.25388   0.37341   0.30806   0.00000  Uiso   1.00
C357   C     0.11209   0.61774   0.18622   0.00000  Uiso   1.00
H358   H     0.11174   0.58162   0.18846   0.00000  Uiso   1.00
H359   H     0.07945   0.62657   0.19196   0.00000  Uiso   1.00
H360   H     0.11995   0.62678   0.15159   0.00000  Uiso   1.00
C361   C     0.11874   0.38064   0.18143   0.00000  Uiso   1.00
H362   H     0.10925   0.41363   0.19135   0.00000  Uiso   1.00
H363   H     0.13842   0.38380   0.15208   0.00000  Uiso   1.00
H364   H     0.08875   0.36351   0.17078   0.00000  Uiso   1.00
C365   C     0.21455   0.61935   0.31859   0.00000  Uiso   1.00
H366   H     0.22411   0.58639   0.30864   0.00000  Uiso   1.00
H367   H     0.24450   0.63651   0.32933   0.00000  Uiso   1.00
H368   H     0.19482   0.61612   0.34789   0.00000  Uiso   1.00
O369   O     0.43892   0.53821   0.25000   0.00000  Uiso   1.00
O370   O     0.56108   0.46179   0.25001   0.00000  Uiso   1.00
O371   O     0.56108   0.53821   0.25001   0.00000  Uiso   1.00
O372   O     0.43892   0.46179   0.25000   0.00000  Uiso   1.00
C373   C     0.42025   0.49905   0.25424   0.00000  Uiso   1.00
C374   C     0.57975   0.50095   0.24577   0.00000  Uiso   1.00
O375   O     0.49999   0.53823   0.18393   0.00000  Uiso   1.00
O376   O     0.50001   0.46177   0.31608   0.00000  Uiso   1.00
O377   O     0.50001   0.53823   0.31608   0.00000  Uiso   1.00
O378   O     0.49999   0.46177   0.18393   0.00000  Uiso   1.00
C379   C     0.50042   0.50017   0.16388   0.00000  Uiso   1.00
C380   C     0.49958   0.49983   0.33612   0.00000  Uiso   1.00
Zn381  Zn    0.50000   0.55104   0.25000   0.00000  Uiso   1.00
Zn382  Zn    0.50000   0.44896   0.25000   0.00000  Uiso   1.00
C383   C     0.53753   0.50499   0.40827   0.00000  Uiso   1.00
C384   C     0.46247   0.49502   0.09173   0.00000  Uiso   1.00
C385   C     0.49946   0.49950   0.38388   0.00000  Uiso   1.00
C386   C     0.50054   0.50050   0.11612   0.00000  Uiso   1.00
C387   C     0.46144   0.49317   0.40447   0.00000  Uiso   1.00
C388   C     0.53857   0.50684   0.09553   0.00000  Uiso   1.00
C389   C     0.46056   0.49762   0.45118   0.00000  Uiso   1.00
C390   C     0.53945   0.50239   0.04882   0.00000  Uiso   1.00
C391   C     0.49957   0.50010   0.47650   0.00000  Uiso   1.00
C392   C     0.50043   0.49990   0.02350   0.00000  Uiso   1.00
C393   C     0.53788   0.50281   0.45485   0.00000  Uiso   1.00
C394   C     0.46212   0.49720   0.04515   0.00000  Uiso   1.00
C395   C     0.42262   0.49969   0.47375   0.00000  Uiso   1.00
C396   C     0.57739   0.50032   0.02625   0.00000  Uiso   1.00
C397   C     0.42410   0.49782   0.02006   0.00000  Uiso   1.00
C398   C     0.57590   0.50219   0.47994   0.00000  Uiso   1.00
H399   H     0.39484   0.49801   0.03659   0.00000  Uiso   1.00
H400   H     0.60517   0.50200   0.46341   0.00000  Uiso   1.00
C401   C     0.35173   0.45797   0.24771   0.00000  Uiso   1.00
C402   C     0.64827   0.54204   0.25231   0.00000  Uiso   1.00
C403   C     0.64390   0.46252   0.23210   0.00000  Uiso   1.00
C404   C     0.35611   0.53748   0.26792   0.00000  Uiso   1.00
C405   C     0.62440   0.50291   0.24015   0.00000  Uiso   1.00
C406   C     0.37560   0.49709   0.25987   0.00000  Uiso   1.00
C407   C     0.52488   0.35789   0.28061   0.00000  Uiso   1.00
C408   C     0.47512   0.64211   0.21939   0.00000  Uiso   1.00
C409   C     0.47575   0.35669   0.21889   0.00000  Uiso   1.00
C410   C     0.52425   0.64331   0.28111   0.00000  Uiso   1.00
N411   N     0.50000   0.61907   0.25000   0.00000  Uiso   1.00
N412   N     0.50000   0.38093   0.25000   0.00000  Uiso   1.00
C413   C     0.57612   0.51117   0.38491   0.00000  Uiso   1.00
N414   N     0.60672   0.51607   0.36627   0.00000  Uiso   1.00
C415   C     0.42388   0.48883   0.11509   0.00000  Uiso   1.00
N416   N     0.39328   0.48393   0.13373   0.00000  Uiso   1.00
C417   C     0.42498   0.47764   0.37739   0.00000  Uiso   1.00
N418   N     0.39600   0.46485   0.35593   0.00000  Uiso   1.00
C419   C     0.57502   0.52236   0.12261   0.00000  Uiso   1.00
N420   N     0.60400   0.53514   0.14408   0.00000  Uiso   1.00
C421   C     0.38026   0.50750   0.45079   0.00000  Uiso   1.00
H422   H     0.38295   0.53345   0.42435   0.00000  Uiso   1.00
H423   H     0.36645   0.47570   0.43692   0.00000  Uiso   1.00
H424   H     0.35783   0.52022   0.47430   0.00000  Uiso   1.00
C425   C     0.61974   0.49252   0.04921   0.00000  Uiso   1.00
H426   H     0.61706   0.46656   0.07565   0.00000  Uiso   1.00
H427   H     0.64217   0.47980   0.02570   0.00000  Uiso   1.00
H428   H     0.63354   0.52432   0.06309   0.00000  Uiso   1.00
C429   C     0.36764   0.41112   0.25466   0.00000  Uiso   1.00
H430   H     0.39281   0.40965   0.28136   0.00000  Uiso   1.00
H431   H     0.34241   0.38829   0.26653   0.00000  Uiso   1.00
H432   H     0.37802   0.39791   0.22287   0.00000  Uiso   1.00
C433   C     0.63236   0.58888   0.24537   0.00000  Uiso   1.00
H434   H     0.60720   0.59036   0.21866   0.00000  Uiso   1.00
H435   H     0.62197   0.60209   0.27716   0.00000  Uiso   1.00
H436   H     0.65759   0.61171   0.23351   0.00000  Uiso   1.00
C437   C     0.62209   0.42528   0.20451   0.00000  Uiso   1.00
H438   H     0.59586   0.43797   0.18288   0.00000  Uiso   1.00
H439   H     0.64409   0.41104   0.18143   0.00000  Uiso   1.00
H440   H     0.61018   0.39827   0.22655   0.00000  Uiso   1.00
C441   C     0.37792   0.57472   0.29551   0.00000  Uiso   1.00
H442   H     0.40415   0.56203   0.31713   0.00000  Uiso   1.00
H443   H     0.38983   0.60173   0.27346   0.00000  Uiso   1.00
H444   H     0.35592   0.58896   0.31859   0.00000  Uiso   1.00
C445   C     0.55457   0.38226   0.31378   0.00000  Uiso   1.00
H446   H     0.55494   0.41838   0.31154   0.00000  Uiso   1.00
H447   H     0.54669   0.37324   0.34842   0.00000  Uiso   1.00
H448   H     0.58721   0.37341   0.30806   0.00000  Uiso   1.00
C449   C     0.44543   0.61774   0.18622   0.00000  Uiso   1.00
H450   H     0.44507   0.58162   0.18846   0.00000  Uiso   1.00
H451   H     0.41278   0.62657   0.19196   0.00000  Uiso   1.00
H452   H     0.45328   0.62678   0.15159   0.00000  Uiso   1.00
C453   C     0.45208   0.38064   0.18143   0.00000  Uiso   1.00
H454   H     0.44258   0.41363   0.19135   0.00000  Uiso   1.00
H455   H     0.47175   0.38380   0.15208   0.00000  Uiso   1.00
H456   H     0.42209   0.36351   0.17078   0.00000  Uiso   1.00
C457   C     0.54789   0.61935   0.31859   0.00000  Uiso   1.00
H458   H     0.55745   0.58639   0.30864   0.00000  Uiso   1.00
H459   H     0.57783   0.63651   0.32933   0.00000  Uiso   1.00
H460   H     0.52815   0.61612   0.34789   0.00000  Uiso   1.00
O461   O     0.77226   0.53821   0.25000   0.00000  Uiso   1.00
O462   O     0.89441   0.46179   0.25001   0.00000  Uiso   1.00
O463   O     0.89441   0.53821   0.25001   0.00000  Uiso   1.00
O464   O     0.77226   0.46179   0.25000   0.00000  Uiso   1.00
C465   C     0.75358   0.49905   0.25424   0.00000  Uiso   1.00
C466   C     0.91309   0.50095   0.24577   0.00000  Uiso   1.00
O467   O     0.83333   0.53823   0.18393   0.00000  Uiso   1.00
O468   O     0.83334   0.46177   0.31608   0.00000  Uiso   1.00
O469   O     0.83334   0.53823   0.31608   0.00000  Uiso   1.00
O470   O     0.83333   0.46177   0.18393   0.00000  Uiso   1.00
C471   C     0.83375   0.50017   0.16388   0.00000  Uiso   1.00
C472   C     0.83292   0.49983   0.33612   0.00000  Uiso   1.00
Zn473  Zn    0.83333   0.55104   0.25000   0.00000  Uiso   1.00
Zn474  Zn    0.83333   0.44896   0.25000   0.00000  Uiso   1.00
C475   C     0.87087   0.50499   0.40827   0.00000  Uiso   1.00
C476   C     0.79580   0.49502   0.09173   0.00000  Uiso   1.00
C477   C     0.83280   0.49950   0.38388   0.00000  Uiso   1.00
C478   C     0.83387   0.50050   0.11612   0.00000  Uiso   1.00
C479   C     0.79477   0.49317   0.40447   0.00000  Uiso   1.00
C480   C     0.87190   0.50684   0.09553   0.00000  Uiso   1.00
C481   C     0.79389   0.49762   0.45118   0.00000  Uiso   1.00
C482   C     0.87278   0.50239   0.04882   0.00000  Uiso   1.00
C483   C     0.83291   0.50010   0.47650   0.00000  Uiso   1.00
C484   C     0.83376   0.49990   0.02350   0.00000  Uiso   1.00
C485   C     0.87121   0.50281   0.45485   0.00000  Uiso   1.00
C486   C     0.79546   0.49720   0.04515   0.00000  Uiso   1.00
C487   C     0.75595   0.49969   0.47375   0.00000  Uiso   1.00
C488   C     0.91072   0.50032   0.02625   0.00000  Uiso   1.00
C489   C     0.75743   0.49782   0.02006   0.00000  Uiso   1.00
C490   C     0.90924   0.50219   0.47994   0.00000  Uiso   1.00
H491   H     0.72817   0.49801   0.03659   0.00000  Uiso   1.00
H492   H     0.93850   0.50200   0.46341   0.00000  Uiso   1.00
C493   C     0.68506   0.45797   0.24771   0.00000  Uiso   1.00
C494   C     0.98160   0.54204   0.25231   0.00000  Uiso   1.00
C495   C     0.97723   0.46252   0.23210   0.00000  Uiso   1.00
C496   C     0.68944   0.53748   0.26792   0.00000  Uiso   1.00
C497   C     0.95774   0.50291   0.24015   0.00000  Uiso   1.00
C498   C     0.70893   0.49709   0.25987   0.00000  Uiso   1.00
C499   C     0.85821   0.35789   0.28061   0.00000  Uiso   1.00
C500   C     0.80845   0.64211   0.21939   0.00000  Uiso   1.00
C501   C     0.80908   0.35669   0.21889   0.00000  Uiso   1.00
C502   C     0.85758   0.64331   0.28111   0.00000  Uiso   1.00
N503   N     0.83333   0.61907   0.25000   0.00000  Uiso   1.00
N504   N     0.83333   0.38093   0.25000   0.00000  Uiso   1.00
C505   C     0.90946   0.51117   0.38491   0.00000  Uiso   1.00
N506   N     0.94005   0.51607   0.36627   0.00000  Uiso   1.00
C507   C     0.75721   0.48883   0.11509   0.00000  Uiso   1.00
N508   N     0.72662   0.48393   0.13373   0.00000  Uiso   1.00
C509   C     0.75832   0.47764   0.37739   0.00000  Uiso   1.00
N510   N     0.72934   0.46485   0.35593   0.00000  Uiso   1.00
C511   C     0.90835   0.52236   0.12261   0.00000  Uiso   1.00
N512   N     0.93733   0.53514   0.14408   0.00000  Uiso   1.00
C513   C     0.71360   0.50750   0.45079   0.00000  Uiso   1.00
H514   H     0.71628   0.53345   0.42435   0.00000  Uiso   1.00
H515   H     0.69979   0.47570   0.43692   0.00000  Uiso   1.00
H516   H     0.69117   0.52022   0.47430   0.00000  Uiso   1.00
C517   C     0.95307   0.49252   0.04921   0.00000  Uiso   1.00
H518   H     0.95039   0.46656   0.07565   0.00000  Uiso   1.00
H519   H     0.97551   0.47980   0.02570   0.00000  Uiso   1.00
H520   H     0.96688   0.52432   0.06309   0.00000  Uiso   1.00
C521   C     0.70097   0.41112   0.25466   0.00000  Uiso   1.00
H522   H     0.72614   0.40965   0.28136   0.00000  Uiso   1.00
H523   H     0.67575   0.38829   0.26653   0.00000  Uiso   1.00
H524   H     0.71136   0.39791   0.22287   0.00000  Uiso   1.00
C525   C     0.96570   0.58888   0.24537   0.00000  Uiso   1.00
H526   H     0.94053   0.59036   0.21866   0.00000  Uiso   1.00
H527   H     0.95530   0.60209   0.27716   0.00000  Uiso   1.00
H528   H     0.99092   0.61171   0.23351   0.00000  Uiso   1.00
C529   C     0.95542   0.42528   0.20451   0.00000  Uiso   1.00
H530   H     0.92920   0.43797   0.18288   0.00000  Uiso   1.00
H531   H     0.97743   0.41104   0.18143   0.00000  Uiso   1.00
H532   H     0.94351   0.39827   0.22655   0.00000  Uiso   1.00
C533   C     0.71125   0.57472   0.29551   0.00000  Uiso   1.00
H534   H     0.73748   0.56203   0.31713   0.00000  Uiso   1.00
H535   H     0.72316   0.60173   0.27346   0.00000  Uiso   1.00
H536   H     0.68925   0.58896   0.31859   0.00000  Uiso   1.00
C537   C     0.88790   0.38226   0.31378   0.00000  Uiso   1.00
H538   H     0.88827   0.41838   0.31154   0.00000  Uiso   1.00
H539   H     0.88003   0.37324   0.34842   0.00000  Uiso   1.00
H540   H     0.92054   0.37341   0.30806   0.00000  Uiso   1.00
C541   C     0.77876   0.61774   0.18622   0.00000  Uiso   1.00
H542   H     0.77840   0.58162   0.18846   0.00000  Uiso   1.00
H543   H     0.74612   0.62657   0.19196   0.00000  Uiso   1.00
H544   H     0.78662   0.62678   0.15159   0.00000  Uiso   1.00
C545   C     0.78541   0.38064   0.18143   0.00000  Uiso   1.00
H546   H     0.77591   0.41363   0.19135   0.00000  Uiso   1.00
H547   H     0.80509   0.38380   0.15208   0.00000  Uiso   1.00
H548   H     0.75542   0.36351   0.17078   0.00000  Uiso   1.00
C549   C     0.88122   0.61935   0.31859   0.00000  Uiso   1.00
H550   H     0.89078   0.58639   0.30864   0.00000  Uiso   1.00
H551   H     0.91117   0.63651   0.32933   0.00000  Uiso   1.00
H552   H     0.86149   0.61612   0.34789   0.00000  Uiso   1.00
O553   O     0.10559   0.87154   0.25000   0.00000  Uiso   1.00
O554   O     0.22774   0.79513   0.25001   0.00000  Uiso   1.00
O555   O     0.22774   0.87154   0.25001   0.00000  Uiso   1.00
O556   O     0.10559   0.79513   0.25000   0.00000  Uiso   1.00
C557   C     0.08691   0.83238   0.25424   0.00000  Uiso   1.00
C558   C     0.24642   0.83428   0.24577   0.00000  Uiso   1.00
O559   O     0.16666   0.87156   0.18393   0.00000  Uiso   1.00
O560   O     0.16667   0.79511   0.31608   0.00000  Uiso   1.00
O561   O     0.16667   0.87156   0.31608   0.00000  Uiso   1.00
O562   O     0.16666   0.79511   0.18393   0.00000  Uiso   1.00
C563   C     0.16708   0.83350   0.16388   0.00000  Uiso   1.00
C564   C     0.16625   0.83317   0.33612   0.00000  Uiso   1.00
Zn565  Zn    0.16667   0.88437   0.25000   0.00000  Uiso   1.00
Zn566  Zn    0.16667   0.78229   0.25000   0.00000  Uiso   1.00
C567   C     0.20420   0.83832   0.40827   0.00000  Uiso   1.00
C568   C     0.12913   0.82835   0.09173   0.00000  Uiso   1.00
C569   C     0.16613   0.83283   0.38388   0.00000  Uiso   1.00
C570   C     0.16720   0.83384   0.11612   0.00000  Uiso   1.00
C571   C     0.12810   0.82650   0.40447   0.00000  Uiso   1.00
C572   C     0.20523   0.84017   0.09553   0.00000  Uiso   1.00
C573   C     0.12722   0.83095   0.45118   0.00000  Uiso   1.00
C574   C     0.20611   0.83572   0.04882   0.00000  Uiso   1.00
C575   C     0.16624   0.83344   0.47650   0.00000  Uiso   1.00
C576   C     0.16709   0.83324   0.02350   0.00000  Uiso   1.00
C577   C     0.20455   0.83614   0.45485   0.00000  Uiso   1.00
C578   C     0.12879   0.83054   0.04515   0.00000  Uiso   1.00
C579   C     0.08928   0.83303   0.47375   0.00000  Uiso   1.00
C580   C     0.24405   0.83365   0.02625   0.00000  Uiso   1.00
C581   C     0.09077   0.83115   0.02006   0.00000  Uiso   1.00
C582   C     0.24257   0.83552   0.47994   0.00000  Uiso   1.00
H583   H     0.06150   0.83134   0.03659   0.00000  Uiso   1.00
H584   H     0.27183   0.83534   0.46341   0.00000  Uiso   1.00
C585   C     0.01840   0.79130   0.24771   0.00000  Uiso   1.00
C586   C     0.31494   0.87537   0.25231   0.00000  Uiso   1.00
C587   C     0.31056   0.79586   0.23210   0.00000  Uiso   1.00
C588   C     0.02277   0.87081   0.26792   0.00000  Uiso   1.00
C589   C     0.29107   0.83625   0.24015   0.00000  Uiso   1.00
C590   C     0.04227   0.83042   0.25987   0.00000  Uiso   1.00
C591   C     0.19155   0.69122   0.28061   0.00000  Uiso   1.00
C592   C     0.14179   0.97545   0.21939   0.00000  Uiso   1.00
C593   C     0.14241   0.69002   0.21889   0.00000  Uiso   1.00
C594   C     0.19091   0.97664   0.28111   0.00000  Uiso   1.00
N595   N     0.16667   0.95240   0.25000   0.00000  Uiso   1.00
N596   N     0.16667   0.71427   0.25000   0.00000  Uiso   1.00
C597   C     0.24279   0.84450   0.38491   0.00000  Uiso   1.00
N598   N     0.27338   0.84940   0.36627   0.00000  Uiso   1.00
C599   C     0.09054   0.82217   0.11509   0.00000  Uiso   1.00
N600   N     0.05995   0.81727   0.13373   0.00000  Uiso   1.00
C601   C     0.09165   0.81097   0.37739   0.00000  Uiso   1.00
N602   N     0.06267   0.79819   0.35593   0.00000  Uiso   1.00
C603   C     0.24168   0.85569   0.12261   0.00000  Uiso   1.00
N604   N     0.27066   0.86848   0.14408   0.00000  Uiso   1.00
C605   C     0.04693   0.84083   0.45079   0.00000  Uiso   1.00
H606   H     0.04961   0.86679   0.42435   0.00000  Uiso   1.00
H607   H     0.03312   0.80903   0.43692   0.00000  Uiso   1.00
H608   H     0.02450   0.85355   0.47430   0.00000  Uiso   1.00
C609   C     0.28641   0.82585   0.04921   0.00000  Uiso   1.00
H610   H     0.28373   0.79989   0.07565   0.00000  Uiso   1.00
H611   H     0.30884   0.81314   0.02570   0.00000  Uiso   1.00
H612   H     0.30021   0.85765   0.06309   0.00000  Uiso   1.00
C613   C     0.03430   0.74445   0.25466   0.00000  Uiso   1.00
H614   H     0.05947   0.74298   0.28136   0.00000  Uiso   1.00
H615   H     0.00908   0.72163   0.26653   0.00000  Uiso   1.00
H616   H     0.04469   0.73124   0.22287   0.00000  Uiso   1.00
C617   C     0.29903   0.92222   0.24537   0.00000  Uiso   1.00
H618   H     0.27387   0.92369   0.21866   0.00000  Uiso   1.00
H619   H     0.28864   0.93542   0.27716   0.00000  Uiso   1.00
H620   H     0.32425   0.94505   0.23351   0.00000  Uiso   1.00
C621   C     0.28875   0.75861   0.20451   0.00000  Uiso   1.00
H622   H     0.26253   0.77130   0.18288   0.00000  Uiso   1.00
H623   H     0.31076   0.74437   0.18143   0.00000  Uiso   1.00
H624   H     0.27685   0.73160   0.22655   0.00000  Uiso   1.00
C625   C     0.04459   0.90806   0.29551   0.00000  Uiso   1.00
H626   H     0.07081   0.89536   0.31713   0.00000  Uiso   1.00
H627   H     0.05649   0.93506   0.27346   0.00000  Uiso   1.00
H628   H     0.02258   0.92229   0.31859   0.00000  Uiso   1.00
C629   C     0.22123   0.71559   0.31378   0.00000  Uiso   1.00
H630   H     0.22160   0.75171   0.31154   0.00000  Uiso   1.00
H631   H     0.21336   0.70657   0.34842   0.00000  Uiso   1.00
H632   H     0.25388   0.70675   0.30806   0.00000  Uiso   1.00
C633   C     0.11209   0.95107   0.18622   0.00000  Uiso   1.00
H634   H     0.11174   0.91495   0.18846   0.00000  Uiso   1.00
H635   H     0.07945   0.95990   0.19196   0.00000  Uiso   1.00
H636   H     0.11995   0.96011   0.15159   0.00000  Uiso   1.00
C637   C     0.11874   0.71398   0.18143   0.00000  Uiso   1.00
H638   H     0.10925   0.74696   0.19135   0.00000  Uiso   1.00
H639   H     0.13842   0.71713   0.15208   0.00000  Uiso   1.00
H640   H     0.08875   0.69684   0.17078   0.00000  Uiso   1.00
C641   C     0.21455   0.95268   0.31859   0.00000  Uiso   1.00
H642   H     0.22411   0.91973   0.30864   0.00000  Uiso   1.00
H643   H     0.24450   0.96984   0.32933   0.00000  Uiso   1.00
H644   H     0.19482   0.94945   0.34789   0.00000  Uiso   1.00
O645   O     0.43892   0.87154   0.25000   0.00000  Uiso   1.00
O646   O     0.56108   0.79513   0.25001   0.00000  Uiso   1.00
O647   O     0.56108   0.87154   0.25001   0.00000  Uiso   1.00
O648   O     0.43892   0.79513   0.25000   0.00000  Uiso   1.00
C649   C     0.42025   0.83238   0.25424   0.00000  Uiso   1.00
C650   C     0.57975   0.83428   0.24577   0.00000  Uiso   1.00
O651   O     0.49999   0.87156   0.18393   0.00000  Uiso   1.00
O652   O     0.50001   0.79511   0.31608   0.00000  Uiso   1.00
O653   O     0.50001   0.87156   0.31608   0.00000  Uiso   1.00
O654   O     0.49999   0.79511   0.18393   0.00000  Uiso   1.00
C655   C     0.50042   0.83350   0.16388   0.00000  Uiso   1.00
C656   C     0.49958   0.83317   0.33612   0.00000  Uiso   1.00
Zn657  Zn    0.50000   0.88437   0.25000   0.00000  Uiso   1.00
Zn658  Zn    0.50000   0.78229   0.25000   0.00000  Uiso   1.00
C659   C     0.53753   0.83832   0.40827   0.00000  Uiso   1.00
C660   C     0.46247   0.82835   0.09173   0.00000  Uiso   1.00
C661   C     0.49946   0.83283   0.38388   0.00000  Uiso   1.00
C662   C     0.50054   0.83384   0.11612   0.00000  Uiso   1.00
C663   C     0.46144   0.82650   0.40447   0.00000  Uiso   1.00
C664   C     0.53857   0.84017   0.09553   0.00000  Uiso   1.00
C665   C     0.46056   0.83095   0.45118   0.00000  Uiso   1.00
C666   C     0.53945   0.83572   0.04882   0.00000  Uiso   1.00
C667   C     0.49957   0.83344   0.47650   0.00000  Uiso   1.00
C668   C     0.50043   0.83324   0.02350   0.00000  Uiso   1.00
C669   C     0.53788   0.83614   0.45485   0.00000  Uiso   1.00
C670   C     0.46212   0.83054   0.04515   0.00000  Uiso   1.00
C671   C     0.42262   0.83303   0.47375   0.00000  Uiso   1.00
C672   C     0.57739   0.83365   0.02625   0.00000  Uiso   1.00
C673   C     0.42410   0.83115   0.02006   0.00000  Uiso   1.00
C674   C     0.57590   0.83552   0.47994   0.00000  Uiso   1.00
H675   H     0.39484   0.83134   0.03659   0.00000  Uiso   1.00
H676   H     0.60517   0.83534   0.46341   0.00000  Uiso   1.00
C677   C     0.35173   0.79130   0.24771   0.00000  Uiso   1.00
C678   C     0.64827   0.87537   0.25231   0.00000  Uiso   1.00
C679   C     0.64390   0.79586   0.23210   0.00000  Uiso   1.00
C680   C     0.35611   0.87081   0.26792   0.00000  Uiso   1.00
C681   C     0.62440   0.83625   0.24015   0.00000  Uiso   1.00
C682   C     0.37560   0.83042   0.25987   0.00000  Uiso   1.00
C683   C     0.52488   0.69122   0.28061   0.00000  Uiso   1.00
C684   C     0.47512   0.97545   0.21939   0.00000  Uiso   1.00
C685   C     0.47575   0.69002   0.21889   0.00000  Uiso   1.00
C686   C     0.52425   0.97664   0.28111   0.00000  Uiso   1.00
N687   N     0.50000   0.95240   0.25000   0.00000  Uiso   1.00
N688   N     0.50000   0.71427   0.25000   0.00000  Uiso   1.00
C689   C     0.57612   0.84450   0.38491   0.00000  Uiso   1.00
N690   N     0.60672   0.84940   0.36627   0.00000  Uiso   1.00
C691   C     0.42388   0.82217   0.11509   0.00000  Uiso   1.00
N692   N     0.39328   0.81727   0.13373   0.00000  Uiso   1.00
C693   C     0.42498   0.81097   0.37739   0.00000  Uiso   1.00
N694   N     0.39600   0.79819   0.35593   0.00000  Uiso   1.00
C695   C     0.57502   0.85569   0.12261   0.00000  Uiso   1.00
N696   N     0.60400   0.86848   0.14408   0.00000  Uiso   1.00
C697   C     0.38026   0.84083   0.45079   0.00000  Uiso   1.00
H698   H     0.38295   0.86679   0.42435   0.00000  Uiso   1.00
H699   H     0.36645   0.80903   0.43692   0.00000  Uiso   1.00
H700   H     0.35783   0.85355   0.47430   0.00000  Uiso   1.00
C701   C     0.61974   0.82585   0.04921   0.00000  Uiso   1.00
H702   H     0.61706   0.79989   0.07565   0.00000  Uiso   1.00
H703   H     0.64217   0.81314   0.02570   0.00000  Uiso   1.00
H704   H     0.63354   0.85765   0.06309   0.00000  Uiso   1.00
C705   C     0.36764   0.74445   0.25466   0.00000  Uiso   1.00
H706   H     0.39281   0.74298   0.28136   0.00000  Uiso   1.00
H707   H     0.34241   0.72163   0.26653   0.00000  Uiso   1.00
H708   H     0.37802   0.73124   0.22287   0.00000  Uiso   1.00
C709   C     0.63236   0.92222   0.24537   0.00000  Uiso   1.00
H710   H     0.60720   0.92369   0.21866   0.00000  Uiso   1.00
H711   H     0.62197   0.93542   0.27716   0.00000  Uiso   1.00
H712   H     0.65759   0.94505   0.23351   0.00000  Uiso   1.00
C713   C     0.62209   0.75861   0.20451   0.00000  Uiso   1.00
H714   H     0.59586   0.77130   0.18288   0.00000  Uiso   1.00
H715   H     0.64409   0.74437   0.18143   0.00000  Uiso   1.00
H716   H     0.61018   0.73160   0.22655   0.00000  Uiso   1.00
C717   C     0.37792   0.90806   0.29551   0.00000  Uiso   1.00
H718   H     0.40415   0.89536   0.31713   0.00000  Uiso   1.00
H719   H     0.38983   0.93506   0.27346   0.00000  Uiso   1.00
H720   H     0.35592   0.92229   0.31859   0.00000  Uiso   1.00
C721   C     0.55457   0.71559   0.31378   0.00000  Uiso   1.00
H722   H     0.55494   0.75171   0.31154   0.00000  Uiso   1.00
H723   H     0.54669   0.70657   0.34842   0.00000  Uiso   1.00
H724   H     0.58721   0.70675   0.30806   0.00000  Uiso   1.00
C725   C     0.44543   0.95107   0.18622   0.00000  Uiso   1.00
H726   H     0.44507   0.91495   0.18846   0.00000  Uiso   1.00
H727   H     0.41278   0.95990   0.19196   0.00000  Uiso   1.00
H728   H     0.45328   0.96011   0.15159   0.00000  Uiso   1.00
C729   C     0.45208   0.71398   0.18143   0.00000  Uiso   1.00
H730   H     0.44258   0.74696   0.19135   0.00000  Uiso   1.00
H731   H     0.47175   0.71713   0.15208   0.00000  Uiso   1.00
H732   H     0.42209   0.69684   0.17078   0.00000  Uiso   1.00
C733   C     0.54789   0.95268   0.31859   0.00000  Uiso   1.00
H734   H     0.55745   0.91973   0.30864   0.00000  Uiso   1.00
H735   H     0.57783   0.96984   0.32933   0.00000  Uiso   1.00
H736   H     0.52815   0.94945   0.34789   0.00000  Uiso   1.00
O737   O     0.77226   0.87154   0.25000   0.00000  Uiso   1.00
O738   O     0.89441   0.79513   0.25001   0.00000  Uiso   1.00
O739   O     0.89441   0.87154   0.25001   0.00000  Uiso   1.00
O740   O     0.77226   0.79513   0.25000   0.00000  Uiso   1.00
C741   C     0.75358   0.83238   0.25424   0.00000  Uiso   1.00
C742   C     0.91309   0.83428   0.24577   0.00000  Uiso   1.00
O743   O     0.83333   0.87156   0.18393   0.00000  Uiso   1.00
O744   O     0.83334   0.79511   0.31608   0.00000  Uiso   1.00
O745   O     0.83334   0.87156   0.31608   0.00000  Uiso   1.00
O746   O     0.83333   0.79511   0.18393   0.00000  Uiso   1.00
C747   C     0.83375   0.83350   0.16388   0.00000  Uiso   1.00
C748   C     0.83292   0.83317   0.33612   0.00000  Uiso   1.00
Zn749  Zn    0.83333   0.88437   0.25000   0.00000  Uiso   1.00
Zn750  Zn    0.83333   0.78229   0.25000   0.00000  Uiso   1.00
C751   C     0.87087   0.83832   0.40827   0.00000  Uiso   1.00
C752   C     0.79580   0.82835   0.09173   0.00000  Uiso   1.00
C753   C     0.83280   0.83283   0.38388   0.00000  Uiso   1.00
C754   C     0.83387   0.83384   0.11612   0.00000  Uiso   1.00
C755   C     0.79477   0.82650   0.40447   0.00000  Uiso   1.00
C756   C     0.87190   0.84017   0.09553   0.00000  Uiso   1.00
C757   C     0.79389   0.83095   0.45118   0.00000  Uiso   1.00
C758   C     0.87278   0.83572   0.04882   0.00000  Uiso   1.00
C759   C     0.83291   0.83344   0.47650   0.00000  Uiso   1.00
C760   C     0.83376   0.83324   0.02350   0.00000  Uiso   1.00
C761   C     0.87121   0.83614   0.45485   0.00000  Uiso   1.00
C762   C     0.79546   0.83054   0.04515   0.00000  Uiso   1.00
C763   C     0.75595   0.83303   0.47375   0.00000  Uiso   1.00
C764   C     0.91072   0.83365   0.02625   0.00000  Uiso   1.00
C765   C     0.75743   0.83115   0.02006   0.00000  Uiso   1.00
C766   C     0.90924   0.83552   0.47994   0.00000  Uiso   1.00
H767   H     0.72817   0.83134   0.03659   0.00000  Uiso   1.00
H768   H     0.93850   0.83534   0.46341   0.00000  Uiso   1.00
C769   C     0.68506   0.79130   0.24771   0.00000  Uiso   1.00
C770   C     0.98160   0.87537   0.25231   0.00000  Uiso   1.00
C771   C     0.97723   0.79586   0.23210   0.00000  Uiso   1.00
C772   C     0.68944   0.87081   0.26792   0.00000  Uiso   1.00
C773   C     0.95774   0.83625   0.24015   0.00000  Uiso   1.00
C774   C     0.70893   0.83042   0.25987   0.00000  Uiso   1.00
C775   C     0.85821   0.69122   0.28061   0.00000  Uiso   1.00
C776   C     0.80845   0.97545   0.21939   0.00000  Uiso   1.00
C777   C     0.80908   0.69002   0.21889   0.00000  Uiso   1.00
C778   C     0.85758   0.97664   0.28111   0.00000  Uiso   1.00
N779   N     0.83333   0.95240   0.25000   0.00000  Uiso   1.00
N780   N     0.83333   0.71427   0.25000   0.00000  Uiso   1.00
C781   C     0.90946   0.84450   0.38491   0.00000  Uiso   1.00
N782   N     0.94005   0.84940   0.36627   0.00000  Uiso   1.00
C783   C     0.75721   0.82217   0.11509   0.00000  Uiso   1.00
N784   N     0.72662   0.81727   0.13373   0.00000  Uiso   1.00
C785   C     0.75832   0.81097   0.37739   0.00000  Uiso   1.00
N786   N     0.72934   0.79819   0.35593   0.00000  Uiso   1.00
C787   C     0.90835   0.85569   0.12261   0.00000  Uiso   1.00
N788   N     0.93733   0.86848   0.14408   0.00000  Uiso   1.00
C789   C     0.71360   0.84083   0.45079   0.00000  Uiso   1.00
H790   H     0.71628   0.86679   0.42435   0.00000  Uiso   1.00
H791   H     0.69979   0.80903   0.43692   0.00000  Uiso   1.00
H792   H     0.69117   0.85355   0.47430   0.00000  Uiso   1.00
C793   C     0.95307   0.82585   0.04921   0.00000  Uiso   1.00
H794   H     0.95039   0.79989   0.07565   0.00000  Uiso   1.00
H795   H     0.97551   0.81314   0.02570   0.00000  Uiso   1.00
H796   H     0.96688   0.85765   0.06309   0.00000  Uiso   1.00
C797   C     0.70097   0.74445   0.25466   0.00000  Uiso   1.00
H798   H     0.72614   0.74298   0.28136   0.00000  Uiso   1.00
H799   H     0.67575   0.72163   0.26653   0.00000  Uiso   1.00
H800   H     0.71136   0.73124   0.22287   0.00000  Uiso   1.00
C801   C     0.96570   0.92222   0.24537   0.00000  Uiso   1.00
H802   H     0.94053   0.92369   0.21866   0.00000  Uiso   1.00
H803   H     0.95530   0.93542   0.27716   0.00000  Uiso   1.00
H804   H     0.99092   0.94505   0.23351   0.00000  Uiso   1.00
C805   C     0.95542   0.75861   0.20451   0.00000  Uiso   1.00
H806   H     0.92920   0.77130   0.18288   0.00000  Uiso   1.00
H807   H     0.97743   0.74437   0.18143   0.00000  Uiso   1.00
H808   H     0.94351   0.73160   0.22655   0.00000  Uiso   1.00
C809   C     0.71125   0.90806   0.29551   0.00000  Uiso   1.00
H810   H     0.73748   0.89536   0.31713   0.00000  Uiso   1.00
H811   H     0.72316   0.93506   0.27346   0.00000  Uiso   1.00
H812   H     0.68925   0.92229   0.31859   0.00000  Uiso   1.00
C813   C     0.88790   0.71559   0.31378   0.00000  Uiso   1.00
H814   H     0.88827   0.75171   0.31154   0.00000  Uiso   1.00
H815   H     0.88003   0.70657   0.34842   0.00000  Uiso   1.00
H816   H     0.92054   0.70675   0.30806   0.00000  Uiso   1.00
C817   C     0.77876   0.95107   0.18622   0.00000  Uiso   1.00
H818   H     0.77840   0.91495   0.18846   0.00000  Uiso   1.00
H819   H     0.74612   0.95990   0.19196   0.00000  Uiso   1.00
H820   H     0.78662   0.96011   0.15159   0.00000  Uiso   1.00
C821   C     0.78541   0.71398   0.18143   0.00000  Uiso   1.00
H822   H     0.77591   0.74696   0.19135   0.00000  Uiso   1.00
H823   H     0.80509   0.71713   0.15208   0.00000  Uiso   1.00
H824   H     0.75542   0.69684   0.17078   0.00000  Uiso   1.00
C825   C     0.88122   0.95268   0.31859   0.00000  Uiso   1.00
H826   H     0.89078   0.91973   0.30864   0.00000  Uiso   1.00
H827   H     0.91117   0.96984   0.32933   0.00000  Uiso   1.00
H828   H     0.86149   0.94945   0.34789   0.00000  Uiso   1.00
O829   O     0.10559   0.20487   0.75000   0.00000  Uiso   1.00
O830   O     0.22774   0.12846   0.75001   0.00000  Uiso   1.00
O831   O     0.22774   0.20487   0.75001   0.00000  Uiso   1.00
O832   O     0.10559   0.12846   0.75000   0.00000  Uiso   1.00
C833   C     0.08691   0.16572   0.75424   0.00000  Uiso   1.00
C834   C     0.24642   0.16762   0.74577   0.00000  Uiso   1.00
O835   O     0.16666   0.20489   0.68393   0.00000  Uiso   1.00
O836   O     0.16667   0.12844   0.81608   0.00000  Uiso   1.00
O837   O     0.16667   0.20489   0.81608   0.00000  Uiso   1.00
O838   O     0.16666   0.12844   0.68393   0.00000  Uiso   1.00
C839   C     0.16708   0.16683   0.66388   0.00000  Uiso   1.00
C840   C     0.16625   0.16650   0.83612   0.00000  Uiso   1.00
Zn841  Zn    0.16667   0.21771   0.75000   0.00000  Uiso   1.00
Zn842  Zn    0.16667   0.11563   0.75000   0.00000  Uiso   1.00
C843   C     0.20420   0.17165   0.90827   0.00000  Uiso   1.00
C844   C     0.12913   0.16168   0.59173   0.00000  Uiso   1.00
C845   C     0.16613   0.16616   0.88388   0.00000  Uiso   1.00
C846   C     0.16720   0.16717   0.61612   0.00000  Uiso   1.00
C847   C     0.12810   0.15983   0.90447   0.00000  Uiso   1.00
C848   C     0.20523   0.17350   0.59553   0.00000  Uiso   1.00
C849   C     0.12722   0.16428   0.95118   0.00000  Uiso   1.00
C850   C     0.20611   0.16906   0.54882   0.00000  Uiso   1.00
C851   C     0.16624   0.16677   0.97650   0.00000  Uiso   1.00
C852   C     0.16709   0.16657   0.52350   0.00000  Uiso   1.00
C853   C     0.20455   0.16947   0.95485   0.00000  Uiso   1.00
C854   C     0.12879   0.16387   0.54515   0.00000  Uiso   1.00
C855   C     0.08928   0.16636   0.97375   0.00000  Uiso   1.00
C856   C     0.24405   0.16699   0.52625   0.00000  Uiso   1.00
C857   C     0.09077   0.16449   0.52006   0.00000  Uiso   1.00
C858   C     0.24257   0.16886   0.97994   0.00000  Uiso   1.00
H859   H     0.06150   0.16468   0.53659   0.00000  Uiso   1.00
H860   H     0.27183   0.16867   0.96341   0.00000  Uiso   1.00
C861   C     0.01840   0.12463   0.74771   0.00000  Uiso   1.00
C862   C     0.31494   0.20870   0.75231   0.00000  Uiso   1.00
C863   C     0.31056   0.12919   0.73210   0.00000  Uiso   1.00
C864   C     0.02277   0.20415   0.76792   0.00000  Uiso   1.00
C865   C     0.29107   0.16958   0.74015   0.00000  Uiso   1.00
C866   C     0.04227   0.16376   0.75987   0.00000  Uiso   1.00
C867   C     0.19155   0.02455   0.78061   0.00000  Uiso   1.00
C868   C     0.14179   0.30878   0.71939   0.00000  Uiso   1.00
C869   C     0.14241   0.02335   0.71889   0.00000  Uiso   1.00
C870   C     0.19091   0.30998   0.78111   0.00000  Uiso   1.00
N871   N     0.16667   0.28573   0.75000   0.00000  Uiso   1.00
N872   N     0.16667   0.04760   0.75000   0.00000  Uiso   1.00
C873   C     0.24279   0.17784   0.88491   0.00000  Uiso   1.00
N874   N     0.27338   0.18274   0.86627   0.00000  Uiso   1.00
C875   C     0.09054   0.15550   0.61509   0.00000  Uiso   1.00
N876   N     0.05995   0.15060   0.63373   0.00000  Uiso   1.00
C877   C     0.09165   0.14430   0.87739   0.00000  Uiso   1.00
N878   N     0.06267   0.13152   0.85593   0.00000  Uiso   1.00
C879   C     0.24168   0.18903   0.62261   0.00000  Uiso   1.00
N880   N     0.27066   0.20181   0.64408   0.00000  Uiso   1.00
C881   C     0.04693   0.17417   0.95079   0.00000  Uiso   1.00
H882   H     0.04961   0.20012   0.92435   0.00000  Uiso   1.00
H883   H     0.03312   0.14236   0.93692   0.00000  Uiso   1.00
H884   H     0.02450   0.18689   0.97430   0.00000  Uiso   1.00
C885   C     0.28641   0.15918   0.54921   0.00000  Uiso   1.00
H886   H     0.28373   0.13322   0.57565   0.00000  Uiso   1.00
H887   H     0.30884   0.14647   0.52570   0.00000  Uiso   1.00
H888   H     0.30021   0.19098   0.56309   0.00000  Uiso   1.00
C889   C     0.03430   0.07778   0.75466   0.00000  Uiso   1.00
H890   H     0.05947   0.07631   0.78136   0.00000  Uiso   1.00
H891   H     0.00908   0.05496   0.76653   0.00000  Uiso   1.00
H892   H     0.04469   0.06457   0.72287   0.00000  Uiso   1.00
C893   C     0.29903   0.25555   0.74537   0.00000  Uiso   1.00
H894   H     0.27387   0.25703   0.71866   0.00000  Uiso   1.00
H895   H     0.28864   0.26875   0.77716   0.00000  Uiso   1.00
H896   H     0.32425   0.27838   0.73351   0.00000  Uiso   1.00
C897   C     0.28875   0.09194   0.70451   0.00000  Uiso   1.00
H898   H     0.26253   0.10464   0.68288   0.00000  Uiso   1.00
H899   H     0.31076   0.07770   0.68143   0.00000  Uiso   1.00
H900   H     0.27685   0.06493   0.72655   0.00000  Uiso   1.00
C901   C     0.04459   0.24139   0.79551   0.00000  Uiso   1.00
H902   H     0.07081   0.22869   0.81713   0.00000  Uiso   1.00
H903   H     0.05649   0.26840   0.77346   0.00000  Uiso   1.00
H904   H     0.02258   0.25563   0.81859   0.00000  Uiso   1.00
C905   C     0.22123   0.04893   0.81378   0.00000  Uiso   1.00
H906   H     0.22160   0.08505   0.81154   0.00000  Uiso   1.00
H907   H     0.21336   0.03990   0.84842   0.00000  Uiso   1.00
H908   H     0.25388   0.04008   0.80806   0.00000  Uiso   1.00
C909   C     0.11209   0.28441   0.68622   0.00000  Uiso   1.00
H910   H     0.11174   0.24829   0.68846   0.00000  Uiso   1.00
H911   H     0.07945   0.29324   0.69196   0.00000  Uiso   1.00
H912   H     0.11995   0.29344   0.65159   0.00000  Uiso   1.00
C913   C     0.11874   0.04731   0.68143   0.00000  Uiso   1.00
H914   H     0.10925   0.08030   0.69135   0.00000  Uiso   1.00
H915   H     0.13842   0.05047   0.65208   0.00000  Uiso   1.00
H916   H     0.08875   0.03018   0.67078   0.00000  Uiso   1.00
C917   C     0.21455   0.28601   0.81859   0.00000  Uiso   1.00
H918   H     0.22411   0.25306   0.80864   0.00000  Uiso   1.00
H919   H     0.24450   0.30317   0.82933   0.00000  Uiso   1.00
H920   H     0.19482   0.28278   0.84789   0.00000  Uiso   1.00
O921   O     0.43892   0.20487   0.75000   0.00000  Uiso   1.00
O922   O     0.56108   0.12846   0.75001   0.00000  Uiso   1.00
O923   O     0.56108   0.20487   0.75001   0.00000  Uiso   1.00
O924   O     0.43892   0.12846   0.75000   0.00000  Uiso   1.00
C925   C     0.42025   0.16572   0.75424   0.00000  Uiso   1.00
C926   C     0.57975   0.16762   0.74577   0.00000  Uiso   1.00
O927   O     0.49999   0.20489   0.68393   0.00000  Uiso   1.00
O928   O     0.50001   0.12844   0.81608   0.00000  Uiso   1.00
O929   O     0.50001   0.20489   0.81608   0.00000  Uiso   1.00
O930   O     0.49999   0.12844   0.68393   0.00000  Uiso   1.00
C931   C     0.50042   0.16683   0.66388   0.00000  Uiso   1.00
C932   C     0.49958   0.16650   0.83612   0.00000  Uiso   1.00
Zn933  Zn    0.50000   0.21771   0.75000   0.00000  Uiso   1.00
Zn934  Zn    0.50000   0.11563   0.75000   0.00000  Uiso   1.00
C935   C     0.53753   0.17165   0.90827   0.00000  Uiso   1.00
C936   C     0.46247   0.16168   0.59173   0.00000  Uiso   1.00
C937   C     0.49946   0.16616   0.88388   0.00000  Uiso   1.00
C938   C     0.50054   0.16717   0.61612   0.00000  Uiso   1.00
C939   C     0.46144   0.15983   0.90447   0.00000  Uiso   1.00
C940   C     0.53857   0.17350   0.59553   0.00000  Uiso   1.00
C941   C     0.46056   0.16428   0.95118   0.00000  Uiso   1.00
C942   C     0.53945   0.16906   0.54882   0.00000  Uiso   1.00
C943   C     0.49957   0.16677   0.97650   0.00000  Uiso   1.00
C944   C     0.50043   0.16657   0.52350   0.00000  Uiso   1.00
C945   C     0.53788   0.16947   0.95485   0.00000  Uiso   1.00
C946   C     0.46212   0.16387   0.54515   0.00000  Uiso   1.00
C947   C     0.42262   0.16636   0.97375   0.00000  Uiso   1.00
C948   C     0.57739   0.16699   0.52625   0.00000  Uiso   1.00
C949   C     0.42410   0.16449   0.52006   0.00000  Uiso   1.00
C950   C     0.57590   0.16886   0.97994   0.00000  Uiso   1.00
H951   H     0.39484   0.16468   0.53659   0.00000  Uiso   1.00
H952   H     0.60517   0.16867   0.96341   0.00000  Uiso   1.00
C953   C     0.35173   0.12463   0.74771   0.00000  Uiso   1.00
C954   C     0.64827   0.20870   0.75231   0.00000  Uiso   1.00
C955   C     0.64390   0.12919   0.73210   0.00000  Uiso   1.00
C956   C     0.35611   0.20415   0.76792   0.00000  Uiso   1.00
C957   C     0.62440   0.16958   0.74015   0.00000  Uiso   1.00
C958   C     0.37560   0.16376   0.75987   0.00000  Uiso   1.00
C959   C     0.52488   0.02455   0.78061   0.00000  Uiso   1.00
C960   C     0.47512   0.30878   0.71939   0.00000  Uiso   1.00
C961   C     0.47575   0.02335   0.71889   0.00000  Uiso   1.00
C962   C     0.52425   0.30998   0.78111   0.00000  Uiso   1.00
N963   N     0.50000   0.28573   0.75000   0.00000  Uiso   1.00
N964   N     0.50000   0.04760   0.75000   0.00000  Uiso   1.00
C965   C     0.57612   0.17784   0.88491   0.00000  Uiso   1.00
N966   N     0.60672   0.18274   0.86627   0.00000  Uiso   1.00
C967   C     0.42388   0.15550   0.61509   0.00000  Uiso   1.00
N968   N     0.39328   0.15060   0.63373   0.00000  Uiso   1.00
C969   C     0.42498   0.14430   0.87739   0.00000  Uiso   1.00
N970   N     0.39600   0.13152   0.85593   0.00000  Uiso   1.00
C971   C     0.57502   0.18903   0.62261   0.00000  Uiso   1.00
N972   N     0.60400   0.20181   0.64408   0.00000  Uiso   1.00
C973   C     0.38026   0.17417   0.95079   0.00000  Uiso   1.00
H974   H     0.38295   0.20012   0.92435   0.00000  Uiso   1.00
H975   H     0.36645   0.14236   0.93692   0.00000  Uiso   1.00
H976   H     0.35783   0.18689   0.97430   0.00000  Uiso   1.00
C977   C     0.61974   0.15918   0.54921   0.00000  Uiso   1.00
H978   H     0.61706   0.13322   0.57565   0.00000  Uiso   1.00
H979   H     0.64217   0.14647   0.52570   0.00000  Uiso   1.00
H980   H     0.63354   0.19098   0.56309   0.00000  Uiso   1.00
C981   C     0.36764   0.07778   0.75466   0.00000  Uiso   1.00
H982   H     0.39281   0.07631   0.78136   0.00000  Uiso   1.00
H983   H     0.34241   0.05496   0.76653   0.00000  Uiso   1.00
H984   H     0.37802   0.06457   0.72287   0.00000  Uiso   1.00
C985   C     0.63236   0.25555   0.74537   0.00000  Uiso   1.00
H986   H     0.60720   0.25703   0.71866   0.00000  Uiso   1.00
H987   H     0.62197   0.26875   0.77716   0.00000  Uiso   1.00
H988   H     0.65759   0.27838   0.73351   0.00000  Uiso   1.00
C989   C     0.62209   0.09194   0.70451   0.00000  Uiso   1.00
H990   H     0.59586   0.10464   0.68288   0.00000  Uiso   1.00
H991   H     0.64409   0.07770   0.68143   0.00000  Uiso   1.00
H992   H     0.61018   0.06493   0.72655   0.00000  Uiso   1.00
C993   C     0.37792   0.24139   0.79551   0.00000  Uiso   1.00
H994   H     0.40415   0.22869   0.81713   0.00000  Uiso   1.00
H995   H     0.38983   0.26840   0.77346   0.00000  Uiso   1.00
H996   H     0.35592   0.25563   0.81859   0.00000  Uiso   1.00
C997   C     0.55457   0.04893   0.81378   0.00000  Uiso   1.00
H998   H     0.55494   0.08505   0.81154   0.00000  Uiso   1.00
H999   H     0.54669   0.03990   0.84842   0.00000  Uiso   1.00
H1000  H     0.58721   0.04008   0.80806   0.00000  Uiso   1.00
C1001  C     0.44543   0.28441   0.68622   0.00000  Uiso   1.00
H1002  H     0.44507   0.24829   0.68846   0.00000  Uiso   1.00
H1003  H     0.41278   0.29324   0.69196   0.00000  Uiso   1.00
H1004  H     0.45328   0.29344   0.65159   0.00000  Uiso   1.00
C1005  C     0.45208   0.04731   0.68143   0.00000  Uiso   1.00
H1006  H     0.44258   0.08030   0.69135   0.00000  Uiso   1.00
H1007  H     0.47175   0.05047   0.65208   0.00000  Uiso   1.00
H1008  H     0.42209   0.03018   0.67078   0.00000  Uiso   1.00
C1009  C     0.54789   0.28601   0.81859   0.00000  Uiso   1.00
H1010  H     0.55745   0.25306   0.80864   0.00000  Uiso   1.00
H1011  H     0.57783   0.30317   0.82933   0.00000  Uiso   1.00
H1012  H     0.52815   0.28278   0.84789   0.00000  Uiso   1.00
O1013  O     0.77226   0.20487   0.75000   0.00000  Uiso   1.00
O1014  O     0.89441   0.12846   0.75001   0.00000  Uiso   1.00
O1015  O     0.89441   0.20487   0.75001   0.00000  Uiso   1.00
O1016  O     0.77226   0.12846   0.75000   0.00000  Uiso   1.00
C1017  C     0.75358   0.16572   0.75424   0.00000  Uiso   1.00
C1018  C     0.91309   0.16762   0.74577   0.00000  Uiso   1.00
O1019  O     0.83333   0.20489   0.68393   0.00000  Uiso   1.00
O1020  O     0.83334   0.12844   0.81608   0.00000  Uiso   1.00
O1021  O     0.83334   0.20489   0.81608   0.00000  Uiso   1.00
O1022  O     0.83333   0.12844   0.68393   0.00000  Uiso   1.00
C1023  C     0.83375   0.16683   0.66388   0.00000  Uiso   1.00
C1024  C     0.83292   0.16650   0.83612   0.00000  Uiso   1.00
Zn1025 Zn    0.83333   0.21771   0.75000   0.00000  Uiso   1.00
Zn1026 Zn    0.83333   0.11563   0.75000   0.00000  Uiso   1.00
C1027  C     0.87087   0.17165   0.90827   0.00000  Uiso   1.00
C1028  C     0.79580   0.16168   0.59173   0.00000  Uiso   1.00
C1029  C     0.83280   0.16616   0.88388   0.00000  Uiso   1.00
C1030  C     0.83387   0.16717   0.61612   0.00000  Uiso   1.00
C1031  C     0.79477   0.15983   0.90447   0.00000  Uiso   1.00
C1032  C     0.87190   0.17350   0.59553   0.00000  Uiso   1.00
C1033  C     0.79389   0.16428   0.95118   0.00000  Uiso   1.00
C1034  C     0.87278   0.16906   0.54882   0.00000  Uiso   1.00
C1035  C     0.83291   0.16677   0.97650   0.00000  Uiso   1.00
C1036  C     0.83376   0.16657   0.52350   0.00000  Uiso   1.00
C1037  C     0.87121   0.16947   0.95485   0.00000  Uiso   1.00
C1038  C     0.79546   0.16387   0.54515   0.00000  Uiso   1.00
C1039  C     0.75595   0.16636   0.97375   0.00000  Uiso   1.00
C1040  C     0.91072   0.16699   0.52625   0.00000  Uiso   1.00
C1041  C     0.75743   0.16449   0.52006   0.00000  Uiso   1.00
C1042  C     0.90924   0.16886   0.97994   0.00000  Uiso   1.00
H1043  H     0.72817   0.16468   0.53659   0.00000  Uiso   1.00
H1044  H     0.93850   0.16867   0.96341   0.00000  Uiso   1.00
C1045  C     0.68506   0.12463   0.74771   0.00000  Uiso   1.00
C1046  C     0.98160   0.20870   0.75231   0.00000  Uiso   1.00
C1047  C     0.97723   0.12919   0.73210   0.00000  Uiso   1.00
C1048  C     0.68944   0.20415   0.76792   0.00000  Uiso   1.00
C1049  C     0.95774   0.16958   0.74015   0.00000  Uiso   1.00
C1050  C     0.70893   0.16376   0.75987   0.00000  Uiso   1.00
C1051  C     0.85821   0.02455   0.78061   0.00000  Uiso   1.00
C1052  C     0.80845   0.30878   0.71939   0.00000  Uiso   1.00
C1053  C     0.80908   0.02335   0.71889   0.00000  Uiso   1.00
C1054  C     0.85758   0.30998   0.78111   0.00000  Uiso   1.00
N1055  N     0.83333   0.28573   0.75000   0.00000  Uiso   1.00
N1056  N     0.83333   0.04760   0.75000   0.00000  Uiso   1.00
C1057  C     0.90946   0.17784   0.88491   0.00000  Uiso   1.00
N1058  N     0.94005   0.18274   0.86627   0.00000  Uiso   1.00
C1059  C     0.75721   0.15550   0.61509   0.00000  Uiso   1.00
N1060  N     0.72662   0.15060   0.63373   0.00000  Uiso   1.00
C1061  C     0.75832   0.14430   0.87739   0.00000  Uiso   1.00
N1062  N     0.72934   0.13152   0.85593   0.00000  Uiso   1.00
C1063  C     0.90835   0.18903   0.62261   0.00000  Uiso   1.00
N1064  N     0.93733   0.20181   0.64408   0.00000  Uiso   1.00
C1065  C     0.71360   0.17417   0.95079   0.00000  Uiso   1.00
H1066  H     0.71628   0.20012   0.92435   0.00000  Uiso   1.00
H1067  H     0.69979   0.14236   0.93692   0.00000  Uiso   1.00
H1068  H     0.69117   0.18689   0.97430   0.00000  Uiso   1.00
C1069  C     0.95307   0.15918   0.54921   0.00000  Uiso   1.00
H1070  H     0.95039   0.13322   0.57565   0.00000  Uiso   1.00
H1071  H     0.97551   0.14647   0.52570   0.00000  Uiso   1.00
H1072  H     0.96688   0.19098   0.56309   0.00000  Uiso   1.00
C1073  C     0.70097   0.07778   0.75466   0.00000  Uiso   1.00
H1074  H     0.72614   0.07631   0.78136   0.00000  Uiso   1.00
H1075  H     0.67575   0.05496   0.76653   0.00000  Uiso   1.00
H1076  H     0.71136   0.06457   0.72287   0.00000  Uiso   1.00
C1077  C     0.96570   0.25555   0.74537   0.00000  Uiso   1.00
H1078  H     0.94053   0.25703   0.71866   0.00000  Uiso   1.00
H1079  H     0.95530   0.26875   0.77716   0.00000  Uiso   1.00
H1080  H     0.99092   0.27838   0.73351   0.00000  Uiso   1.00
C1081  C     0.95542   0.09194   0.70451   0.00000  Uiso   1.00
H1082  H     0.92920   0.10464   0.68288   0.00000  Uiso   1.00
H1083  H     0.97743   0.07770   0.68143   0.00000  Uiso   1.00
H1084  H     0.94351   0.06493   0.72655   0.00000  Uiso   1.00
C1085  C     0.71125   0.24139   0.79551   0.00000  Uiso   1.00
H1086  H     0.73748   0.22869   0.81713   0.00000  Uiso   1.00
H1087  H     0.72316   0.26840   0.77346   0.00000  Uiso   1.00
H1088  H     0.68925   0.25563   0.81859   0.00000  Uiso   1.00
C1089  C     0.88790   0.04893   0.81378   0.00000  Uiso   1.00
H1090  H     0.88827   0.08505   0.81154   0.00000  Uiso   1.00
H1091  H     0.88003   0.03990   0.84842   0.00000  Uiso   1.00
H1092  H     0.92054   0.04008   0.80806   0.00000  Uiso   1.00
C1093  C     0.77876   0.28441   0.68622   0.00000  Uiso   1.00
H1094  H     0.77840   0.24829   0.68846   0.00000  Uiso   1.00
H1095  H     0.74612   0.29324   0.69196   0.00000  Uiso   1.00
H1096  H     0.78662   0.29344   0.65159   0.00000  Uiso   1.00
C1097  C     0.78541   0.04731   0.68143   0.00000  Uiso   1.00
H1098  H     0.77591   0.08030   0.69135   0.00000  Uiso   1.00
H1099  H     0.80509   0.05047   0.65208   0.00000  Uiso   1.00
H1100  H     0.75542   0.03018   0.67078   0.00000  Uiso   1.00
C1101  C     0.88122   0.28601   0.81859   0.00000  Uiso   1.00
H1102  H     0.89078   0.25306   0.80864   0.00000  Uiso   1.00
H1103  H     0.91117   0.30317   0.82933   0.00000  Uiso   1.00
H1104  H     0.86149   0.28278   0.84789   0.00000  Uiso   1.00
O1105  O     0.10559   0.53821   0.75000   0.00000  Uiso   1.00
O1106  O     0.22774   0.46179   0.75001   0.00000  Uiso   1.00
O1107  O     0.22774   0.53821   0.75001   0.00000  Uiso   1.00
O1108  O     0.10559   0.46179   0.75000   0.00000  Uiso   1.00
C1109  C     0.08691   0.49905   0.75424   0.00000  Uiso   1.00
C1110  C     0.24642   0.50095   0.74577   0.00000  Uiso   1.00
O1111  O     0.16666   0.53823   0.68393   0.00000  Uiso   1.00
O1112  O     0.16667   0.46177   0.81608   0.00000  Uiso   1.00
O1113  O     0.16667   0.53823   0.81608   0.00000  Uiso   1.00
O1114  O     0.16666   0.46177   0.68393   0.00000  Uiso   1.00
C1115  C     0.16708   0.50017   0.66388   0.00000  Uiso   1.00
C1116  C     0.16625   0.49983   0.83612   0.00000  Uiso   1.00
Zn1117 Zn    0.16667   0.55104   0.75000   0.00000  Uiso   1.00
Zn1118 Zn    0.16667   0.44896   0.75000   0.00000  Uiso   1.00
C1119  C     0.20420   0.50499   0.90827   0.00000  Uiso   1.00
C1120  C     0.12913   0.49502   0.59173   0.00000  Uiso   1.00
C1121  C     0.16613   0.49950   0.88388   0.00000  Uiso   1.00
C1122  C     0.16720   0.50050   0.61612   0.00000  Uiso   1.00
C1123  C     0.12810   0.49317   0.90447   0.00000  Uiso   1.00
C1124  C     0.20523   0.50684   0.59553   0.00000  Uiso   1.00
C1125  C     0.12722   0.49762   0.95118   0.00000  Uiso   1.00
C1126  C     0.20611   0.50239   0.54882   0.00000  Uiso   1.00
C1127  C     0.16624   0.50010   0.97650   0.00000  Uiso   1.00
C1128  C     0.16709   0.49990   0.52350   0.00000  Uiso   1.00
C1129  C     0.20455   0.50281   0.95485   0.00000  Uiso   1.00
C1130  C     0.12879   0.49720   0.54515   0.00000  Uiso   1.00
C1131  C     0.08928   0.49969   0.97375   0.00000  Uiso   1.00
C1132  C     0.24405   0.50032   0.52625   0.00000  Uiso   1.00
C1133  C     0.09077   0.49782   0.52006   0.00000  Uiso   1.00
C1134  C     0.24257   0.50219   0.97994   0.00000  Uiso   1.00
H1135  H     0.06150   0.49801   0.53659   0.00000  Uiso   1.00
H1136  H     0.27183   0.50200   0.96341   0.00000  Uiso   1.00
C1137  C     0.01840   0.45797   0.74771   0.00000  Uiso   1.00
C1138  C     0.31494   0.54204   0.75231   0.00000  Uiso   1.00
C1139  C     0.31056   0.46252   0.73210   0.00000  Uiso   1.00
C1140  C     0.02277   0.53748   0.76792   0.00000  Uiso   1.00
C1141  C     0.29107   0.50291   0.74015   0.00000  Uiso   1.00
C1142  C     0.04227   0.49709   0.75987   0.00000  Uiso   1.00
C1143  C     0.19155   0.35789   0.78061   0.00000  Uiso   1.00
C1144  C     0.14179   0.64211   0.71939   0.00000  Uiso   1.00
C1145  C     0.14241   0.35669   0.71889   0.00000  Uiso   1.00
C1146  C     0.19091   0.64331   0.78111   0.00000  Uiso   1.00
N1147  N     0.16667   0.61907   0.75000   0.00000  Uiso   1.00
N1148  N     0.16667   0.38093   0.75000   0.00000  Uiso   1.00
C1149  C     0.24279   0.51117   0.88491   0.00000  Uiso   1.00
N1150  N     0.27338   0.51607   0.86627   0.00000  Uiso   1.00
C1151  C     0.09054   0.48883   0.61509   0.00000  Uiso   1.00
N1152  N     0.05995   0.48393   0.63373   0.00000  Uiso   1.00
C1153  C     0.09165   0.47764   0.87739   0.00000  Uiso   1.00
N1154  N     0.06267   0.46485   0.85593   0.00000  Uiso   1.00
C1155  C     0.24168   0.52236   0.62261   0.00000  Uiso   1.00
N1156  N     0.27066   0.53514   0.64408   0.00000  Uiso   1.00
C1157  C     0.04693   0.50750   0.95079   0.00000  Uiso   1.00
H1158  H     0.04961   0.53345   0.92435   0.00000  Uiso   1.00
H1159  H     0.03312   0.47570   0.93692   0.00000  Uiso   1.00
H1160  H     0.02450   0.52022   0.97430   0.00000  Uiso   1.00
C1161  C     0.28641   0.49252   0.54921   0.00000  Uiso   1.00
H1162  H     0.28373   0.46656   0.57565   0.00000  Uiso   1.00
H1163  H     0.30884   0.47980   0.52570   0.00000  Uiso   1.00
H1164  H     0.30021   0.52432   0.56309   0.00000  Uiso   1.00
C1165  C     0.03430   0.41112   0.75466   0.00000  Uiso   1.00
H1166  H     0.05947   0.40965   0.78136   0.00000  Uiso   1.00
H1167  H     0.00908   0.38829   0.76653   0.00000  Uiso   1.00
H1168  H     0.04469   0.39791   0.72287   0.00000  Uiso   1.00
C1169  C     0.29903   0.58888   0.74537   0.00000  Uiso   1.00
H1170  H     0.27387   0.59036   0.71866   0.00000  Uiso   1.00
H1171  H     0.28864   0.60209   0.77716   0.00000  Uiso   1.00
H1172  H     0.32425   0.61171   0.73351   0.00000  Uiso   1.00
C1173  C     0.28875   0.42528   0.70451   0.00000  Uiso   1.00
H1174  H     0.26253   0.43797   0.68288   0.00000  Uiso   1.00
H1175  H     0.31076   0.41104   0.68143   0.00000  Uiso   1.00
H1176  H     0.27685   0.39827   0.72655   0.00000  Uiso   1.00
C1177  C     0.04459   0.57472   0.79551   0.00000  Uiso   1.00
H1178  H     0.07081   0.56203   0.81713   0.00000  Uiso   1.00
H1179  H     0.05649   0.60173   0.77346   0.00000  Uiso   1.00
H1180  H     0.02258   0.58896   0.81859   0.00000  Uiso   1.00
C1181  C     0.22123   0.38226   0.81378   0.00000  Uiso   1.00
H1182  H     0.22160   0.41838   0.81154   0.00000  Uiso   1.00
H1183  H     0.21336   0.37324   0.84842   0.00000  Uiso   1.00
H1184  H     0.25388   0.37341   0.80806   0.00000  Uiso   1.00
C1185  C     0.11209   0.61774   0.68622   0.00000  Uiso   1.00
H1186  H     0.11174   0.58162   0.68846   0.00000  Uiso   1.00
H1187  H     0.07945   0.62657   0.69196   0.00000  Uiso   1.00
H1188  H     0.11995   0.62678   0.65159   0.00000  Uiso   1.00
C1189  C     0.11874   0.38064   0.68143   0.00000  Uiso   1.00
H1190  H     0.10925   0.41363   0.69135   0.00000  Uiso   1.00
H1191  H     0.13842   0.38380   0.65208   0.00000  Uiso   1.00
H1192  H     0.08875   0.36351   0.67078   0.00000  Uiso   1.00
C1193  C     0.21455   0.61935   0.81859   0.00000  Uiso   1.00
H1194  H     0.22411   0.58639   0.80864   0.00000  Uiso   1.00
H1195  H     0.24450   0.63651   0.82933   0.00000  Uiso   1.00
H1196  H     0.19482   0.61612   0.84789   0.00000  Uiso   1.00
O1197  O     0.43892   0.53821   0.75000   0.00000  Uiso   1.00
O1198  O     0.56108   0.46179   0.75001   0.00000  Uiso   1.00
O1199  O     0.56108   0.53821   0.75001   0.00000  Uiso   1.00
O1200  O     0.43892   0.46179   0.75000   0.00000  Uiso   1.00
C1201  C     0.42025   0.49905   0.75424   0.00000  Uiso   1.00
C1202  C     0.57975   0.50095   0.74577   0.00000  Uiso   1.00
O1203  O     0.49999   0.53823   0.68393   0.00000  Uiso   1.00
O1204  O     0.50001   0.46177   0.81608   0.00000  Uiso   1.00
O1205  O     0.50001   0.53823   0.81608   0.00000  Uiso   1.00
O1206  O     0.49999   0.46177   0.68393   0.00000  Uiso   1.00
C1207  C     0.50042   0.50017   0.66388   0.00000  Uiso   1.00
C1208  C     0.49958   0.49983   0.83612   0.00000  Uiso   1.00
Zn1209 Zn    0.50000   0.55104   0.75000   0.00000  Uiso   1.00
Zn1210 Zn    0.50000   0.44896   0.75000   0.00000  Uiso   1.00
C1211  C     0.53753   0.50499   0.90827   0.00000  Uiso   1.00
C1212  C     0.46247   0.49502   0.59173   0.00000  Uiso   1.00
C1213  C     0.49946   0.49950   0.88388   0.00000  Uiso   1.00
C1214  C     0.50054   0.50050   0.61612   0.00000  Uiso   1.00
C1215  C     0.46144   0.49317   0.90447   0.00000  Uiso   1.00
C1216  C     0.53857   0.50684   0.59553   0.00000  Uiso   1.00
C1217  C     0.46056   0.49762   0.95118   0.00000  Uiso   1.00
C1218  C     0.53945   0.50239   0.54882   0.00000  Uiso   1.00
C1219  C     0.49957   0.50010   0.97650   0.00000  Uiso   1.00
C1220  C     0.50043   0.49990   0.52350   0.00000  Uiso   1.00
C1221  C     0.53788   0.50281   0.95485   0.00000  Uiso   1.00
C1222  C     0.46212   0.49720   0.54515   0.00000  Uiso   1.00
C1223  C     0.42262   0.49969   0.97375   0.00000  Uiso   1.00
C1224  C     0.57739   0.50032   0.52625   0.00000  Uiso   1.00
C1225  C     0.42410   0.49782   0.52006   0.00000  Uiso   1.00
C1226  C     0.57590   0.50219   0.97994   0.00000  Uiso   1.00
H1227  H     0.39484   0.49801   0.53659   0.00000  Uiso   1.00
H1228  H     0.60517   0.50200   0.96341   0.00000  Uiso   1.00
C1229  C     0.35173   0.45797   0.74771   0.00000  Uiso   1.00
C1230  C     0.64827   0.54204   0.75231   0.00000  Uiso   1.00
C1231  C     0.64390   0.46252   0.73210   0.00000  Uiso   1.00
C1232  C     0.35611   0.53748   0.76792   0.00000  Uiso   1.00
C1233  C     0.62440   0.50291   0.74015   0.00000  Uiso   1.00
C1234  C     0.37560   0.49709   0.75987   0.00000  Uiso   1.00
C1235  C     0.52488   0.35789   0.78061   0.00000  Uiso   1.00
C1236  C     0.47512   0.64211   0.71939   0.00000  Uiso   1.00
C1237  C     0.47575   0.35669   0.71889   0.00000  Uiso   1.00
C1238  C     0.52425   0.64331   0.78111   0.00000  Uiso   1.00
N1239  N     0.50000   0.61907   0.75000   0.00000  Uiso   1.00
N1240  N     0.50000   0.38093   0.75000   0.00000  Uiso   1.00
C1241  C     0.57612   0.51117   0.88491   0.00000  Uiso   1.00
N1242  N     0.60672   0.51607   0.86627   0.00000  Uiso   1.00
C1243  C     0.42388   0.48883   0.61509   0.00000  Uiso   1.00
N1244  N     0.39328   0.48393   0.63373   0.00000  Uiso   1.00
C1245  C     0.42498   0.47764   0.87739   0.00000  Uiso   1.00
N1246  N     0.39600   0.46485   0.85593   0.00000  Uiso   1.00
C1247  C     0.57502   0.52236   0.62261   0.00000  Uiso   1.00
N1248  N     0.60400   0.53514   0.64408   0.00000  Uiso   1.00
C1249  C     0.38026   0.50750   0.95079   0.00000  Uiso   1.00
H1250  H     0.38295   0.53345   0.92435   0.00000  Uiso   1.00
H1251  H     0.36645   0.47570   0.93692   0.00000  Uiso   1.00
H1252  H     0.35783   0.52022   0.97430   0.00000  Uiso   1.00
C1253  C     0.61974   0.49252   0.54921   0.00000  Uiso   1.00
H1254  H     0.61706   0.46656   0.57565   0.00000  Uiso   1.00
H1255  H     0.64217   0.47980   0.52570   0.00000  Uiso   1.00
H1256  H     0.63354   0.52432   0.56309   0.00000  Uiso   1.00
C1257  C     0.36764   0.41112   0.75466   0.00000  Uiso   1.00
H1258  H     0.39281   0.40965   0.78136   0.00000  Uiso   1.00
H1259  H     0.34241   0.38829   0.76653   0.00000  Uiso   1.00
H1260  H     0.37802   0.39791   0.72287   0.00000  Uiso   1.00
C1261  C     0.63236   0.58888   0.74537   0.00000  Uiso   1.00
H1262  H     0.60720   0.59036   0.71866   0.00000  Uiso   1.00
H1263  H     0.62197   0.60209   0.77716   0.00000  Uiso   1.00
H1264  H     0.65759   0.61171   0.73351   0.00000  Uiso   1.00
C1265  C     0.62209   0.42528   0.70451   0.00000  Uiso   1.00
H1266  H     0.59586   0.43797   0.68288   0.00000  Uiso   1.00
H1267  H     0.64409   0.41104   0.68143   0.00000  Uiso   1.00
H1268  H     0.61018   0.39827   0.72655   0.00000  Uiso   1.00
C1269  C     0.37792   0.57472   0.79551   0.00000  Uiso   1.00
H1270  H     0.40415   0.56203   0.81713   0.00000  Uiso   1.00
H1271  H     0.38983   0.60173   0.77346   0.00000  Uiso   1.00
H1272  H     0.35592   0.58896   0.81859   0.00000  Uiso   1.00
C1273  C     0.55457   0.38226   0.81378   0.00000  Uiso   1.00
H1274  H     0.55494   0.41838   0.81154   0.00000  Uiso   1.00
H1275  H     0.54669   0.37324   0.84842   0.00000  Uiso   1.00
H1276  H     0.58721   0.37341   0.80806   0.00000  Uiso   1.00
C1277  C     0.44543   0.61774   0.68622   0.00000  Uiso   1.00
H1278  H     0.44507   0.58162   0.68846   0.00000  Uiso   1.00
H1279  H     0.41278   0.62657   0.69196   0.00000  Uiso   1.00
H1280  H     0.45328   0.62678   0.65159   0.00000  Uiso   1.00
C1281  C     0.45208   0.38064   0.68143   0.00000  Uiso   1.00
H1282  H     0.44258   0.41363   0.69135   0.00000  Uiso   1.00
H1283  H     0.47175   0.38380   0.65208   0.00000  Uiso   1.00
H1284  H     0.42209   0.36351   0.67078   0.00000  Uiso   1.00
C1285  C     0.54789   0.61935   0.81859   0.00000  Uiso   1.00
H1286  H     0.55745   0.58639   0.80864   0.00000  Uiso   1.00
H1287  H     0.57783   0.63651   0.82933   0.00000  Uiso   1.00
H1288  H     0.52815   0.61612   0.84789   0.00000  Uiso   1.00
O1289  O     0.77226   0.53821   0.75000   0.00000  Uiso   1.00
O1290  O     0.89441   0.46179   0.75001   0.00000  Uiso   1.00
O1291  O     0.89441   0.53821   0.75001   0.00000  Uiso   1.00
O1292  O     0.77226   0.46179   0.75000   0.00000  Uiso   1.00
C1293  C     0.75358   0.49905   0.75424   0.00000  Uiso   1.00
C1294  C     0.91309   0.50095   0.74577   0.00000  Uiso   1.00
O1295  O     0.83333   0.53823   0.68393   0.00000  Uiso   1.00
O1296  O     0.83334   0.46177   0.81608   0.00000  Uiso   1.00
O1297  O     0.83334   0.53823   0.81608   0.00000  Uiso   1.00
O1298  O     0.83333   0.46177   0.68393   0.00000  Uiso   1.00
C1299  C     0.83375   0.50017   0.66388   0.00000  Uiso   1.00
C1300  C     0.83292   0.49983   0.83612   0.00000  Uiso   1.00
Zn1301 Zn    0.83333   0.55104   0.75000   0.00000  Uiso   1.00
Zn1302 Zn    0.83333   0.44896   0.75000   0.00000  Uiso   1.00
C1303  C     0.87087   0.50499   0.90827   0.00000  Uiso   1.00
C1304  C     0.79580   0.49502   0.59173   0.00000  Uiso   1.00
C1305  C     0.83280   0.49950   0.88388   0.00000  Uiso   1.00
C1306  C     0.83387   0.50050   0.61612   0.00000  Uiso   1.00
C1307  C     0.79477   0.49317   0.90447   0.00000  Uiso   1.00
C1308  C     0.87190   0.50684   0.59553   0.00000  Uiso   1.00
C1309  C     0.79389   0.49762   0.95118   0.00000  Uiso   1.00
C1310  C     0.87278   0.50239   0.54882   0.00000  Uiso   1.00
C1311  C     0.83291   0.50010   0.97650   0.00000  Uiso   1.00
C1312  C     0.83376   0.49990   0.52350   0.00000  Uiso   1.00
C1313  C     0.87121   0.50281   0.95485   0.00000  Uiso   1.00
C1314  C     0.79546   0.49720   0.54515   0.00000  Uiso   1.00
C1315  C     0.75595   0.49969   0.97375   0.00000  Uiso   1.00
C1316  C     0.91072   0.50032   0.52625   0.00000  Uiso   1.00
C1317  C     0.75743   0.49782   0.52006   0.00000  Uiso   1.00
C1318  C     0.90924   0.50219   0.97994   0.00000  Uiso   1.00
H1319  H     0.72817   0.49801   0.53659   0.00000  Uiso   1.00
H1320  H     0.93850   0.50200   0.96341   0.00000  Uiso   1.00
C1321  C     0.68506   0.45797   0.74771   0.00000  Uiso   1.00
C1322  C     0.98160   0.54204   0.75231   0.00000  Uiso   1.00
C1323  C     0.97723   0.46252   0.73210   0.00000  Uiso   1.00
C1324  C     0.68944   0.53748   0.76792   0.00000  Uiso   1.00
C1325  C     0.95774   0.50291   0.74015   0.00000  Uiso   1.00
C1326  C     0.70893   0.49709   0.75987   0.00000  Uiso   1.00
C1327  C     0.85821   0.35789   0.78061   0.00000  Uiso   1.00
C1328  C     0.80845   0.64211   0.71939   0.00000  Uiso   1.00
C1329  C     0.80908   0.35669   0.71889   0.00000  Uiso   1.00
C1330  C     0.85758   0.64331   0.78111   0.00000  Uiso   1.00
N1331  N     0.83333   0.61907   0.75000   0.00000  Uiso   1.00
N1332  N     0.83333   0.38093   0.75000   0.00000  Uiso   1.00
C1333  C     0.90946   0.51117   0.88491   0.00000  Uiso   1.00
N1334  N     0.94005   0.51607   0.86627   0.00000  Uiso   1.00
C1335  C     0.75721   0.48883   0.61509   0.00000  Uiso   1.00
N1336  N     0.72662   0.48393   0.63373   0.00000  Uiso   1.00
C1337  C     0.75832   0.47764   0.87739   0.00000  Uiso   1.00
N1338  N     0.72934   0.46485   0.85593   0.00000  Uiso   1.00
C1339  C     0.90835   0.52236   0.62261   0.00000  Uiso   1.00
N1340  N     0.93733   0.53514   0.64408   0.00000  Uiso   1.00
C1341  C     0.71360   0.50750   0.95079   0.00000  Uiso   1.00
H1342  H     0.71628   0.53345   0.92435   0.00000  Uiso   1.00
H1343  H     0.69979   0.47570   0.93692   0.00000  Uiso   1.00
H1344  H     0.69117   0.52022   0.97430   0.00000  Uiso   1.00
C1345  C     0.95307   0.49252   0.54921   0.00000  Uiso   1.00
H1346  H     0.95039   0.46656   0.57565   0.00000  Uiso   1.00
H1347  H     0.97551   0.47980   0.52570   0.00000  Uiso   1.00
H1348  H     0.96688   0.52432   0.56309   0.00000  Uiso   1.00
C1349  C     0.70097   0.41112   0.75466   0.00000  Uiso   1.00
H1350  H     0.72614   0.40965   0.78136   0.00000  Uiso   1.00
H1351  H     0.67575   0.38829   0.76653   0.00000  Uiso   1.00
H1352  H     0.71136   0.39791   0.72287   0.00000  Uiso   1.00
C1353  C     0.96570   0.58888   0.74537   0.00000  Uiso   1.00
H1354  H     0.94053   0.59036   0.71866   0.00000  Uiso   1.00
H1355  H     0.95530   0.60209   0.77716   0.00000  Uiso   1.00
H1356  H     0.99092   0.61171   0.73351   0.00000  Uiso   1.00
C1357  C     0.95542   0.42528   0.70451   0.00000  Uiso   1.00
H1358  H     0.92920   0.43797   0.68288   0.00000  Uiso   1.00
H1359  H     0.97743   0.41104   0.68143   0.00000  Uiso   1.00
H1360  H     0.94351   0.39827   0.72655   0.00000  Uiso   1.00
C1361  C     0.71125   0.57472   0.79551   0.00000  Uiso   1.00
H1362  H     0.73748   0.56203   0.81713   0.00000  Uiso   1.00
H1363  H     0.72316   0.60173   0.77346   0.00000  Uiso   1.00
H1364  H     0.68925   0.58896   0.81859   0.00000  Uiso   1.00
C1365  C     0.88790   0.38226   0.81378   0.00000  Uiso   1.00
H1366  H     0.88827   0.41838   0.81154   0.00000  Uiso   1.00
H1367  H     0.88003   0.37324   0.84842   0.00000  Uiso   1.00
H1368  H     0.92054   0.37341   0.80806   0.00000  Uiso   1.00
C1369  C     0.77876   0.61774   0.68622   0.00000  Uiso   1.00
H1370  H     0.77840   0.58162   0.68846   0.00000  Uiso   1.00
H1371  H     0.74612   0.62657   0.69196   0.00000  Uiso   1.00
H1372  H     0.78662   0.62678   0.65159   0.00000  Uiso   1.00
C1373  C     0.78541   0.38064   0.68143   0.00000  Uiso   1.00
H1374  H     0.77591   0.41363   0.69135   0.00000  Uiso   1.00
H1375  H     0.80509   0.38380   0.65208   0.00000  Uiso   1.00
H1376  H     0.75542   0.36351   0.67078   0.00000  Uiso   1.00
C1377  C     0.88122   0.61935   0.81859   0.00000  Uiso   1.00
H1378  H     0.89078   0.58639   0.80864   0.00000  Uiso   1.00
H1379  H     0.91117   0.63651   0.82933   0.00000  Uiso   1.00
H1380  H     0.86149   0.61612   0.84789   0.00000  Uiso   1.00
O1381  O     0.10559   0.87154   0.75000   0.00000  Uiso   1.00
O1382  O     0.22774   0.79513   0.75001   0.00000  Uiso   1.00
O1383  O     0.22774   0.87154   0.75001   0.00000  Uiso   1.00
O1384  O     0.10559   0.79513   0.75000   0.00000  Uiso   1.00
C1385  C     0.08691   0.83238   0.75424   0.00000  Uiso   1.00
C1386  C     0.24642   0.83428   0.74577   0.00000  Uiso   1.00
O1387  O     0.16666   0.87156   0.68393   0.00000  Uiso   1.00
O1388  O     0.16667   0.79511   0.81608   0.00000  Uiso   1.00
O1389  O     0.16667   0.87156   0.81608   0.00000  Uiso   1.00
O1390  O     0.16666   0.79511   0.68393   0.00000  Uiso   1.00
C1391  C     0.16708   0.83350   0.66388   0.00000  Uiso   1.00
C1392  C     0.16625   0.83317   0.83612   0.00000  Uiso   1.00
Zn1393 Zn    0.16667   0.88437   0.75000   0.00000  Uiso   1.00
Zn1394 Zn    0.16667   0.78229   0.75000   0.00000  Uiso   1.00
C1395  C     0.20420   0.83832   0.90827   0.00000  Uiso   1.00
C1396  C     0.12913   0.82835   0.59173   0.00000  Uiso   1.00
C1397  C     0.16613   0.83283   0.88388   0.00000  Uiso   1.00
C1398  C     0.16720   0.83384   0.61612   0.00000  Uiso   1.00
C1399  C     0.12810   0.82650   0.90447   0.00000  Uiso   1.00
C1400  C     0.20523   0.84017   0.59553   0.00000  Uiso   1.00
C1401  C     0.12722   0.83095   0.95118   0.00000  Uiso   1.00
C1402  C     0.20611   0.83572   0.54882   0.00000  Uiso   1.00
C1403  C     0.16624   0.83344   0.97650   0.00000  Uiso   1.00
C1404  C     0.16709   0.83324   0.52350   0.00000  Uiso   1.00
C1405  C     0.20455   0.83614   0.95485   0.00000  Uiso   1.00
C1406  C     0.12879   0.83054   0.54515   0.00000  Uiso   1.00
C1407  C     0.08928   0.83303   0.97375   0.00000  Uiso   1.00
C1408  C     0.24405   0.83365   0.52625   0.00000  Uiso   1.00
C1409  C     0.09077   0.83115   0.52006   0.00000  Uiso   1.00
C1410  C     0.24257   0.83552   0.97994   0.00000  Uiso   1.00
H1411  H     0.06150   0.83134   0.53659   0.00000  Uiso   1.00
H1412  H     0.27183   0.83534   0.96341   0.00000  Uiso   1.00
C1413  C     0.01840   0.79130   0.74771   0.00000  Uiso   1.00
C1414  C     0.31494   0.87537   0.75231   0.00000  Uiso   1.00
C1415  C     0.31056   0.79586   0.73210   0.00000  Uiso   1.00
C1416  C     0.02277   0.87081   0.76792   0.00000  Uiso   1.00
C1417  C     0.29107   0.83625   0.74015   0.00000  Uiso   1.00
C1418  C     0.04227   0.83042   0.75987   0.00000  Uiso   1.00
C1419  C     0.19155   0.69122   0.78061   0.00000  Uiso   1.00
C1420  C     0.14179   0.97545   0.71939   0.00000  Uiso   1.00
C1421  C     0.14241   0.69002   0.71889   0.00000  Uiso   1.00
C1422  C     0.19091   0.97664   0.78111   0.00000  Uiso   1.00
N1423  N     0.16667   0.95240   0.75000   0.00000  Uiso   1.00
N1424  N     0.16667   0.71427   0.75000   0.00000  Uiso   1.00
C1425  C     0.24279   0.84450   0.88491   0.00000  Uiso   1.00
N1426  N     0.27338   0.84940   0.86627   0.00000  Uiso   1.00
C1427  C     0.09054   0.82217   0.61509   0.00000  Uiso   1.00
N1428  N     0.05995   0.81727   0.63373   0.00000  Uiso   1.00
C1429  C     0.09165   0.81097   0.87739   0.00000  Uiso   1.00
N1430  N     0.06267   0.79819   0.85593   0.00000  Uiso   1.00
C1431  C     0.24168   0.85569   0.62261   0.00000  Uiso   1.00
N1432  N     0.27066   0.86848   0.64408   0.00000  Uiso   1.00
C1433  C     0.04693   0.84083   0.95079   0.00000  Uiso   1.00
H1434  H     0.04961   0.86679   0.92435   0.00000  Uiso   1.00
H1435  H     0.03312   0.80903   0.93692   0.00000  Uiso   1.00
H1436  H     0.02450   0.85355   0.97430   0.00000  Uiso   1.00
C1437  C     0.28641   0.82585   0.54921   0.00000  Uiso   1.00
H1438  H     0.28373   0.79989   0.57565   0.00000  Uiso   1.00
H1439  H     0.30884   0.81314   0.52570   0.00000  Uiso   1.00
H1440  H     0.30021   0.85765   0.56309   0.00000  Uiso   1.00
C1441  C     0.03430   0.74445   0.75466   0.00000  Uiso   1.00
H1442  H     0.05947   0.74298   0.78136   0.00000  Uiso   1.00
H1443  H     0.00908   0.72163   0.76653   0.00000  Uiso   1.00
H1444  H     0.04469   0.73124   0.72287   0.00000  Uiso   1.00
C1445  C     0.29903   0.92222   0.74537   0.00000  Uiso   1.00
H1446  H     0.27387   0.92369   0.71866   0.00000  Uiso   1.00
H1447  H     0.28864   0.93542   0.77716   0.00000  Uiso   1.00
H1448  H     0.32425   0.94505   0.73351   0.00000  Uiso   1.00
C1449  C     0.28875   0.75861   0.70451   0.00000  Uiso   1.00
H1450  H     0.26253   0.77130   0.68288   0.00000  Uiso   1.00
H1451  H     0.31076   0.74437   0.68143   0.00000  Uiso   1.00
H1452  H     0.27685   0.73160   0.72655   0.00000  Uiso   1.00
C1453  C     0.04459   0.90806   0.79551   0.00000  Uiso   1.00
H1454  H     0.07081   0.89536   0.81713   0.00000  Uiso   1.00
H1455  H     0.05649   0.93506   0.77346   0.00000  Uiso   1.00
H1456  H     0.02258   0.92229   0.81859   0.00000  Uiso   1.00
C1457  C     0.22123   0.71559   0.81378   0.00000  Uiso   1.00
H1458  H     0.22160   0.75171   0.81154   0.00000  Uiso   1.00
H1459  H     0.21336   0.70657   0.84842   0.00000  Uiso   1.00
H1460  H     0.25388   0.70675   0.80806   0.00000  Uiso   1.00
C1461  C     0.11209   0.95107   0.68622   0.00000  Uiso   1.00
H1462  H     0.11174   0.91495   0.68846   0.00000  Uiso   1.00
H1463  H     0.07945   0.95990   0.69196   0.00000  Uiso   1.00
H1464  H     0.11995   0.96011   0.65159   0.00000  Uiso   1.00
C1465  C     0.11874   0.71398   0.68143   0.00000  Uiso   1.00
H1466  H     0.10925   0.74696   0.69135   0.00000  Uiso   1.00
H1467  H     0.13842   0.71713   0.65208   0.00000  Uiso   1.00
H1468  H     0.08875   0.69684   0.67078   0.00000  Uiso   1.00
C1469  C     0.21455   0.95268   0.81859   0.00000  Uiso   1.00
H1470  H     0.22411   0.91973   0.80864   0.00000  Uiso   1.00
H1471  H     0.24450   0.96984   0.82933   0.00000  Uiso   1.00
H1472  H     0.19482   0.94945   0.84789   0.00000  Uiso   1.00
O1473  O     0.43892   0.87154   0.75000   0.00000  Uiso   1.00
O1474  O     0.56108   0.79513   0.75001   0.00000  Uiso   1.00
O1475  O     0.56108   0.87154   0.75001   0.00000  Uiso   1.00
O1476  O     0.43892   0.79513   0.75000   0.00000  Uiso   1.00
C1477  C     0.42025   0.83238   0.75424   0.00000  Uiso   1.00
C1478  C     0.57975   0.83428   0.74577   0.00000  Uiso   1.00
O1479  O     0.49999   0.87156   0.68393   0.00000  Uiso   1.00
O1480  O     0.50001   0.79511   0.81608   0.00000  Uiso   1.00
O1481  O     0.50001   0.87156   0.81608   0.00000  Uiso   1.00
O1482  O     0.49999   0.79511   0.68393   0.00000  Uiso   1.00
C1483  C     0.50042   0.83350   0.66388   0.00000  Uiso   1.00
C1484  C     0.49958   0.83317   0.83612   0.00000  Uiso   1.00
Zn1485 Zn    0.50000   0.88437   0.75000   0.00000  Uiso   1.00
Zn1486 Zn    0.50000   0.78229   0.75000   0.00000  Uiso   1.00
C1487  C     0.53753   0.83832   0.90827   0.00000  Uiso   1.00
C1488  C     0.46247   0.82835   0.59173   0.00000  Uiso   1.00
C1489  C     0.49946   0.83283   0.88388   0.00000  Uiso   1.00
C1490  C     0.50054   0.83384   0.61612   0.00000  Uiso   1.00
C1491  C     0.46144   0.82650   0.90447   0.00000  Uiso   1.00
C1492  C     0.53857   0.84017   0.59553   0.00000  Uiso   1.00
C1493  C     0.46056   0.83095   0.95118   0.00000  Uiso   1.00
C1494  C     0.53945   0.83572   0.54882   0.00000  Uiso   1.00
C1495  C     0.49957   0.83344   0.97650   0.00000  Uiso   1.00
C1496  C     0.50043   0.83324   0.52350   0.00000  Uiso   1.00
C1497  C     0.53788   0.83614   0.95485   0.00000  Uiso   1.00
C1498  C     0.46212   0.83054   0.54515   0.00000  Uiso   1.00
C1499  C     0.42262   0.83303   0.97375   0.00000  Uiso   1.00
C1500  C     0.57739   0.83365   0.52625   0.00000  Uiso   1.00
C1501  C     0.42410   0.83115   0.52006   0.00000  Uiso   1.00
C1502  C     0.57590   0.83552   0.97994   0.00000  Uiso   1.00
H1503  H     0.39484   0.83134   0.53659   0.00000  Uiso   1.00
H1504  H     0.60517   0.83534   0.96341   0.00000  Uiso   1.00
C1505  C     0.35173   0.79130   0.74771   0.00000  Uiso   1.00
C1506  C     0.64827   0.87537   0.75231   0.00000  Uiso   1.00
C1507  C     0.64390   0.79586   0.73210   0.00000  Uiso   1.00
C1508  C     0.35611   0.87081   0.76792   0.00000  Uiso   1.00
C1509  C     0.62440   0.83625   0.74015   0.00000  Uiso   1.00
C1510  C     0.37560   0.83042   0.75987   0.00000  Uiso   1.00
C1511  C     0.52488   0.69122   0.78061   0.00000  Uiso   1.00
C1512  C     0.47512   0.97545   0.71939   0.00000  Uiso   1.00
C1513  C     0.47575   0.69002   0.71889   0.00000  Uiso   1.00
C1514  C     0.52425   0.97664   0.78111   0.00000  Uiso   1.00
N1515  N     0.50000   0.95240   0.75000   0.00000  Uiso   1.00
N1516  N     0.50000   0.71427   0.75000   0.00000  Uiso   1.00
C1517  C     0.57612   0.84450   0.88491   0.00000  Uiso   1.00
N1518  N     0.60672   0.84940   0.86627   0.00000  Uiso   1.00
C1519  C     0.42388   0.82217   0.61509   0.00000  Uiso   1.00
N1520  N     0.39328   0.81727   0.63373   0.00000  Uiso   1.00
C1521  C     0.42498   0.81097   0.87739   0.00000  Uiso   1.00
N1522  N     0.39600   0.79819   0.85593   0.00000  Uiso   1.00
C1523  C     0.57502   0.85569   0.62261   0.00000  Uiso   1.00
N1524  N     0.60400   0.86848   0.64408   0.00000  Uiso   1.00
C1525  C     0.38026   0.84083   0.95079   0.00000  Uiso   1.00
H1526  H     0.38295   0.86679   0.92435   0.00000  Uiso   1.00
H1527  H     0.36645   0.80903   0.93692   0.00000  Uiso   1.00
H1528  H     0.35783   0.85355   0.97430   0.00000  Uiso   1.00
C1529  C     0.61974   0.82585   0.54921   0.00000  Uiso   1.00
H1530  H     0.61706   0.79989   0.57565   0.00000  Uiso   1.00
H1531  H     0.64217   0.81314   0.52570   0.00000  Uiso   1.00
H1532  H     0.63354   0.85765   0.56309   0.00000  Uiso   1.00
C1533  C     0.36764   0.74445   0.75466   0.00000  Uiso   1.00
H1534  H     0.39281   0.74298   0.78136   0.00000  Uiso   1.00
H1535  H     0.34241   0.72163   0.76653   0.00000  Uiso   1.00
H1536  H     0.37802   0.73124   0.72287   0.00000  Uiso   1.00
C1537  C     0.63236   0.92222   0.74537   0.00000  Uiso   1.00
H1538  H     0.60720   0.92369   0.71866   0.00000  Uiso   1.00
H1539  H     0.62197   0.93542   0.77716   0.00000  Uiso   1.00
H1540  H     0.65759   0.94505   0.73351   0.00000  Uiso   1.00
C1541  C     0.62209   0.75861   0.70451   0.00000  Uiso   1.00
H1542  H     0.59586   0.77130   0.68288   0.00000  Uiso   1.00
H1543  H     0.64409   0.74437   0.68143   0.00000  Uiso   1.00
H1544  H     0.61018   0.73160   0.72655   0.00000  Uiso   1.00
C1545  C     0.37792   0.90806   0.79551   0.00000  Uiso   1.00
H1546  H     0.40415   0.89536   0.81713   0.00000  Uiso   1.00
H1547  H     0.38983   0.93506   0.77346   0.00000  Uiso   1.00
H1548  H     0.35592   0.92229   0.81859   0.00000  Uiso   1.00
C1549  C     0.55457   0.71559   0.81378   0.00000  Uiso   1.00
H1550  H     0.55494   0.75171   0.81154   0.00000  Uiso   1.00
H1551  H     0.54669   0.70657   0.84842   0.00000  Uiso   1.00
H1552  H     0.58721   0.70675   0.80806   0.00000  Uiso   1.00
C1553  C     0.44543   0.95107   0.68622   0.00000  Uiso   1.00
H1554  H     0.44507   0.91495   0.68846   0.00000  Uiso   1.00
H1555  H     0.41278   0.95990   0.69196   0.00000  Uiso   1.00
H1556  H     0.45328   0.96011   0.65159   0.00000  Uiso   1.00
C1557  C     0.45208   0.71398   0.68143   0.00000  Uiso   1.00
H1558  H     0.44258   0.74696   0.69135   0.00000  Uiso   1.00
H1559  H     0.47175   0.71713   0.65208   0.00000  Uiso   1.00
H1560  H     0.42209   0.69684   0.67078   0.00000  Uiso   1.00
C1561  C     0.54789   0.95268   0.81859   0.00000  Uiso   1.00
H1562  H     0.55745   0.91973   0.80864   0.00000  Uiso   1.00
H1563  H     0.57783   0.96984   0.82933   0.00000  Uiso   1.00
H1564  H     0.52815   0.94945   0.84789   0.00000  Uiso   1.00
O1565  O     0.77226   0.87154   0.75000   0.00000  Uiso   1.00
O1566  O     0.89441   0.79513   0.75001   0.00000  Uiso   1.00
O1567  O     0.89441   0.87154   0.75001   0.00000  Uiso   1.00
O1568  O     0.77226   0.79513   0.75000   0.00000  Uiso   1.00
C1569  C     0.75358   0.83238   0.75424   0.00000  Uiso   1.00
C1570  C     0.91309   0.83428   0.74577   0.00000  Uiso   1.00
O1571  O     0.83333   0.87156   0.68393   0.00000  Uiso   1.00
O1572  O     0.83334   0.79511   0.81608   0.00000  Uiso   1.00
O1573  O     0.83334   0.87156   0.81608   0.00000  Uiso   1.00
O1574  O     0.83333   0.79511   0.68393   0.00000  Uiso   1.00
C1575  C     0.83375   0.83350   0.66388   0.00000  Uiso   1.00
C1576  C     0.83292   0.83317   0.83612   0.00000  Uiso   1.00
Zn1577 Zn    0.83333   0.88437   0.75000   0.00000  Uiso   1.00
Zn1578 Zn    0.83333   0.78229   0.75000   0.00000  Uiso   1.00
C1579  C     0.87087   0.83832   0.90827   0.00000  Uiso   1.00
C1580  C     0.79580   0.82835   0.59173   0.00000  Uiso   1.00
C1581  C     0.83280   0.83283   0.88388   0.00000  Uiso   1.00
C1582  C     0.83387   0.83384   0.61612   0.00000  Uiso   1.00
C1583  C     0.79477   0.82650   0.90447   0.00000  Uiso   1.00
C1584  C     0.87190   0.84017   0.59553   0.00000  Uiso   1.00
C1585  C     0.79389   0.83095   0.95118   0.00000  Uiso   1.00
C1586  C     0.87278   0.83572   0.54882   0.00000  Uiso   1.00
C1587  C     0.83291   0.83344   0.97650   0.00000  Uiso   1.00
C1588  C     0.83376   0.83324   0.52350   0.00000  Uiso   1.00
C1589  C     0.87121   0.83614   0.95485   0.00000  Uiso   1.00
C1590  C     0.79546   0.83054   0.54515   0.00000  Uiso   1.00
C1591  C     0.75595   0.83303   0.97375   0.00000  Uiso   1.00
C1592  C     0.91072   0.83365   0.52625   0.00000  Uiso   1.00
C1593  C     0.75743   0.83115   0.52006   0.00000  Uiso   1.00
C1594  C     0.90924   0.83552   0.97994   0.00000  Uiso   1.00
H1595  H     0.72817   0.83134   0.53659   0.00000  Uiso   1.00
H1596  H     0.93850   0.83534   0.96341   0.00000  Uiso   1.00
C1597  C     0.68506   0.79130   0.74771   0.00000  Uiso   1.00
C1598  C     0.98160   0.87537   0.75231   0.00000  Uiso   1.00
C1599  C     0.97723   0.79586   0.73210   0.00000  Uiso   1.00
C1600  C     0.68944   0.87081   0.76792   0.00000  Uiso   1.00
C1601  C     0.95774   0.83625   0.74015   0.00000  Uiso   1.00
C1602  C     0.70893   0.83042   0.75987   0.00000  Uiso   1.00
C1603  C     0.85821   0.69122   0.78061   0.00000  Uiso   1.00
C1604  C     0.80845   0.97545   0.71939   0.00000  Uiso   1.00
C1605  C     0.80908   0.69002   0.71889   0.00000  Uiso   1.00
C1606  C     0.85758   0.97664   0.78111   0.00000  Uiso   1.00
N1607  N     0.83333   0.95240   0.75000   0.00000  Uiso   1.00
N1608  N     0.83333   0.71427   0.75000   0.00000  Uiso   1.00
C1609  C     0.90946   0.84450   0.88491   0.00000  Uiso   1.00
N1610  N     0.94005   0.84940   0.86627   0.00000  Uiso   1.00
C1611  C     0.75721   0.82217   0.61509   0.00000  Uiso   1.00
N1612  N     0.72662   0.81727   0.63373   0.00000  Uiso   1.00
C1613  C     0.75832   0.81097   0.87739   0.00000  Uiso   1.00
N1614  N     0.72934   0.79819   0.85593   0.00000  Uiso   1.00
C1615  C     0.90835   0.85569   0.62261   0.00000  Uiso   1.00
N1616  N     0.93733   0.86848   0.64408   0.00000  Uiso   1.00
C1617  C     0.71360   0.84083   0.95079   0.00000  Uiso   1.00
H1618  H     0.71628   0.86679   0.92435   0.00000  Uiso   1.00
H1619  H     0.69979   0.80903   0.93692   0.00000  Uiso   1.00
H1620  H     0.69117   0.85355   0.97430   0.00000  Uiso   1.00
C1621  C     0.95307   0.82585   0.54921   0.00000  Uiso   1.00
H1622  H     0.95039   0.79989   0.57565   0.00000  Uiso   1.00
H1623  H     0.97551   0.81314   0.52570   0.00000  Uiso   1.00
H1624  H     0.96688   0.85765   0.56309   0.00000  Uiso   1.00
C1625  C     0.70097   0.74445   0.75466   0.00000  Uiso   1.00
H1626  H     0.72614   0.74298   0.78136   0.00000  Uiso   1.00
H1627  H     0.67575   0.72163   0.76653   0.00000  Uiso   1.00
H1628  H     0.71136   0.73124   0.72287   0.00000  Uiso   1.00
C1629  C     0.96570   0.92222   0.74537   0.00000  Uiso   1.00
H1630  H     0.94053   0.92369   0.71866   0.00000  Uiso   1.00
H1631  H     0.95530   0.93542   0.77716   0.00000  Uiso   1.00
H1632  H     0.99092   0.94505   0.73351   0.00000  Uiso   1.00
C1633  C     0.95542   0.75861   0.70451   0.00000  Uiso   1.00
H1634  H     0.92920   0.77130   0.68288   0.00000  Uiso   1.00
H1635  H     0.97743   0.74437   0.68143   0.00000  Uiso   1.00
H1636  H     0.94351   0.73160   0.72655   0.00000  Uiso   1.00
C1637  C     0.71125   0.90806   0.79551   0.00000  Uiso   1.00
H1638  H     0.73748   0.89536   0.81713   0.00000  Uiso   1.00
H1639  H     0.72316   0.93506   0.77346   0.00000  Uiso   1.00
H1640  H     0.68925   0.92229   0.81859   0.00000  Uiso   1.00
C1641  C     0.88790   0.71559   0.81378   0.00000  Uiso   1.00
H1642  H     0.88827   0.75171   0.81154   0.00000  Uiso   1.00
H1643  H     0.88003   0.70657   0.84842   0.00000  Uiso   1.00
H1644  H     0.92054   0.70675   0.80806   0.00000  Uiso   1.00
C1645  C     0.77876   0.95107   0.68622   0.00000  Uiso   1.00
H1646  H     0.77840   0.91495   0.68846   0.00000  Uiso   1.00
H1647  H     0.74612   0.95990   0.69196   0.00000  Uiso   1.00
H1648  H     0.78662   0.96011   0.65159   0.00000  Uiso   1.00
C1649  C     0.78541   0.71398   0.68143   0.00000  Uiso   1.00
H1650  H     0.77591   0.74696   0.69135   0.00000  Uiso   1.00
H1651  H     0.80509   0.71713   0.65208   0.00000  Uiso   1.00
H1652  H     0.75542   0.69684   0.67078   0.00000  Uiso   1.00
C1653  C     0.88122   0.95268   0.81859   0.00000  Uiso   1.00
H1654  H     0.89078   0.91973   0.80864   0.00000  Uiso   1.00
H1655  H     0.91117   0.96984   0.82933   0.00000  Uiso   1.00
H1656  H     0.86149   0.94945   0.84789   0.00000  Uiso   1.00
loop_
_geom_bond_atom_site_label_1
_geom_bond_atom_site_label_2
_geom_bond_distance
_geom_bond_site_symmetry_2
_ccdc_geom_bond_type
O1     C5      1.305   .     A
O1     Zn13    1.981   .     S
O2     C6      1.305   .     A
O2     Zn14    1.981   .     S
O3     C6      1.294   .     A
O3     Zn13    2.008   .     S
O4     C5      1.294   .     A
O4     Zn14    2.008   .     S
C5     C38     1.448   .     S
C6     C37     1.448   .     S
O7     C11     1.292   .     A
O7     Zn13    2.020   .     S
O8     C12     1.292   .     A
O8     Zn14    2.020   .     S
O9     Zn13    2.015   .     S
O9     C12     1.293   .     A
O10    Zn14    2.015   .     S
O10    C11     1.293   .     A
C11    C18     1.432   .     S
C12    C17     1.432   .     S
Zn13   N43     2.036   .     S
Zn14   N44     2.036   .     S
C15    C45     1.458   .     S
C15    C17     1.394   .     A
C15    C25     1.397   .     A
C16    C47     1.458   .     S
C16    C26     1.397   .     A
C16    C18     1.394   .     A
C17    C19     1.401   .     A
C18    C20     1.401   .     A
C19    C49     1.451   .     S
C19    C21     1.409   .     A
C20    C51     1.451   .     S
C20    C22     1.409   .     A
C21    C27     1.425   .     A
C21    C23     1.428   .     A
C22    C28     1.425   .     A
C22    C24     1.428   .     A
C23    C25     1.417   .     A
C23    C852    1.408   .     S
C24    C26     1.417   .     A
C24    C851    1.408   1_554 S
C25    C30     1.399   .     A
C26    C29     1.399   .     A
C27    C53     1.514   .     S
C27    C857    1.387   .     S
C28    C57     1.514   .     S
C28    C858    1.387   1_554 S
C29    H31     1.083   .     S
C29    C855    1.387   1_554 S
C30    H32     1.083   .     S
C30    C856    1.387   .     S
C33    C61     1.518   .     S
C33    C38     1.414   .     A
C33    C219    1.388   1_455 S
C34    C37     1.415   .     A
C34    C65     1.518   .     S
C34    C128    1.388   .     S
C35    C37     1.408   .     A
C35    C69     1.520   .     S
C35    C125    1.388   .     S
C36    C38     1.408   .     A
C36    C73     1.520   .     S
C36    C218    1.388   1_455 S
C39    C77     1.512   .     S
C39    N44     1.381   .     A
C39    C594    1.433   1_545 S
C40    N43     1.381   .     A
C40    C81     1.512   .     S
C40    C317    1.433   .     S
C41    N44     1.376   .     A
C41    C85     1.513   .     S
C41    C592    1.433   1_545 S
C42    N43     1.376   .     A
C42    C89     1.513   .     S
C42    C315    1.433   .     S
C45    N46     1.158   .     T
C47    N48     1.158   .     T
C49    N50     1.157   .     T
C51    N52     1.157   .     T
C53    H56     1.111   .     S
C53    H55     1.109   .     S
C53    H54     1.110   .     S
C57    H60     1.109   .     S
C57    H59     1.111   .     S
C57    H58     1.110   .     S
C61    H63     1.111   .     S
C61    H64     1.106   .     S
C61    H62     1.108   .     S
C65    H67     1.106   .     S
C65    H68     1.111   .     S
C65    H66     1.108   .     S
C69    H70     1.111   .     S
C69    H71     1.111   .     S
C69    H72     1.110   .     S
C73    H74     1.111   .     S
C73    H75     1.110   .     S
C73    H76     1.111   .     S
C77    H78     1.082   .     S
C77    H79     1.111   .     S
C77    H80     1.110   .     S
C81    H82     1.082   .     S
C81    H83     1.110   .     S
C81    H84     1.111   .     S
C85    H86     1.091   .     S
C85    H88     1.106   .     S
C85    H87     1.110   .     S
C89    H91     1.106   .     S
C89    H92     1.110   .     S
C89    H90     1.091   .     S
O93    C97     1.305   .     A
O93    Zn105   1.981   .     S
O94    C98     1.305   .     A
O94    Zn106   1.981   .     S
O95    C98     1.294   .     A
O95    Zn105   2.008   .     S
O96    C97     1.294   .     A
O96    Zn106   2.008   .     S
C97    C130    1.448   .     S
C98    C129    1.448   .     S
O99    C103    1.292   .     A
O99    Zn105   2.020   .     S
O100   C104    1.292   .     A
O100   Zn106   2.020   .     S
O101   Zn105   2.015   .     S
O101   C104    1.293   .     A
O102   Zn106   2.015   .     S
O102   C103    1.293   .     A
C103   C110    1.432   .     S
C104   C109    1.432   .     S
Zn105  N135    2.036   .     S
Zn106  N136    2.036   .     S
C107   C137    1.458   .     S
C107   C109    1.394   .     A
C107   C117    1.397   .     A
C108   C139    1.458   .     S
C108   C118    1.397   .     A
C108   C110    1.394   .     A
C109   C111    1.401   .     A
C110   C112    1.401   .     A
C111   C141    1.451   .     S
C111   C113    1.409   .     A
C112   C143    1.451   .     S
C112   C114    1.409   .     A
C113   C119    1.425   .     A
C113   C115    1.428   .     A
C114   C120    1.425   .     A
C114   C116    1.428   .     A
C115   C117    1.417   .     A
C115   C944    1.408   .     S
C116   C118    1.417   .     A
C116   C943    1.408   1_554 S
C117   C122    1.399   .     A
C118   C121    1.399   .     A
C119   C145    1.514   .     S
C119   C949    1.387   .     S
C120   C149    1.514   .     S
C120   C950    1.387   1_554 S
C121   H123    1.083   .     S
C121   C947    1.387   1_554 S
C122   H124    1.083   .     S
C122   C948    1.387   .     S
C125   C153    1.518   .     S
C125   C130    1.414   .     A
C126   C129    1.415   .     A
C126   C157    1.518   .     S
C126   C220    1.388   .     S
C127   C129    1.408   .     A
C127   C161    1.520   .     S
C127   C217    1.388   .     S
C128   C130    1.408   .     A
C128   C165    1.520   .     S
C131   C169    1.512   .     S
C131   N136    1.381   .     A
C131   C686    1.433   1_545 S
C132   N135    1.381   .     A
C132   C173    1.512   .     S
C132   C409    1.433   .     S
C133   N136    1.376   .     A
C133   C177    1.513   .     S
C133   C684    1.433   1_545 S
C134   N135    1.376   .     A
C134   C181    1.513   .     S
C134   C407    1.433   .     S
C137   N138    1.158   .     T
C139   N140    1.158   .     T
C141   N142    1.157   .     T
C143   N144    1.157   .     T
C145   H148    1.111   .     S
C145   H147    1.109   .     S
C145   H146    1.110   .     S
C149   H152    1.109   .     S
C149   H151    1.111   .     S
C149   H150    1.110   .     S
C153   H155    1.111   .     S
C153   H156    1.106   .     S
C153   H154    1.108   .     S
C157   H159    1.106   .     S
C157   H160    1.111   .     S
C157   H158    1.108   .     S
C161   H162    1.111   .     S
C161   H163    1.111   .     S
C161   H164    1.110   .     S
C165   H166    1.111   .     S
C165   H167    1.110   .     S
C165   H168    1.111   .     S
C169   H170    1.082   .     S
C169   H171    1.111   .     S
C169   H172    1.110   .     S
C173   H174    1.082   .     S
C173   H175    1.110   .     S
C173   H176    1.111   .     S
C177   H178    1.091   .     S
C177   H180    1.106   .     S
C177   H179    1.110   .     S
C181   H183    1.106   .     S
C181   H184    1.110   .     S
C181   H182    1.091   .     S
O185   C189    1.305   .     A
O185   Zn197   1.981   .     S
O186   C190    1.305   .     A
O186   Zn198   1.981   .     S
O187   C190    1.294   .     A
O187   Zn197   2.008   .     S
O188   C189    1.294   .     A
O188   Zn198   2.008   .     S
C189   C222    1.448   .     S
C190   C221    1.448   .     S
O191   C195    1.292   .     A
O191   Zn197   2.020   .     S
O192   C196    1.292   .     A
O192   Zn198   2.020   .     S
O193   Zn197   2.015   .     S
O193   C196    1.293   .     A
O194   Zn198   2.015   .     S
O194   C195    1.293   .     A
C195   C202    1.432   .     S
C196   C201    1.432   .     S
Zn197  N227    2.036   .     S
Zn198  N228    2.036   .     S
C199   C229    1.458   .     S
C199   C201    1.394   .     A
C199   C209    1.397   .     A
C200   C231    1.458   .     S
C200   C210    1.397   .     A
C200   C202    1.394   .     A
C201   C203    1.401   .     A
C202   C204    1.401   .     A
C203   C233    1.451   .     S
C203   C205    1.409   .     A
C204   C235    1.451   .     S
C204   C206    1.409   .     A
C205   C211    1.425   .     A
C205   C207    1.428   .     A
C206   C212    1.425   .     A
C206   C208    1.428   .     A
C207   C209    1.417   .     A
C207   C1036   1.408   .     S
C208   C210    1.417   .     A
C208   C1035   1.408   1_554 S
C209   C214    1.399   .     A
C210   C213    1.399   .     A
C211   C237    1.514   .     S
C211   C1041   1.387   .     S
C212   C241    1.514   .     S
C212   C1042   1.387   1_554 S
C213   H215    1.083   .     S
C213   C1039   1.387   1_554 S
C214   H216    1.083   .     S
C214   C1040   1.387   .     S
C217   C245    1.518   .     S
C217   C222    1.414   .     A
C218   C221    1.415   .     A
C218   C249    1.518   .     S
C218   C36     1.388   1_655 S
C219   C221    1.408   .     A
C219   C253    1.520   .     S
C219   C33     1.388   1_655 S
C220   C222    1.408   .     A
C220   C257    1.520   .     S
C223   C261    1.512   .     S
C223   N228    1.381   .     A
C223   C778    1.433   1_545 S
C224   N227    1.381   .     A
C224   C265    1.512   .     S
C224   C501    1.433   .     S
C225   N228    1.376   .     A
C225   C269    1.513   .     S
C225   C776    1.433   1_545 S
C226   N227    1.376   .     A
C226   C273    1.513   .     S
C226   C499    1.433   .     S
C229   N230    1.158   .     T
C231   N232    1.158   .     T
C233   N234    1.157   .     T
C235   N236    1.157   .     T
C237   H240    1.111   .     S
C237   H239    1.109   .     S
C237   H238    1.110   .     S
C241   H244    1.109   .     S
C241   H243    1.111   .     S
C241   H242    1.110   .     S
C245   H247    1.111   .     S
C245   H248    1.106   .     S
C245   H246    1.108   .     S
C249   H251    1.106   .     S
C249   H252    1.111   .     S
C249   H250    1.108   .     S
C253   H254    1.111   .     S
C253   H255    1.111   .     S
C253   H256    1.110   .     S
C257   H258    1.111   .     S
C257   H259    1.110   .     S
C257   H260    1.111   .     S
C261   H262    1.082   .     S
C261   H263    1.111   .     S
C261   H264    1.110   .     S
C265   H266    1.082   .     S
C265   H267    1.110   .     S
C265   H268    1.111   .     S
C269   H270    1.091   .     S
C269   H272    1.106   .     S
C269   H271    1.110   .     S
C273   H275    1.106   .     S
C273   H276    1.110   .     S
C273   H274    1.091   .     S
O277   C281    1.305   .     A
O277   Zn289   1.981   .     S
O278   C282    1.305   .     A
O278   Zn290   1.981   .     S
O279   C282    1.294   .     A
O279   Zn289   2.008   .     S
O280   C281    1.294   .     A
O280   Zn290   2.008   .     S
C281   C314    1.448   .     S
C282   C313    1.448   .     S
O283   C287    1.292   .     A
O283   Zn289   2.020   .     S
O284   C288    1.292   .     A
O284   Zn290   2.020   .     S
O285   Zn289   2.015   .     S
O285   C288    1.293   .     A
O286   Zn290   2.015   .     S
O286   C287    1.293   .     A
C287   C294    1.432   .     S
C288   C293    1.432   .     S
Zn289  N319    2.036   .     S
Zn290  N320    2.036   .     S
C291   C321    1.458   .     S
C291   C293    1.394   .     A
C291   C301    1.397   .     A
C292   C323    1.458   .     S
C292   C302    1.397   .     A
C292   C294    1.394   .     A
C293   C295    1.401   .     A
C294   C296    1.401   .     A
C295   C325    1.451   .     S
C295   C297    1.409   .     A
C296   C327    1.451   .     S
C296   C298    1.409   .     A
C297   C303    1.425   .     A
C297   C299    1.428   .     A
C298   C304    1.425   .     A
C298   C300    1.428   .     A
C299   C301    1.417   .     A
C299   C1128   1.408   .     S
C300   C302    1.417   .     A
C300   C1127   1.408   1_554 S
C301   C306    1.399   .     A
C302   C305    1.399   .     A
C303   C329    1.514   .     S
C303   C1133   1.387   .     S
C304   C333    1.514   .     S
C304   C1134   1.387   1_554 S
C305   H307    1.083   .     S
C305   C1131   1.387   1_554 S
C306   H308    1.083   .     S
C306   C1132   1.387   .     S
C309   C337    1.518   .     S
C309   C314    1.414   .     A
C309   C495    1.388   1_455 S
C310   C313    1.415   .     A
C310   C341    1.518   .     S
C310   C404    1.388   .     S
C311   C313    1.408   .     A
C311   C345    1.520   .     S
C311   C401    1.388   .     S
C312   C314    1.408   .     A
C312   C349    1.520   .     S
C312   C494    1.388   1_455 S
C315   C353    1.512   .     S
C315   N320    1.381   .     A
C316   N319    1.381   .     A
C316   C357    1.512   .     S
C316   C593    1.433   .     S
C317   N320    1.376   .     A
C317   C361    1.513   .     S
C318   N319    1.376   .     A
C318   C365    1.513   .     S
C318   C591    1.433   .     S
C321   N322    1.158   .     T
C323   N324    1.158   .     T
C325   N326    1.157   .     T
C327   N328    1.157   .     T
C329   H332    1.111   .     S
C329   H331    1.109   .     S
C329   H330    1.110   .     S
C333   H336    1.109   .     S
C333   H335    1.111   .     S
C333   H334    1.110   .     S
C337   H339    1.111   .     S
C337   H340    1.106   .     S
C337   H338    1.108   .     S
C341   H343    1.106   .     S
C341   H344    1.111   .     S
C341   H342    1.108   .     S
C345   H346    1.111   .     S
C345   H347    1.111   .     S
C345   H348    1.110   .     S
C349   H350    1.111   .     S
C349   H351    1.110   .     S
C349   H352    1.111   .     S
C353   H354    1.082   .     S
C353   H355    1.111   .     S
C353   H356    1.110   .     S
C357   H358    1.082   .     S
C357   H359    1.110   .     S
C357   H360    1.111   .     S
C361   H362    1.091   .     S
C361   H364    1.106   .     S
C361   H363    1.110   .     S
C365   H367    1.106   .     S
C365   H368    1.110   .     S
C365   H366    1.091   .     S
O369   C373    1.305   .     A
O369   Zn381   1.981   .     S
O370   C374    1.305   .     A
O370   Zn382   1.981   .     S
O371   C374    1.294   .     A
O371   Zn381   2.008   .     S
O372   C373    1.294   .     A
O372   Zn382   2.008   .     S
C373   C406    1.448   .     S
C374   C405    1.448   .     S
O375   C379    1.292   .     A
O375   Zn381   2.020   .     S
O376   C380    1.292   .     A
O376   Zn382   2.020   .     S
O377   Zn381   2.015   .     S
O377   C380    1.293   .     A
O378   Zn382   2.015   .     S
O378   C379    1.293   .     A
C379   C386    1.432   .     S
C380   C385    1.432   .     S
Zn381  N411    2.036   .     S
Zn382  N412    2.036   .     S
C383   C413    1.458   .     S
C383   C385    1.394   .     A
C383   C393    1.397   .     A
C384   C415    1.458   .     S
C384   C394    1.397   .     A
C384   C386    1.394   .     A
C385   C387    1.401   .     A
C386   C388    1.401   .     A
C387   C417    1.451   .     S
C387   C389    1.409   .     A
C388   C419    1.451   .     S
C388   C390    1.409   .     A
C389   C395    1.425   .     A
C389   C391    1.428   .     A
C390   C396    1.425   .     A
C390   C392    1.428   .     A
C391   C393    1.417   .     A
C391   C1220   1.408   .     S
C392   C394    1.417   .     A
C392   C1219   1.408   1_554 S
C393   C398    1.399   .     A
C394   C397    1.399   .     A
C395   C421    1.514   .     S
C395   C1225   1.387   .     S
C396   C425    1.514   .     S
C396   C1226   1.387   1_554 S
C397   H399    1.083   .     S
C397   C1223   1.387   1_554 S
C398   H400    1.083   .     S
C398   C1224   1.387   .     S
C401   C429    1.518   .     S
C401   C406    1.414   .     A
C402   C405    1.415   .     A
C402   C433    1.518   .     S
C402   C496    1.388   .     S
C403   C405    1.408   .     A
C403   C437    1.520   .     S
C403   C493    1.388   .     S
C404   C406    1.408   .     A
C404   C441    1.520   .     S
C407   C445    1.512   .     S
C407   N412    1.381   .     A
C408   N411    1.381   .     A
C408   C449    1.512   .     S
C408   C685    1.433   .     S
C409   N412    1.376   .     A
C409   C453    1.513   .     S
C410   N411    1.376   .     A
C410   C457    1.513   .     S
C410   C683    1.433   .     S
C413   N414    1.158   .     T
C415   N416    1.158   .     T
C417   N418    1.157   .     T
C419   N420    1.157   .     T
C421   H424    1.111   .     S
C421   H423    1.109   .     S
C421   H422    1.110   .     S
C425   H428    1.109   .     S
C425   H427    1.111   .     S
C425   H426    1.110   .     S
C429   H431    1.111   .     S
C429   H432    1.106   .     S
C429   H430    1.108   .     S
C433   H435    1.106   .     S
C433   H436    1.111   .     S
C433   H434    1.108   .     S
C437   H438    1.111   .     S
C437   H439    1.111   .     S
C437   H440    1.110   .     S
C441   H442    1.111   .     S
C441   H443    1.110   .     S
C441   H444    1.111   .     S
C445   H446    1.082   .     S
C445   H447    1.111   .     S
C445   H448    1.110   .     S
C449   H450    1.082   .     S
C449   H451    1.110   .     S
C449   H452    1.111   .     S
C453   H454    1.091   .     S
C453   H456    1.106   .     S
C453   H455    1.110   .     S
C457   H459    1.106   .     S
C457   H460    1.110   .     S
C457   H458    1.091   .     S
O461   C465    1.305   .     A
O461   Zn473   1.981   .     S
O462   C466    1.305   .     A
O462   Zn474   1.981   .     S
O463   C466    1.294   .     A
O463   Zn473   2.008   .     S
O464   C465    1.294   .     A
O464   Zn474   2.008   .     S
C465   C498    1.448   .     S
C466   C497    1.448   .     S
O467   C471    1.292   .     A
O467   Zn473   2.020   .     S
O468   C472    1.292   .     A
O468   Zn474   2.020   .     S
O469   Zn473   2.015   .     S
O469   C472    1.293   .     A
O470   Zn474   2.015   .     S
O470   C471    1.293   .     A
C471   C478    1.432   .     S
C472   C477    1.432   .     S
Zn473  N503    2.036   .     S
Zn474  N504    2.036   .     S
C475   C505    1.458   .     S
C475   C477    1.394   .     A
C475   C485    1.397   .     A
C476   C507    1.458   .     S
C476   C486    1.397   .     A
C476   C478    1.394   .     A
C477   C479    1.401   .     A
C478   C480    1.401   .     A
C479   C509    1.451   .     S
C479   C481    1.409   .     A
C480   C511    1.451   .     S
C480   C482    1.409   .     A
C481   C487    1.425   .     A
C481   C483    1.428   .     A
C482   C488    1.425   .     A
C482   C484    1.428   .     A
C483   C485    1.417   .     A
C483   C1312   1.408   .     S
C484   C486    1.417   .     A
C484   C1311   1.408   1_554 S
C485   C490    1.399   .     A
C486   C489    1.399   .     A
C487   C513    1.514   .     S
C487   C1317   1.387   .     S
C488   C517    1.514   .     S
C488   C1318   1.387   1_554 S
C489   H491    1.083   .     S
C489   C1315   1.387   1_554 S
C490   H492    1.083   .     S
C490   C1316   1.387   .     S
C493   C521    1.518   .     S
C493   C498    1.414   .     A
C494   C497    1.415   .     A
C494   C525    1.518   .     S
C494   C312    1.388   1_655 S
C495   C497    1.408   .     A
C495   C529    1.520   .     S
C495   C309    1.388   1_655 S
C496   C498    1.408   .     A
C496   C533    1.520   .     S
C499   C537    1.512   .     S
C499   N504    1.381   .     A
C500   N503    1.381   .     A
C500   C541    1.512   .     S
C500   C777    1.433   .     S
C501   N504    1.376   .     A
C501   C545    1.513   .     S
C502   N503    1.376   .     A
C502   C549    1.513   .     S
C502   C775    1.433   .     S
C505   N506    1.158   .     T
C507   N508    1.158   .     T
C509   N510    1.157   .     T
C511   N512    1.157   .     T
C513   H516    1.111   .     S
C513   H515    1.109   .     S
C513   H514    1.110   .     S
C517   H520    1.109   .     S
C517   H519    1.111   .     S
C517   H518    1.110   .     S
C521   H523    1.111   .     S
C521   H524    1.106   .     S
C521   H522    1.108   .     S
C525   H527    1.106   .     S
C525   H528    1.111   .     S
C525   H526    1.108   .     S
C529   H530    1.111   .     S
C529   H531    1.111   .     S
C529   H532    1.110   .     S
C533   H534    1.111   .     S
C533   H535    1.110   .     S
C533   H536    1.111   .     S
C537   H538    1.082   .     S
C537   H539    1.111   .     S
C537   H540    1.110   .     S
C541   H542    1.082   .     S
C541   H543    1.110   .     S
C541   H544    1.111   .     S
C545   H546    1.091   .     S
C545   H548    1.106   .     S
C545   H547    1.110   .     S
C549   H551    1.106   .     S
C549   H552    1.110   .     S
C549   H550    1.091   .     S
O553   C557    1.305   .     A
O553   Zn565   1.981   .     S
O554   C558    1.305   .     A
O554   Zn566   1.981   .     S
O555   C558    1.294   .     A
O555   Zn565   2.008   .     S
O556   C557    1.294   .     A
O556   Zn566   2.008   .     S
C557   C590    1.448   .     S
C558   C589    1.448   .     S
O559   C563    1.292   .     A
O559   Zn565   2.020   .     S
O560   C564    1.292   .     A
O560   Zn566   2.020   .     S
O561   Zn565   2.015   .     S
O561   C564    1.293   .     A
O562   Zn566   2.015   .     S
O562   C563    1.293   .     A
C563   C570    1.432   .     S
C564   C569    1.432   .     S
Zn565  N595    2.036   .     S
Zn566  N596    2.036   .     S
C567   C597    1.458   .     S
C567   C569    1.394   .     A
C567   C577    1.397   .     A
C568   C599    1.458   .     S
C568   C578    1.397   .     A
C568   C570    1.394   .     A
C569   C571    1.401   .     A
C570   C572    1.401   .     A
C571   C601    1.451   .     S
C571   C573    1.409   .     A
C572   C603    1.451   .     S
C572   C574    1.409   .     A
C573   C579    1.425   .     A
C573   C575    1.428   .     A
C574   C580    1.425   .     A
C574   C576    1.428   .     A
C575   C577    1.417   .     A
C575   C1404   1.408   .     S
C576   C578    1.417   .     A
C576   C1403   1.408   1_554 S
C577   C582    1.399   .     A
C578   C581    1.399   .     A
C579   C605    1.514   .     S
C579   C1409   1.387   .     S
C580   C609    1.514   .     S
C580   C1410   1.387   1_554 S
C581   H583    1.083   .     S
C581   C1407   1.387   1_554 S
C582   H584    1.083   .     S
C582   C1408   1.387   .     S
C585   C613    1.518   .     S
C585   C590    1.414   .     A
C585   C771    1.388   1_455 S
C586   C589    1.415   .     A
C586   C617    1.518   .     S
C586   C680    1.388   .     S
C587   C589    1.408   .     A
C587   C621    1.520   .     S
C587   C677    1.388   .     S
C588   C590    1.408   .     A
C588   C625    1.520   .     S
C588   C770    1.388   1_455 S
C591   C629    1.512   .     S
C591   N596    1.381   .     A
C592   N595    1.381   .     A
C592   C633    1.512   .     S
C592   C41     1.433   1_565 S
C593   N596    1.376   .     A
C593   C637    1.513   .     S
C594   N595    1.376   .     A
C594   C641    1.513   .     S
C594   C39     1.433   1_565 S
C597   N598    1.158   .     T
C599   N600    1.158   .     T
C601   N602    1.157   .     T
C603   N604    1.157   .     T
C605   H608    1.111   .     S
C605   H607    1.109   .     S
C605   H606    1.110   .     S
C609   H612    1.109   .     S
C609   H611    1.111   .     S
C609   H610    1.110   .     S
C613   H615    1.111   .     S
C613   H616    1.106   .     S
C613   H614    1.108   .     S
C617   H619    1.106   .     S
C617   H620    1.111   .     S
C617   H618    1.108   .     S
C621   H622    1.111   .     S
C621   H623    1.111   .     S
C621   H624    1.110   .     S
C625   H626    1.111   .     S
C625   H627    1.110   .     S
C625   H628    1.111   .     S
C629   H630    1.082   .     S
C629   H631    1.111   .     S
C629   H632    1.110   .     S
C633   H634    1.082   .     S
C633   H635    1.110   .     S
C633   H636    1.111   .     S
C637   H638    1.091   .     S
C637   H640    1.106   .     S
C637   H639    1.110   .     S
C641   H643    1.106   .     S
C641   H644    1.110   .     S
C641   H642    1.091   .     S
O645   C649    1.305   .     A
O645   Zn657   1.981   .     S
O646   C650    1.305   .     A
O646   Zn658   1.981   .     S
O647   C650    1.294   .     A
O647   Zn657   2.008   .     S
O648   C649    1.294   .     A
O648   Zn658   2.008   .     S
C649   C682    1.448   .     S
C650   C681    1.448   .     S
O651   C655    1.292   .     A
O651   Zn657   2.020   .     S
O652   C656    1.292   .     A
O652   Zn658   2.020   .     S
O653   Zn657   2.015   .     S
O653   C656    1.293   .     A
O654   Zn658   2.015   .     S
O654   C655    1.293   .     A
C655   C662    1.432   .     S
C656   C661    1.432   .     S
Zn657  N687    2.036   .     S
Zn658  N688    2.036   .     S
C659   C689    1.458   .     S
C659   C661    1.394   .     A
C659   C669    1.397   .     A
C660   C691    1.458   .     S
C660   C670    1.397   .     A
C660   C662    1.394   .     A
C661   C663    1.401   .     A
C662   C664    1.401   .     A
C663   C693    1.451   .     S
C663   C665    1.409   .     A
C664   C695    1.451   .     S
C664   C666    1.409   .     A
C665   C671    1.425   .     A
C665   C667    1.428   .     A
C666   C672    1.425   .     A
C666   C668    1.428   .     A
C667   C669    1.417   .     A
C667   C1496   1.408   .     S
C668   C670    1.417   .     A
C668   C1495   1.408   1_554 S
C669   C674    1.399   .     A
C670   C673    1.399   .     A
C671   C697    1.514   .     S
C671   C1501   1.387   .     S
C672   C701    1.514   .     S
C672   C1502   1.387   1_554 S
C673   H675    1.083   .     S
C673   C1499   1.387   1_554 S
C674   H676    1.083   .     S
C674   C1500   1.387   .     S
C677   C705    1.518   .     S
C677   C682    1.414   .     A
C678   C681    1.415   .     A
C678   C709    1.518   .     S
C678   C772    1.388   .     S
C679   C681    1.408   .     A
C679   C713    1.520   .     S
C679   C769    1.388   .     S
C680   C682    1.408   .     A
C680   C717    1.520   .     S
C683   C721    1.512   .     S
C683   N688    1.381   .     A
C684   N687    1.381   .     A
C684   C725    1.512   .     S
C684   C133    1.433   1_565 S
C685   N688    1.376   .     A
C685   C729    1.513   .     S
C686   N687    1.376   .     A
C686   C733    1.513   .     S
C686   C131    1.433   1_565 S
C689   N690    1.158   .     T
C691   N692    1.158   .     T
C693   N694    1.157   .     T
C695   N696    1.157   .     T
C697   H700    1.111   .     S
C697   H699    1.109   .     S
C697   H698    1.110   .     S
C701   H704    1.109   .     S
C701   H703    1.111   .     S
C701   H702    1.110   .     S
C705   H707    1.111   .     S
C705   H708    1.106   .     S
C705   H706    1.108   .     S
C709   H711    1.106   .     S
C709   H712    1.111   .     S
C709   H710    1.108   .     S
C713   H714    1.111   .     S
C713   H715    1.111   .     S
C713   H716    1.110   .     S
C717   H718    1.111   .     S
C717   H719    1.110   .     S
C717   H720    1.111   .     S
C721   H722    1.082   .     S
C721   H723    1.111   .     S
C721   H724    1.110   .     S
C725   H726    1.082   .     S
C725   H727    1.110   .     S
C725   H728    1.111   .     S
C729   H730    1.091   .     S
C729   H732    1.106   .     S
C729   H731    1.110   .     S
C733   H735    1.106   .     S
C733   H736    1.110   .     S
C733   H734    1.091   .     S
O737   C741    1.305   .     A
O737   Zn749   1.981   .     S
O738   C742    1.305   .     A
O738   Zn750   1.981   .     S
O739   C742    1.294   .     A
O739   Zn749   2.008   .     S
O740   C741    1.294   .     A
O740   Zn750   2.008   .     S
C741   C774    1.448   .     S
C742   C773    1.448   .     S
O743   C747    1.292   .     A
O743   Zn749   2.020   .     S
O744   C748    1.292   .     A
O744   Zn750   2.020   .     S
O745   Zn749   2.015   .     S
O745   C748    1.293   .     A
O746   Zn750   2.015   .     S
O746   C747    1.293   .     A
C747   C754    1.432   .     S
C748   C753    1.432   .     S
Zn749  N779    2.036   .     S
Zn750  N780    2.036   .     S
C751   C781    1.458   .     S
C751   C753    1.394   .     A
C751   C761    1.397   .     A
C752   C783    1.458   .     S
C752   C762    1.397   .     A
C752   C754    1.394   .     A
C753   C755    1.401   .     A
C754   C756    1.401   .     A
C755   C785    1.451   .     S
C755   C757    1.409   .     A
C756   C787    1.451   .     S
C756   C758    1.409   .     A
C757   C763    1.425   .     A
C757   C759    1.428   .     A
C758   C764    1.425   .     A
C758   C760    1.428   .     A
C759   C761    1.417   .     A
C759   C1588   1.408   .     S
C760   C762    1.417   .     A
C760   C1587   1.408   1_554 S
C761   C766    1.399   .     A
C762   C765    1.399   .     A
C763   C789    1.514   .     S
C763   C1593   1.387   .     S
C764   C793    1.514   .     S
C764   C1594   1.387   1_554 S
C765   H767    1.083   .     S
C765   C1591   1.387   1_554 S
C766   H768    1.083   .     S
C766   C1592   1.387   .     S
C769   C797    1.518   .     S
C769   C774    1.414   .     A
C770   C773    1.415   .     A
C770   C801    1.518   .     S
C770   C588    1.388   1_655 S
C771   C773    1.408   .     A
C771   C805    1.520   .     S
C771   C585    1.388   1_655 S
C772   C774    1.408   .     A
C772   C809    1.520   .     S
C775   C813    1.512   .     S
C775   N780    1.381   .     A
C776   N779    1.381   .     A
C776   C817    1.512   .     S
C776   C225    1.433   1_565 S
C777   N780    1.376   .     A
C777   C821    1.513   .     S
C778   N779    1.376   .     A
C778   C825    1.513   .     S
C778   C223    1.433   1_565 S
C781   N782    1.158   .     T
C783   N784    1.158   .     T
C785   N786    1.157   .     T
C787   N788    1.157   .     T
C789   H792    1.111   .     S
C789   H791    1.109   .     S
C789   H790    1.110   .     S
C793   H796    1.109   .     S
C793   H795    1.111   .     S
C793   H794    1.110   .     S
C797   H799    1.111   .     S
C797   H800    1.106   .     S
C797   H798    1.108   .     S
C801   H803    1.106   .     S
C801   H804    1.111   .     S
C801   H802    1.108   .     S
C805   H806    1.111   .     S
C805   H807    1.111   .     S
C805   H808    1.110   .     S
C809   H810    1.111   .     S
C809   H811    1.110   .     S
C809   H812    1.111   .     S
C813   H814    1.082   .     S
C813   H815    1.111   .     S
C813   H816    1.110   .     S
C817   H818    1.082   .     S
C817   H819    1.110   .     S
C817   H820    1.111   .     S
C821   H822    1.091   .     S
C821   H824    1.106   .     S
C821   H823    1.110   .     S
C825   H827    1.106   .     S
C825   H828    1.110   .     S
C825   H826    1.091   .     S
O829   C833    1.305   .     A
O829   Zn841   1.981   .     S
O830   C834    1.305   .     A
O830   Zn842   1.981   .     S
O831   C834    1.294   .     A
O831   Zn841   2.008   .     S
O832   C833    1.294   .     A
O832   Zn842   2.008   .     S
C833   C866    1.448   .     S
C834   C865    1.448   .     S
O835   C839    1.292   .     A
O835   Zn841   2.020   .     S
O836   C840    1.292   .     A
O836   Zn842   2.020   .     S
O837   Zn841   2.015   .     S
O837   C840    1.293   .     A
O838   Zn842   2.015   .     S
O838   C839    1.293   .     A
C839   C846    1.432   .     S
C840   C845    1.432   .     S
Zn841  N871    2.036   .     S
Zn842  N872    2.036   .     S
C843   C873    1.458   .     S
C843   C845    1.394   .     A
C843   C853    1.397   .     A
C844   C875    1.458   .     S
C844   C854    1.397   .     A
C844   C846    1.394   .     A
C845   C847    1.401   .     A
C846   C848    1.401   .     A
C847   C877    1.451   .     S
C847   C849    1.409   .     A
C848   C879    1.451   .     S
C848   C850    1.409   .     A
C849   C855    1.425   .     A
C849   C851    1.428   .     A
C850   C856    1.425   .     A
C850   C852    1.428   .     A
C851   C853    1.417   .     A
C851   C24     1.408   1_556 S
C852   C854    1.417   .     A
C853   C858    1.399   .     A
C854   C857    1.399   .     A
C855   C881    1.514   .     S
C855   C29     1.387   1_556 S
C856   C885    1.514   .     S
C857   H859    1.083   .     S
C858   H860    1.083   .     S
C858   C28     1.387   1_556 S
C861   C889    1.518   .     S
C861   C866    1.414   .     A
C861   C1047   1.388   1_455 S
C862   C865    1.415   .     A
C862   C893    1.518   .     S
C862   C956    1.388   .     S
C863   C865    1.408   .     A
C863   C897    1.520   .     S
C863   C953    1.388   .     S
C864   C866    1.408   .     A
C864   C901    1.520   .     S
C864   C1046   1.388   1_455 S
C867   C905    1.512   .     S
C867   N872    1.381   .     A
C867   C1422   1.433   1_545 S
C868   N871    1.381   .     A
C868   C909    1.512   .     S
C868   C1145   1.433   .     S
C869   N872    1.376   .     A
C869   C913    1.513   .     S
C869   C1420   1.433   1_545 S
C870   N871    1.376   .     A
C870   C917    1.513   .     S
C870   C1143   1.433   .     S
C873   N874    1.158   .     T
C875   N876    1.158   .     T
C877   N878    1.157   .     T
C879   N880    1.157   .     T
C881   H884    1.111   .     S
C881   H883    1.109   .     S
C881   H882    1.110   .     S
C885   H888    1.109   .     S
C885   H887    1.111   .     S
C885   H886    1.110   .     S
C889   H891    1.111   .     S
C889   H892    1.106   .     S
C889   H890    1.108   .     S
C893   H895    1.106   .     S
C893   H896    1.111   .     S
C893   H894    1.108   .     S
C897   H898    1.111   .     S
C897   H899    1.111   .     S
C897   H900    1.110   .     S
C901   H902    1.111   .     S
C901   H903    1.110   .     S
C901   H904    1.111   .     S
C905   H906    1.082   .     S
C905   H907    1.111   .     S
C905   H908    1.110   .     S
C909   H910    1.082   .     S
C909   H911    1.110   .     S
C909   H912    1.111   .     S
C913   H914    1.091   .     S
C913   H916    1.106   .     S
C913   H915    1.110   .     S
C917   H919    1.106   .     S
C917   H920    1.110   .     S
C917   H918    1.091   .     S
O921   C925    1.305   .     A
O921   Zn933   1.981   .     S
O922   C926    1.305   .     A
O922   Zn934   1.981   .     S
O923   C926    1.294   .     A
O923   Zn933   2.008   .     S
O924   C925    1.294   .     A
O924   Zn934   2.008   .     S
C925   C958    1.448   .     S
C926   C957    1.448   .     S
O927   C931    1.292   .     A
O927   Zn933   2.020   .     S
O928   C932    1.292   .     A
O928   Zn934   2.020   .     S
O929   Zn933   2.015   .     S
O929   C932    1.293   .     A
O930   Zn934   2.015   .     S
O930   C931    1.293   .     A
C931   C938    1.432   .     S
C932   C937    1.432   .     S
Zn933  N963    2.036   .     S
Zn934  N964    2.036   .     S
C935   C965    1.458   .     S
C935   C937    1.394   .     A
C935   C945    1.397   .     A
C936   C967    1.458   .     S
C936   C946    1.397   .     A
C936   C938    1.394   .     A
C937   C939    1.401   .     A
C938   C940    1.401   .     A
C939   C969    1.451   .     S
C939   C941    1.409   .     A
C940   C971    1.451   .     S
C940   C942    1.409   .     A
C941   C947    1.425   .     A
C941   C943    1.428   .     A
C942   C948    1.425   .     A
C942   C944    1.428   .     A
C943   C945    1.417   .     A
C943   C116    1.408   1_556 S
C944   C946    1.417   .     A
C945   C950    1.399   .     A
C946   C949    1.399   .     A
C947   C973    1.514   .     S
C947   C121    1.387   1_556 S
C948   C977    1.514   .     S
C949   H951    1.083   .     S
C950   H952    1.083   .     S
C950   C120    1.387   1_556 S
C953   C981    1.518   .     S
C953   C958    1.414   .     A
C954   C957    1.415   .     A
C954   C985    1.518   .     S
C954   C1048   1.388   .     S
C955   C957    1.408   .     A
C955   C989    1.520   .     S
C955   C1045   1.388   .     S
C956   C958    1.408   .     A
C956   C993    1.520   .     S
C959   C997    1.512   .     S
C959   N964    1.381   .     A
C959   C1514   1.433   1_545 S
C960   N963    1.381   .     A
C960   C1001   1.512   .     S
C960   C1237   1.433   .     S
C961   N964    1.376   .     A
C961   C1005   1.513   .     S
C961   C1512   1.433   1_545 S
C962   N963    1.376   .     A
C962   C1009   1.513   .     S
C962   C1235   1.433   .     S
C965   N966    1.158   .     T
C967   N968    1.158   .     T
C969   N970    1.157   .     T
C971   N972    1.157   .     T
C973   H976    1.111   .     S
C973   H975    1.109   .     S
C973   H974    1.110   .     S
C977   H980    1.109   .     S
C977   H979    1.111   .     S
C977   H978    1.110   .     S
C981   H983    1.111   .     S
C981   H984    1.106   .     S
C981   H982    1.108   .     S
C985   H987    1.106   .     S
C985   H988    1.111   .     S
C985   H986    1.108   .     S
C989   H990    1.111   .     S
C989   H991    1.111   .     S
C989   H992    1.110   .     S
C993   H994    1.111   .     S
C993   H995    1.110   .     S
C993   H996    1.111   .     S
C997   H998    1.082   .     S
C997   H999    1.111   .     S
C997   H1000   1.110   .     S
C1001  H1002   1.082   .     S
C1001  H1003   1.110   .     S
C1001  H1004   1.111   .     S
C1005  H1006   1.091   .     S
C1005  H1008   1.106   .     S
C1005  H1007   1.110   .     S
C1009  H1011   1.106   .     S
C1009  H1012   1.110   .     S
C1009  H1010   1.091   .     S
O1013  C1017   1.305   .     A
O1013  Zn1025  1.981   .     S
O1014  C1018   1.305   .     A
O1014  Zn1026  1.981   .     S
O1015  C1018   1.294   .     A
O1015  Zn1025  2.008   .     S
O1016  C1017   1.294   .     A
O1016  Zn1026  2.008   .     S
C1017  C1050   1.448   .     S
C1018  C1049   1.448   .     S
O1019  C1023   1.292   .     A
O1019  Zn1025  2.020   .     S
O1020  C1024   1.292   .     A
O1020  Zn1026  2.020   .     S
O1021  Zn1025  2.015   .     S
O1021  C1024   1.293   .     A
O1022  Zn1026  2.015   .     S
O1022  C1023   1.293   .     A
C1023  C1030   1.432   .     S
C1024  C1029   1.432   .     S
Zn1025 N1055   2.036   .     S
Zn1026 N1056   2.036   .     S
C1027  C1057   1.458   .     S
C1027  C1029   1.394   .     A
C1027  C1037   1.397   .     A
C1028  C1059   1.458   .     S
C1028  C1038   1.397   .     A
C1028  C1030   1.394   .     A
C1029  C1031   1.401   .     A
C1030  C1032   1.401   .     A
C1031  C1061   1.451   .     S
C1031  C1033   1.409   .     A
C1032  C1063   1.451   .     S
C1032  C1034   1.409   .     A
C1033  C1039   1.425   .     A
C1033  C1035   1.428   .     A
C1034  C1040   1.425   .     A
C1034  C1036   1.428   .     A
C1035  C1037   1.417   .     A
C1035  C208    1.408   1_556 S
C1036  C1038   1.417   .     A
C1037  C1042   1.399   .     A
C1038  C1041   1.399   .     A
C1039  C1065   1.514   .     S
C1039  C213    1.387   1_556 S
C1040  C1069   1.514   .     S
C1041  H1043   1.083   .     S
C1042  H1044   1.083   .     S
C1042  C212    1.387   1_556 S
C1045  C1073   1.518   .     S
C1045  C1050   1.414   .     A
C1046  C1049   1.415   .     A
C1046  C1077   1.518   .     S
C1046  C864    1.388   1_655 S
C1047  C1049   1.408   .     A
C1047  C1081   1.520   .     S
C1047  C861    1.388   1_655 S
C1048  C1050   1.408   .     A
C1048  C1085   1.520   .     S
C1051  C1089   1.512   .     S
C1051  N1056   1.381   .     A
C1051  C1606   1.433   1_545 S
C1052  N1055   1.381   .     A
C1052  C1093   1.512   .     S
C1052  C1329   1.433   .     S
C1053  N1056   1.376   .     A
C1053  C1097   1.513   .     S
C1053  C1604   1.433   1_545 S
C1054  N1055   1.376   .     A
C1054  C1101   1.513   .     S
C1054  C1327   1.433   .     S
C1057  N1058   1.158   .     T
C1059  N1060   1.158   .     T
C1061  N1062   1.157   .     T
C1063  N1064   1.157   .     T
C1065  H1068   1.111   .     S
C1065  H1067   1.109   .     S
C1065  H1066   1.110   .     S
C1069  H1072   1.109   .     S
C1069  H1071   1.111   .     S
C1069  H1070   1.110   .     S
C1073  H1075   1.111   .     S
C1073  H1076   1.106   .     S
C1073  H1074   1.108   .     S
C1077  H1079   1.106   .     S
C1077  H1080   1.111   .     S
C1077  H1078   1.108   .     S
C1081  H1082   1.111   .     S
C1081  H1083   1.111   .     S
C1081  H1084   1.110   .     S
C1085  H1086   1.111   .     S
C1085  H1087   1.110   .     S
C1085  H1088   1.111   .     S
C1089  H1090   1.082   .     S
C1089  H1091   1.111   .     S
C1089  H1092   1.110   .     S
C1093  H1094   1.082   .     S
C1093  H1095   1.110   .     S
C1093  H1096   1.111   .     S
C1097  H1098   1.091   .     S
C1097  H1100   1.106   .     S
C1097  H1099   1.110   .     S
C1101  H1103   1.106   .     S
C1101  H1104   1.110   .     S
C1101  H1102   1.091   .     S
O1105  C1109   1.305   .     A
O1105  Zn1117  1.981   .     S
O1106  C1110   1.305   .     A
O1106  Zn1118  1.981   .     S
O1107  C1110   1.294   .     A
O1107  Zn1117  2.008   .     S
O1108  C1109   1.294   .     A
O1108  Zn1118  2.008   .     S
C1109  C1142   1.448   .     S
C1110  C1141   1.448   .     S
O1111  C1115   1.292   .     A
O1111  Zn1117  2.020   .     S
O1112  C1116   1.292   .     A
O1112  Zn1118  2.020   .     S
O1113  Zn1117  2.015   .     S
O1113  C1116   1.293   .     A
O1114  Zn1118  2.015   .     S
O1114  C1115   1.293   .     A
C1115  C1122   1.432   .     S
C1116  C1121   1.432   .     S
Zn1117 N1147   2.036   .     S
Zn1118 N1148   2.036   .     S
C1119  C1149   1.458   .     S
C1119  C1121   1.394   .     A
C1119  C1129   1.397   .     A
C1120  C1151   1.458   .     S
C1120  C1130   1.397   .     A
C1120  C1122   1.394   .     A
C1121  C1123   1.401   .     A
C1122  C1124   1.401   .     A
C1123  C1153   1.451   .     S
C1123  C1125   1.409   .     A
C1124  C1155   1.451   .     S
C1124  C1126   1.409   .     A
C1125  C1131   1.425   .     A
C1125  C1127   1.428   .     A
C1126  C1132   1.425   .     A
C1126  C1128   1.428   .     A
C1127  C1129   1.417   .     A
C1127  C300    1.408   1_556 S
C1128  C1130   1.417   .     A
C1129  C1134   1.399   .     A
C1130  C1133   1.399   .     A
C1131  C1157   1.514   .     S
C1131  C305    1.387   1_556 S
C1132  C1161   1.514   .     S
C1133  H1135   1.083   .     S
C1134  H1136   1.083   .     S
C1134  C304    1.387   1_556 S
C1137  C1165   1.518   .     S
C1137  C1142   1.414   .     A
C1137  C1323   1.388   1_455 S
C1138  C1141   1.415   .     A
C1138  C1169   1.518   .     S
C1138  C1232   1.388   .     S
C1139  C1141   1.408   .     A
C1139  C1173   1.520   .     S
C1139  C1229   1.388   .     S
C1140  C1142   1.408   .     A
C1140  C1177   1.520   .     S
C1140  C1322   1.388   1_455 S
C1143  C1181   1.512   .     S
C1143  N1148   1.381   .     A
C1144  N1147   1.381   .     A
C1144  C1185   1.512   .     S
C1144  C1421   1.433   .     S
C1145  N1148   1.376   .     A
C1145  C1189   1.513   .     S
C1146  N1147   1.376   .     A
C1146  C1193   1.513   .     S
C1146  C1419   1.433   .     S
C1149  N1150   1.158   .     T
C1151  N1152   1.158   .     T
C1153  N1154   1.157   .     T
C1155  N1156   1.157   .     T
C1157  H1160   1.111   .     S
C1157  H1159   1.109   .     S
C1157  H1158   1.110   .     S
C1161  H1164   1.109   .     S
C1161  H1163   1.111   .     S
C1161  H1162   1.110   .     S
C1165  H1167   1.111   .     S
C1165  H1168   1.106   .     S
C1165  H1166   1.108   .     S
C1169  H1171   1.106   .     S
C1169  H1172   1.111   .     S
C1169  H1170   1.108   .     S
C1173  H1174   1.111   .     S
C1173  H1175   1.111   .     S
C1173  H1176   1.110   .     S
C1177  H1178   1.111   .     S
C1177  H1179   1.110   .     S
C1177  H1180   1.111   .     S
C1181  H1182   1.082   .     S
C1181  H1183   1.111   .     S
C1181  H1184   1.110   .     S
C1185  H1186   1.082   .     S
C1185  H1187   1.110   .     S
C1185  H1188   1.111   .     S
C1189  H1190   1.091   .     S
C1189  H1192   1.106   .     S
C1189  H1191   1.110   .     S
C1193  H1195   1.106   .     S
C1193  H1196   1.110   .     S
C1193  H1194   1.091   .     S
O1197  C1201   1.305   .     A
O1197  Zn1209  1.981   .     S
O1198  C1202   1.305   .     A
O1198  Zn1210  1.981   .     S
O1199  C1202   1.294   .     A
O1199  Zn1209  2.008   .     S
O1200  C1201   1.294   .     A
O1200  Zn1210  2.008   .     S
C1201  C1234   1.448   .     S
C1202  C1233   1.448   .     S
O1203  C1207   1.292   .     A
O1203  Zn1209  2.020   .     S
O1204  C1208   1.292   .     A
O1204  Zn1210  2.020   .     S
O1205  Zn1209  2.015   .     S
O1205  C1208   1.293   .     A
O1206  Zn1210  2.015   .     S
O1206  C1207   1.293   .     A
C1207  C1214   1.432   .     S
C1208  C1213   1.432   .     S
Zn1209 N1239   2.036   .     S
Zn1210 N1240   2.036   .     S
C1211  C1241   1.458   .     S
C1211  C1213   1.394   .     A
C1211  C1221   1.397   .     A
C1212  C1243   1.458   .     S
C1212  C1222   1.397   .     A
C1212  C1214   1.394   .     A
C1213  C1215   1.401   .     A
C1214  C1216   1.401   .     A
C1215  C1245   1.451   .     S
C1215  C1217   1.409   .     A
C1216  C1247   1.451   .     S
C1216  C1218   1.409   .     A
C1217  C1223   1.425   .     A
C1217  C1219   1.428   .     A
C1218  C1224   1.425   .     A
C1218  C1220   1.428   .     A
C1219  C1221   1.417   .     A
C1219  C392    1.408   1_556 S
C1220  C1222   1.417   .     A
C1221  C1226   1.399   .     A
C1222  C1225   1.399   .     A
C1223  C1249   1.514   .     S
C1223  C397    1.387   1_556 S
C1224  C1253   1.514   .     S
C1225  H1227   1.083   .     S
C1226  H1228   1.083   .     S
C1226  C396    1.387   1_556 S
C1229  C1257   1.518   .     S
C1229  C1234   1.414   .     A
C1230  C1233   1.415   .     A
C1230  C1261   1.518   .     S
C1230  C1324   1.388   .     S
C1231  C1233   1.408   .     A
C1231  C1265   1.520   .     S
C1231  C1321   1.388   .     S
C1232  C1234   1.408   .     A
C1232  C1269   1.520   .     S
C1235  C1273   1.512   .     S
C1235  N1240   1.381   .     A
C1236  N1239   1.381   .     A
C1236  C1277   1.512   .     S
C1236  C1513   1.433   .     S
C1237  N1240   1.376   .     A
C1237  C1281   1.513   .     S
C1238  N1239   1.376   .     A
C1238  C1285   1.513   .     S
C1238  C1511   1.433   .     S
C1241  N1242   1.158   .     T
C1243  N1244   1.158   .     T
C1245  N1246   1.157   .     T
C1247  N1248   1.157   .     T
C1249  H1252   1.111   .     S
C1249  H1251   1.109   .     S
C1249  H1250   1.110   .     S
C1253  H1256   1.109   .     S
C1253  H1255   1.111   .     S
C1253  H1254   1.110   .     S
C1257  H1259   1.111   .     S
C1257  H1260   1.106   .     S
C1257  H1258   1.108   .     S
C1261  H1263   1.106   .     S
C1261  H1264   1.111   .     S
C1261  H1262   1.108   .     S
C1265  H1266   1.111   .     S
C1265  H1267   1.111   .     S
C1265  H1268   1.110   .     S
C1269  H1270   1.111   .     S
C1269  H1271   1.110   .     S
C1269  H1272   1.111   .     S
C1273  H1274   1.082   .     S
C1273  H1275   1.111   .     S
C1273  H1276   1.110   .     S
C1277  H1278   1.082   .     S
C1277  H1279   1.110   .     S
C1277  H1280   1.111   .     S
C1281  H1282   1.091   .     S
C1281  H1284   1.106   .     S
C1281  H1283   1.110   .     S
C1285  H1287   1.106   .     S
C1285  H1288   1.110   .     S
C1285  H1286   1.091   .     S
O1289  C1293   1.305   .     A
O1289  Zn1301  1.981   .     S
O1290  C1294   1.305   .     A
O1290  Zn1302  1.981   .     S
O1291  C1294   1.294   .     A
O1291  Zn1301  2.008   .     S
O1292  C1293   1.294   .     A
O1292  Zn1302  2.008   .     S
C1293  C1326   1.448   .     S
C1294  C1325   1.448   .     S
O1295  C1299   1.292   .     A
O1295  Zn1301  2.020   .     S
O1296  C1300   1.292   .     A
O1296  Zn1302  2.020   .     S
O1297  Zn1301  2.015   .     S
O1297  C1300   1.293   .     A
O1298  Zn1302  2.015   .     S
O1298  C1299   1.293   .     A
C1299  C1306   1.432   .     S
C1300  C1305   1.432   .     S
Zn1301 N1331   2.036   .     S
Zn1302 N1332   2.036   .     S
C1303  C1333   1.458   .     S
C1303  C1305   1.394   .     A
C1303  C1313   1.397   .     A
C1304  C1335   1.458   .     S
C1304  C1314   1.397   .     A
C1304  C1306   1.394   .     A
C1305  C1307   1.401   .     A
C1306  C1308   1.401   .     A
C1307  C1337   1.451   .     S
C1307  C1309   1.409   .     A
C1308  C1339   1.451   .     S
C1308  C1310   1.409   .     A
C1309  C1315   1.425   .     A
C1309  C1311   1.428   .     A
C1310  C1316   1.425   .     A
C1310  C1312   1.428   .     A
C1311  C1313   1.417   .     A
C1311  C484    1.408   1_556 S
C1312  C1314   1.417   .     A
C1313  C1318   1.399   .     A
C1314  C1317   1.399   .     A
C1315  C1341   1.514   .     S
C1315  C489    1.387   1_556 S
C1316  C1345   1.514   .     S
C1317  H1319   1.083   .     S
C1318  H1320   1.083   .     S
C1318  C488    1.387   1_556 S
C1321  C1349   1.518   .     S
C1321  C1326   1.414   .     A
C1322  C1325   1.415   .     A
C1322  C1353   1.518   .     S
C1322  C1140   1.388   1_655 S
C1323  C1325   1.408   .     A
C1323  C1357   1.520   .     S
C1323  C1137   1.388   1_655 S
C1324  C1326   1.408   .     A
C1324  C1361   1.520   .     S
C1327  C1365   1.512   .     S
C1327  N1332   1.381   .     A
C1328  N1331   1.381   .     A
C1328  C1369   1.512   .     S
C1328  C1605   1.433   .     S
C1329  N1332   1.376   .     A
C1329  C1373   1.513   .     S
C1330  N1331   1.376   .     A
C1330  C1377   1.513   .     S
C1330  C1603   1.433   .     S
C1333  N1334   1.158   .     T
C1335  N1336   1.158   .     T
C1337  N1338   1.157   .     T
C1339  N1340   1.157   .     T
C1341  H1344   1.111   .     S
C1341  H1343   1.109   .     S
C1341  H1342   1.110   .     S
C1345  H1348   1.109   .     S
C1345  H1347   1.111   .     S
C1345  H1346   1.110   .     S
C1349  H1351   1.111   .     S
C1349  H1352   1.106   .     S
C1349  H1350   1.108   .     S
C1353  H1355   1.106   .     S
C1353  H1356   1.111   .     S
C1353  H1354   1.108   .     S
C1357  H1358   1.111   .     S
C1357  H1359   1.111   .     S
C1357  H1360   1.110   .     S
C1361  H1362   1.111   .     S
C1361  H1363   1.110   .     S
C1361  H1364   1.111   .     S
C1365  H1366   1.082   .     S
C1365  H1367   1.111   .     S
C1365  H1368   1.110   .     S
C1369  H1370   1.082   .     S
C1369  H1371   1.110   .     S
C1369  H1372   1.111   .     S
C1373  H1374   1.091   .     S
C1373  H1376   1.106   .     S
C1373  H1375   1.110   .     S
C1377  H1379   1.106   .     S
C1377  H1380   1.110   .     S
C1377  H1378   1.091   .     S
O1381  C1385   1.305   .     A
O1381  Zn1393  1.981   .     S
O1382  C1386   1.305   .     A
O1382  Zn1394  1.981   .     S
O1383  C1386   1.294   .     A
O1383  Zn1393  2.008   .     S
O1384  C1385   1.294   .     A
O1384  Zn1394  2.008   .     S
C1385  C1418   1.448   .     S
C1386  C1417   1.448   .     S
O1387  C1391   1.292   .     A
O1387  Zn1393  2.020   .     S
O1388  C1392   1.292   .     A
O1388  Zn1394  2.020   .     S
O1389  Zn1393  2.015   .     S
O1389  C1392   1.293   .     A
O1390  Zn1394  2.015   .     S
O1390  C1391   1.293   .     A
C1391  C1398   1.432   .     S
C1392  C1397   1.432   .     S
Zn1393 N1423   2.036   .     S
Zn1394 N1424   2.036   .     S
C1395  C1425   1.458   .     S
C1395  C1397   1.394   .     A
C1395  C1405   1.397   .     A
C1396  C1427   1.458   .     S
C1396  C1406   1.397   .     A
C1396  C1398   1.394   .     A
C1397  C1399   1.401   .     A
C1398  C1400   1.401   .     A
C1399  C1429   1.451   .     S
C1399  C1401   1.409   .     A
C1400  C1431   1.451   .     S
C1400  C1402   1.409   .     A
C1401  C1407   1.425   .     A
C1401  C1403   1.428   .     A
C1402  C1408   1.425   .     A
C1402  C1404   1.428   .     A
C1403  C1405   1.417   .     A
C1403  C576    1.408   1_556 S
C1404  C1406   1.417   .     A
C1405  C1410   1.399   .     A
C1406  C1409   1.399   .     A
C1407  C1433   1.514   .     S
C1407  C581    1.387   1_556 S
C1408  C1437   1.514   .     S
C1409  H1411   1.083   .     S
C1410  H1412   1.083   .     S
C1410  C580    1.387   1_556 S
C1413  C1441   1.518   .     S
C1413  C1418   1.414   .     A
C1413  C1599   1.388   1_455 S
C1414  C1417   1.415   .     A
C1414  C1445   1.518   .     S
C1414  C1508   1.388   .     S
C1415  C1417   1.408   .     A
C1415  C1449   1.520   .     S
C1415  C1505   1.388   .     S
C1416  C1418   1.408   .     A
C1416  C1453   1.520   .     S
C1416  C1598   1.388   1_455 S
C1419  C1457   1.512   .     S
C1419  N1424   1.381   .     A
C1420  N1423   1.381   .     A
C1420  C1461   1.512   .     S
C1420  C869    1.433   1_565 S
C1421  N1424   1.376   .     A
C1421  C1465   1.513   .     S
C1422  N1423   1.376   .     A
C1422  C1469   1.513   .     S
C1422  C867    1.433   1_565 S
C1425  N1426   1.158   .     T
C1427  N1428   1.158   .     T
C1429  N1430   1.157   .     T
C1431  N1432   1.157   .     T
C1433  H1436   1.111   .     S
C1433  H1435   1.109   .     S
C1433  H1434   1.110   .     S
C1437  H1440   1.109   .     S
C1437  H1439   1.111   .     S
C1437  H1438   1.110   .     S
C1441  H1443   1.111   .     S
C1441  H1444   1.106   .     S
C1441  H1442   1.108   .     S
C1445  H1447   1.106   .     S
C1445  H1448   1.111   .     S
C1445  H1446   1.108   .     S
C1449  H1450   1.111   .     S
C1449  H1451   1.111   .     S
C1449  H1452   1.110   .     S
C1453  H1454   1.111   .     S
C1453  H1455   1.110   .     S
C1453  H1456   1.111   .     S
C1457  H1458   1.082   .     S
C1457  H1459   1.111   .     S
C1457  H1460   1.110   .     S
C1461  H1462   1.082   .     S
C1461  H1463   1.110   .     S
C1461  H1464   1.111   .     S
C1465  H1466   1.091   .     S
C1465  H1468   1.106   .     S
C1465  H1467   1.110   .     S
C1469  H1471   1.106   .     S
C1469  H1472   1.110   .     S
C1469  H1470   1.091   .     S
O1473  C1477   1.305   .     A
O1473  Zn1485  1.981   .     S
O1474  C1478   1.305   .     A
O1474  Zn1486  1.981   .     S
O1475  C1478   1.294   .     A
O1475  Zn1485  2.008   .     S
O1476  C1477   1.294   .     A
O1476  Zn1486  2.008   .     S
C1477  C1510   1.448   .     S
C1478  C1509   1.448   .     S
O1479  C1483   1.292   .     A
O1479  Zn1485  2.020   .     S
O1480  C1484   1.292   .     A
O1480  Zn1486  2.020   .     S
O1481  Zn1485  2.015   .     S
O1481  C1484   1.293   .     A
O1482  Zn1486  2.015   .     S
O1482  C1483   1.293   .     A
C1483  C1490   1.432   .     S
C1484  C1489   1.432   .     S
Zn1485 N1515   2.036   .     S
Zn1486 N1516   2.036   .     S
C1487  C1517   1.458   .     S
C1487  C1489   1.394   .     A
C1487  C1497   1.397   .     A
C1488  C1519   1.458   .     S
C1488  C1498   1.397   .     A
C1488  C1490   1.394   .     A
C1489  C1491   1.401   .     A
C1490  C1492   1.401   .     A
C1491  C1521   1.451   .     S
C1491  C1493   1.409   .     A
C1492  C1523   1.451   .     S
C1492  C1494   1.409   .     A
C1493  C1499   1.425   .     A
C1493  C1495   1.428   .     A
C1494  C1500   1.425   .     A
C1494  C1496   1.428   .     A
C1495  C1497   1.417   .     A
C1495  C668    1.408   1_556 S
C1496  C1498   1.417   .     A
C1497  C1502   1.399   .     A
C1498  C1501   1.399   .     A
C1499  C1525   1.514   .     S
C1499  C673    1.387   1_556 S
C1500  C1529   1.514   .     S
C1501  H1503   1.083   .     S
C1502  H1504   1.083   .     S
C1502  C672    1.387   1_556 S
C1505  C1533   1.518   .     S
C1505  C1510   1.414   .     A
C1506  C1509   1.415   .     A
C1506  C1537   1.518   .     S
C1506  C1600   1.388   .     S
C1507  C1509   1.408   .     A
C1507  C1541   1.520   .     S
C1507  C1597   1.388   .     S
C1508  C1510   1.408   .     A
C1508  C1545   1.520   .     S
C1511  C1549   1.512   .     S
C1511  N1516   1.381   .     A
C1512  N1515   1.381   .     A
C1512  C1553   1.512   .     S
C1512  C961    1.433   1_565 S
C1513  N1516   1.376   .     A
C1513  C1557   1.513   .     S
C1514  N1515   1.376   .     A
C1514  C1561   1.513   .     S
C1514  C959    1.433   1_565 S
C1517  N1518   1.158   .     T
C1519  N1520   1.158   .     T
C1521  N1522   1.157   .     T
C1523  N1524   1.157   .     T
C1525  H1528   1.111   .     S
C1525  H1527   1.109   .     S
C1525  H1526   1.110   .     S
C1529  H1532   1.109   .     S
C1529  H1531   1.111   .     S
C1529  H1530   1.110   .     S
C1533  H1535   1.111   .     S
C1533  H1536   1.106   .     S
C1533  H1534   1.108   .     S
C1537  H1539   1.106   .     S
C1537  H1540   1.111   .     S
C1537  H1538   1.108   .     S
C1541  H1542   1.111   .     S
C1541  H1543   1.111   .     S
C1541  H1544   1.110   .     S
C1545  H1546   1.111   .     S
C1545  H1547   1.110   .     S
C1545  H1548   1.111   .     S
C1549  H1550   1.082   .     S
C1549  H1551   1.111   .     S
C1549  H1552   1.110   .     S
C1553  H1554   1.082   .     S
C1553  H1555   1.110   .     S
C1553  H1556   1.111   .     S
C1557  H1558   1.091   .     S
C1557  H1560   1.106   .     S
C1557  H1559   1.110   .     S
C1561  H1563   1.106   .     S
C1561  H1564   1.110   .     S
C1561  H1562   1.091   .     S
O1565  C1569   1.305   .     A
O1565  Zn1577  1.981   .     S
O1566  C1570   1.305   .     A
O1566  Zn1578  1.981   .     S
O1567  C1570   1.294   .     A
O1567  Zn1577  2.008   .     S
O1568  C1569   1.294   .     A
O1568  Zn1578  2.008   .     S
C1569  C1602   1.448   .     S
C1570  C1601   1.448   .     S
O1571  C1575   1.292   .     A
O1571  Zn1577  2.020   .     S
O1572  C1576   1.292   .     A
O1572  Zn1578  2.020   .     S
O1573  Zn1577  2.015   .     S
O1573  C1576   1.293   .     A
O1574  Zn1578  2.015   .     S
O1574  C1575   1.293   .     A
C1575  C1582   1.432   .     S
C1576  C1581   1.432   .     S
Zn1577 N1607   2.036   .     S
Zn1578 N1608   2.036   .     S
C1579  C1609   1.458   .     S
C1579  C1581   1.394   .     A
C1579  C1589   1.397   .     A
C1580  C1611   1.458   .     S
C1580  C1590   1.397   .     A
C1580  C1582   1.394   .     A
C1581  C1583   1.401   .     A
C1582  C1584   1.401   .     A
C1583  C1613   1.451   .     S
C1583  C1585   1.409   .     A
C1584  C1615   1.451   .     S
C1584  C1586   1.409   .     A
C1585  C1591   1.425   .     A
C1585  C1587   1.428   .     A
C1586  C1592   1.425   .     A
C1586  C1588   1.428   .     A
C1587  C1589   1.417   .     A
C1587  C760    1.408   1_556 S
C1588  C1590   1.417   .     A
C1589  C1594   1.399   .     A
C1590  C1593   1.399   .     A
C1591  C1617   1.514   .     S
C1591  C765    1.387   1_556 S
C1592  C1621   1.514   .     S
C1593  H1595   1.083   .     S
C1594  H1596   1.083   .     S
C1594  C764    1.387   1_556 S
C1597  C1625   1.518   .     S
C1597  C1602   1.414   .     A
C1598  C1601   1.415   .     A
C1598  C1629   1.518   .     S
C1598  C1416   1.388   1_655 S
C1599  C1601   1.408   .     A
C1599  C1633   1.520   .     S
C1599  C1413   1.388   1_655 S
C1600  C1602   1.408   .     A
C1600  C1637   1.520   .     S
C1603  C1641   1.512   .     S
C1603  N1608   1.381   .     A
C1604  N1607   1.381   .     A
C1604  C1645   1.512   .     S
C1604  C1053   1.433   1_565 S
C1605  N1608   1.376   .     A
C1605  C1649   1.513   .     S
C1606  N1607   1.376   .     A
C1606  C1653   1.513   .     S
C1606  C1051   1.433   1_565 S
C1609  N1610   1.158   .     T
C1611  N1612   1.158   .     T
C1613  N1614   1.157   .     T
C1615  N1616   1.157   .     T
C1617  H1620   1.111   .     S
C1617  H1619   1.109   .     S
C1617  H1618   1.110   .     S
C1621  H1624   1.109   .     S
C1621  H1623   1.111   .     S
C1621  H1622   1.110   .     S
C1625  H1627   1.111   .     S
C1625  H1628   1.106   .     S
C1625  H1626   1.108   .     S
C1629  H1631   1.106   .     S
C1629  H1632   1.111   .     S
C1629  H1630   1.108   .     S
C1633  H1634   1.111   .     S
C1633  H1635   1.111   .     S
C1633  H1636   1.110   .     S
C1637  H1638   1.111   .     S
C1637  H1639   1.110   .     S
C1637  H1640   1.111   .     S
C1641  H1642   1.082   .     S
C1641  H1643   1.111   .     S
C1641  H1644   1.110   .     S
C1645  H1646   1.082   .     S
C1645  H1647   1.110   .     S
C1645  H1648   1.111   .     S
C1649  H1650   1.091   .     S
C1649  H1652   1.106   .     S
C1649  H1651   1.110   .     S
C1653  H1655   1.106   .     S
C1653  H1656   1.110   .     S
C1653  H1654   1.091   .     S
