data_str_m3_o10_o17_pcu_sym.152
_audit_creation_date              2020-01-03
_audit_creation_method            'Materials Studio'
_symmetry_space_group_name_H-M    'P1'
_symmetry_Int_Tables_number       1
_symmetry_cell_setting            triclinic
loop_
_symmetry_equiv_pos_as_xyz
  x,y,z
_cell_length_a                    23.9802
_cell_length_b                    25.4956
_cell_length_c                    30.0398
_cell_angle_alpha                 93.7138
_cell_angle_beta                  85.7001
_cell_angle_gamma                 94.6161
loop_
_atom_site_label
_atom_site_type_symbol
_atom_site_fract_x
_atom_site_fract_y
_atom_site_fract_z
_atom_site_U_iso_or_equiv
_atom_site_adp_type
_atom_site_occupancy
C1     C     0.18180   0.26471   0.25254   0.00000  Uiso   1.00
C2     C     0.18175   0.22028   0.40921   0.00000  Uiso   1.00
C3     C     0.16535   0.15796   0.11489   0.00000  Uiso   1.00
C4     C     0.16901   0.17315   0.38340   0.00000  Uiso   1.00
C5     C     0.18454   0.20401   0.09461   0.00000  Uiso   1.00
C6     C     0.15321   0.12632   0.40257   0.00000  Uiso   1.00
C7     C     0.18717   0.20667   0.04874   0.00000  Uiso   1.00
C8     C     0.15169   0.12363   0.44806   0.00000  Uiso   1.00
C9     C     0.16924   0.16256   0.02165   0.00000  Uiso   1.00
C10    C     0.16993   0.16763   0.47523   0.00000  Uiso   1.00
C11    C     0.15131   0.11348   0.04074   0.00000  Uiso   1.00
C12    C     0.15189   0.06966   0.25699   0.00000  Uiso   1.00
C13    C     0.18730   0.21673   0.45592   0.00000  Uiso   1.00
C14    C     0.20675   0.25404   0.03020   0.00000  Uiso   1.00
C15    C     0.13413   0.07593   0.46567   0.00000  Uiso   1.00
C16    C     0.14032   0.05619   0.10689   0.00000  Uiso   1.00
C17    C     0.14083   0.04669   0.15584   0.00000  Uiso   1.00
C18    C     0.12887   0.32063   0.16250   0.00000  Uiso   1.00
C19    C     0.17859   0.27271   0.38796   0.00000  Uiso   1.00
C20    C     0.23545   0.29465   0.36795   0.00000  Uiso   1.00
C21    C     0.23770   0.02078   0.36360   0.00000  Uiso   1.00
C22    C     0.27625   0.33232   0.48191   0.00000  Uiso   1.00
C23    C     0.20908   0.25959   0.48397   0.00000  Uiso   1.00
C24    C     0.26722   0.05428   0.00229   0.00000  Uiso   1.00
C25    C     0.32090   0.08481   0.01604   0.00000  Uiso   1.00
C26    C     0.08782   0.31664   0.00644   0.00000  Uiso   1.00
C27    C     0.06256   0.28033   0.04248   0.00000  Uiso   1.00
C28    C     0.03506   0.22845   0.02368   0.00000  Uiso   1.00
C29    C     0.30505   0.07811   0.19633   0.00000  Uiso   1.00
C30    C     0.33024   0.03919   0.16168   0.00000  Uiso   1.00
C31    C     0.28645   0.32984   0.14625   0.00000  Uiso   1.00
C32    C     0.01906   0.23388   0.32468   0.00000  Uiso   1.00
C33    C     0.00173   0.19446   0.36082   0.00000  Uiso   1.00
C34    C     0.13449   0.06899   0.01114   0.00000  Uiso   1.00
C35    C     0.02462   0.21226   0.40573   0.00000  Uiso   1.00
C36    C     0.18949   0.32004   0.25988   0.00000  Uiso   1.00
C37    C     0.14461   0.01530   0.26554   0.00000  Uiso   1.00
C38    C     0.16789   0.17105   0.33584   0.00000  Uiso   1.00
C39    C     0.16556   0.16205   0.16358   0.00000  Uiso   1.00
C40    C     0.15195   0.11057   0.08836   0.00000  Uiso   1.00
H41    H     0.19856   0.23838   0.11505   0.00000  Uiso   1.00
H42    H     0.18250   0.05960   0.16745   0.00000  Uiso   1.00
H43    H     0.10838   0.06915   0.17454   0.00000  Uiso   1.00
H44    H     0.09794   0.04131   0.09736   0.00000  Uiso   1.00
H45    H     0.17287   0.03129   0.09081   0.00000  Uiso   1.00
H46    H     0.20255   0.03114   0.34481   0.00000  Uiso   1.00
H47    H     0.23508   0.04170   0.39715   0.00000  Uiso   1.00
H48    H     0.27786   0.03428   0.34554   0.00000  Uiso   1.00
H49    H     0.26884   0.28644   0.38932   0.00000  Uiso   1.00
H50    H     0.24357   0.27485   0.33441   0.00000  Uiso   1.00
H51    H     0.14891   0.26842   0.36107   0.00000  Uiso   1.00
H52    H     0.14051   0.09175   0.38158   0.00000  Uiso   1.00
H53    H     0.15941   0.30141   0.41228   0.00000  Uiso   1.00
H54    H     0.30693   0.00224   0.45248   0.00000  Uiso   1.00
H55    H     0.29498   0.31025   0.00675   0.00000  Uiso   1.00
H56    H     0.24850   0.07701   0.47771   0.00000  Uiso   1.00
H57    H     0.23857   0.05072   0.03266   0.00000  Uiso   1.00
H58    H     0.00674   0.06432   0.04189   0.00000  Uiso   1.00
H59    H     0.31027   0.12400   0.03072   0.00000  Uiso   1.00
H60    H     0.01758   0.09045   0.48647   0.00000  Uiso   1.00
H61    H     0.10636   0.29271   0.47796   0.00000  Uiso   1.00
H62    H     0.05429   0.00430   0.49393   0.00000  Uiso   1.00
H63    H     0.21860   0.28778   0.05223   0.00000  Uiso   1.00
H64    H     0.09597   0.27061   0.06339   0.00000  Uiso   1.00
H65    H     0.03139   0.30155   0.06423   0.00000  Uiso   1.00
H66    H     0.00033   0.23476   0.00291   0.00000  Uiso   1.00
H67    H     0.01800   0.20493   0.05208   0.00000  Uiso   1.00
H68    H     0.06624   0.20580   0.00315   0.00000  Uiso   1.00
H69    H     0.26947   0.09286   0.18144   0.00000  Uiso   1.00
H70    H     0.29291   0.05636   0.22652   0.00000  Uiso   1.00
H71    H     0.01583   0.06039   0.13249   0.00000  Uiso   1.00
H72    H     0.02830   0.01930   0.17770   0.00000  Uiso   1.00
H73    H     0.25721   0.01323   0.12507   0.00000  Uiso   1.00
H74    H     0.12301   0.04268   0.44303   0.00000  Uiso   1.00
H75    H     0.26303   0.31218   0.17554   0.00000  Uiso   1.00
H76    H     0.30715   0.29775   0.12651   0.00000  Uiso   1.00
H77    H     0.00736   0.27354   0.33711   0.00000  Uiso   1.00
H78    H     0.06458   0.24018   0.31765   0.00000  Uiso   1.00
H79    H     0.28880   0.19002   0.36583   0.00000  Uiso   1.00
H80    H     0.01625   0.15512   0.34980   0.00000  Uiso   1.00
H81    H     0.07061   0.21898   0.40219   0.00000  Uiso   1.00
H82    H     0.01319   0.18119   0.42976   0.00000  Uiso   1.00
H83    H     0.00703   0.24931   0.41940   0.00000  Uiso   1.00
H84    H     0.23207   0.00381   0.25790   0.00000  Uiso   1.00
H85    H     0.10190   0.33123   0.27079   0.00000  Uiso   1.00
H86    H     0.10293   0.31365   0.19367   0.00000  Uiso   1.00
H87    H     0.10504   0.29979   0.13561   0.00000  Uiso   1.00
H88    H     0.16851   0.30189   0.16394   0.00000  Uiso   1.00
N89    N     0.31678   0.15265   0.23783   0.00000  Uiso   1.00
N90    N     0.01656   0.18068   0.26217   0.00000  Uiso   1.00
O91    O     0.12975   0.24619   0.25298   0.00000  Uiso   1.00
O92    O     0.13038   0.01770   0.02511   0.00000  Uiso   1.00
O93    O     0.01049   0.11984   0.20798   0.00000  Uiso   1.00
O94    O     0.32393   0.21952   0.28598   0.00000  Uiso   1.00
O95    O     0.20358   0.08714   0.24702   0.00000  Uiso   1.00
O96    O     0.22613   0.23721   0.24518   0.00000  Uiso   1.00
O97    O     0.10720   0.09613   0.25481   0.00000  Uiso   1.00
O98    O     0.11847   0.17117   0.31997   0.00000  Uiso   1.00
O99    O     0.21486   0.16216   0.18003   0.00000  Uiso   1.00
O100   O     0.21485   0.16219   0.31217   0.00000  Uiso   1.00
O101   O     0.11848   0.17115   0.18782   0.00000  Uiso   1.00
O102   O     0.22495   0.30848   0.46690   0.00000  Uiso   1.00
Zn103  Zn    0.10231   0.17266   0.25521   0.00000  Uiso   1.00
Zn104  Zn    0.23102   0.16067   0.24479   0.00000  Uiso   1.00
C105   C     0.51513   0.26471   0.25254   0.00000  Uiso   1.00
C106   C     0.51508   0.22028   0.40921   0.00000  Uiso   1.00
C107   C     0.49868   0.15796   0.11489   0.00000  Uiso   1.00
C108   C     0.50235   0.17315   0.38340   0.00000  Uiso   1.00
C109   C     0.51787   0.20401   0.09461   0.00000  Uiso   1.00
C110   C     0.48654   0.12632   0.40257   0.00000  Uiso   1.00
C111   C     0.52050   0.20667   0.04874   0.00000  Uiso   1.00
C112   C     0.48503   0.12363   0.44806   0.00000  Uiso   1.00
C113   C     0.50257   0.16256   0.02165   0.00000  Uiso   1.00
C114   C     0.50326   0.16763   0.47523   0.00000  Uiso   1.00
C115   C     0.48464   0.11348   0.04074   0.00000  Uiso   1.00
C116   C     0.48523   0.06966   0.25699   0.00000  Uiso   1.00
C117   C     0.52063   0.21673   0.45592   0.00000  Uiso   1.00
C118   C     0.54009   0.25404   0.03020   0.00000  Uiso   1.00
C119   C     0.46746   0.07593   0.46567   0.00000  Uiso   1.00
C120   C     0.47365   0.05619   0.10689   0.00000  Uiso   1.00
C121   C     0.47416   0.04669   0.15584   0.00000  Uiso   1.00
C122   C     0.46220   0.32063   0.16250   0.00000  Uiso   1.00
C123   C     0.51192   0.27271   0.38796   0.00000  Uiso   1.00
C124   C     0.56878   0.29465   0.36795   0.00000  Uiso   1.00
C125   C     0.57103   0.02078   0.36360   0.00000  Uiso   1.00
C126   C     0.60958   0.33232   0.48191   0.00000  Uiso   1.00
C127   C     0.54241   0.25959   0.48397   0.00000  Uiso   1.00
C128   C     0.60055   0.05428   0.00229   0.00000  Uiso   1.00
C129   C     0.65423   0.08481   0.01604   0.00000  Uiso   1.00
C130   C     0.42116   0.31664   0.00644   0.00000  Uiso   1.00
C131   C     0.39589   0.28033   0.04248   0.00000  Uiso   1.00
C132   C     0.36840   0.22845   0.02368   0.00000  Uiso   1.00
C133   C     0.63838   0.07811   0.19633   0.00000  Uiso   1.00
C134   C     0.66357   0.03919   0.16168   0.00000  Uiso   1.00
C135   C     0.61979   0.32984   0.14625   0.00000  Uiso   1.00
C136   C     0.35239   0.23388   0.32468   0.00000  Uiso   1.00
C137   C     0.33507   0.19446   0.36082   0.00000  Uiso   1.00
C138   C     0.46783   0.06899   0.01114   0.00000  Uiso   1.00
C139   C     0.35796   0.21226   0.40573   0.00000  Uiso   1.00
C140   C     0.52283   0.32004   0.25988   0.00000  Uiso   1.00
C141   C     0.47794   0.01530   0.26554   0.00000  Uiso   1.00
C142   C     0.50122   0.17105   0.33584   0.00000  Uiso   1.00
C143   C     0.49890   0.16205   0.16358   0.00000  Uiso   1.00
C144   C     0.48528   0.11057   0.08836   0.00000  Uiso   1.00
H145   H     0.53190   0.23838   0.11505   0.00000  Uiso   1.00
H146   H     0.51584   0.05960   0.16745   0.00000  Uiso   1.00
H147   H     0.44171   0.06915   0.17454   0.00000  Uiso   1.00
H148   H     0.43128   0.04131   0.09736   0.00000  Uiso   1.00
H149   H     0.50621   0.03129   0.09081   0.00000  Uiso   1.00
H150   H     0.53588   0.03114   0.34481   0.00000  Uiso   1.00
H151   H     0.56841   0.04170   0.39715   0.00000  Uiso   1.00
H152   H     0.61120   0.03428   0.34554   0.00000  Uiso   1.00
H153   H     0.60217   0.28644   0.38932   0.00000  Uiso   1.00
H154   H     0.57691   0.27485   0.33441   0.00000  Uiso   1.00
H155   H     0.48224   0.26842   0.36107   0.00000  Uiso   1.00
H156   H     0.47384   0.09175   0.38158   0.00000  Uiso   1.00
H157   H     0.49275   0.30141   0.41228   0.00000  Uiso   1.00
H158   H     0.64026   0.00224   0.45248   0.00000  Uiso   1.00
H159   H     0.62831   0.31025   0.00675   0.00000  Uiso   1.00
H160   H     0.58184   0.07701   0.47771   0.00000  Uiso   1.00
H161   H     0.57191   0.05072   0.03266   0.00000  Uiso   1.00
H162   H     0.34008   0.06432   0.04189   0.00000  Uiso   1.00
H163   H     0.64360   0.12400   0.03072   0.00000  Uiso   1.00
H164   H     0.35091   0.09045   0.48647   0.00000  Uiso   1.00
H165   H     0.43970   0.29271   0.47796   0.00000  Uiso   1.00
H166   H     0.38762   0.00430   0.49393   0.00000  Uiso   1.00
H167   H     0.55193   0.28778   0.05223   0.00000  Uiso   1.00
H168   H     0.42930   0.27061   0.06339   0.00000  Uiso   1.00
H169   H     0.36472   0.30155   0.06423   0.00000  Uiso   1.00
H170   H     0.33366   0.23476   0.00291   0.00000  Uiso   1.00
H171   H     0.35133   0.20493   0.05208   0.00000  Uiso   1.00
H172   H     0.39958   0.20580   0.00315   0.00000  Uiso   1.00
H173   H     0.60280   0.09286   0.18144   0.00000  Uiso   1.00
H174   H     0.62625   0.05636   0.22652   0.00000  Uiso   1.00
H175   H     0.34916   0.06039   0.13249   0.00000  Uiso   1.00
H176   H     0.36164   0.01930   0.17770   0.00000  Uiso   1.00
H177   H     0.59054   0.01323   0.12507   0.00000  Uiso   1.00
H178   H     0.45634   0.04268   0.44303   0.00000  Uiso   1.00
H179   H     0.59637   0.31218   0.17554   0.00000  Uiso   1.00
H180   H     0.64048   0.29775   0.12651   0.00000  Uiso   1.00
H181   H     0.34070   0.27354   0.33711   0.00000  Uiso   1.00
H182   H     0.39792   0.24018   0.31765   0.00000  Uiso   1.00
H183   H     0.62213   0.19002   0.36583   0.00000  Uiso   1.00
H184   H     0.34959   0.15512   0.34980   0.00000  Uiso   1.00
H185   H     0.40395   0.21898   0.40219   0.00000  Uiso   1.00
H186   H     0.34652   0.18119   0.42976   0.00000  Uiso   1.00
H187   H     0.34037   0.24931   0.41940   0.00000  Uiso   1.00
H188   H     0.56540   0.00381   0.25790   0.00000  Uiso   1.00
H189   H     0.43524   0.33123   0.27079   0.00000  Uiso   1.00
H190   H     0.43626   0.31365   0.19367   0.00000  Uiso   1.00
H191   H     0.43837   0.29979   0.13561   0.00000  Uiso   1.00
H192   H     0.50184   0.30189   0.16394   0.00000  Uiso   1.00
N193   N     0.65011   0.15265   0.23783   0.00000  Uiso   1.00
N194   N     0.34989   0.18068   0.26217   0.00000  Uiso   1.00
O195   O     0.46308   0.24619   0.25298   0.00000  Uiso   1.00
O196   O     0.46372   0.01770   0.02511   0.00000  Uiso   1.00
O197   O     0.34382   0.11984   0.20798   0.00000  Uiso   1.00
O198   O     0.65726   0.21952   0.28598   0.00000  Uiso   1.00
O199   O     0.53692   0.08714   0.24702   0.00000  Uiso   1.00
O200   O     0.55946   0.23721   0.24518   0.00000  Uiso   1.00
O201   O     0.44054   0.09613   0.25481   0.00000  Uiso   1.00
O202   O     0.45181   0.17117   0.31997   0.00000  Uiso   1.00
O203   O     0.54819   0.16216   0.18003   0.00000  Uiso   1.00
O204   O     0.54819   0.16219   0.31217   0.00000  Uiso   1.00
O205   O     0.45181   0.17115   0.18782   0.00000  Uiso   1.00
O206   O     0.55828   0.30848   0.46690   0.00000  Uiso   1.00
Zn207  Zn    0.43565   0.17266   0.25521   0.00000  Uiso   1.00
Zn208  Zn    0.56435   0.16067   0.24479   0.00000  Uiso   1.00
C209   C     0.84847   0.26471   0.25254   0.00000  Uiso   1.00
C210   C     0.84842   0.22028   0.40921   0.00000  Uiso   1.00
C211   C     0.83202   0.15796   0.11489   0.00000  Uiso   1.00
C212   C     0.83568   0.17315   0.38340   0.00000  Uiso   1.00
C213   C     0.85120   0.20401   0.09461   0.00000  Uiso   1.00
C214   C     0.81988   0.12632   0.40257   0.00000  Uiso   1.00
C215   C     0.85383   0.20667   0.04874   0.00000  Uiso   1.00
C216   C     0.81836   0.12363   0.44806   0.00000  Uiso   1.00
C217   C     0.83591   0.16256   0.02165   0.00000  Uiso   1.00
C218   C     0.83659   0.16763   0.47523   0.00000  Uiso   1.00
C219   C     0.81797   0.11348   0.04074   0.00000  Uiso   1.00
C220   C     0.81856   0.06966   0.25699   0.00000  Uiso   1.00
C221   C     0.85397   0.21673   0.45592   0.00000  Uiso   1.00
C222   C     0.87342   0.25404   0.03020   0.00000  Uiso   1.00
C223   C     0.80079   0.07593   0.46567   0.00000  Uiso   1.00
C224   C     0.80698   0.05619   0.10689   0.00000  Uiso   1.00
C225   C     0.80749   0.04669   0.15584   0.00000  Uiso   1.00
C226   C     0.79553   0.32063   0.16250   0.00000  Uiso   1.00
C227   C     0.84525   0.27271   0.38796   0.00000  Uiso   1.00
C228   C     0.90211   0.29465   0.36795   0.00000  Uiso   1.00
C229   C     0.90436   0.02078   0.36360   0.00000  Uiso   1.00
C230   C     0.94292   0.33232   0.48191   0.00000  Uiso   1.00
C231   C     0.87574   0.25959   0.48397   0.00000  Uiso   1.00
C232   C     0.93388   0.05428   0.00229   0.00000  Uiso   1.00
C233   C     0.98757   0.08481   0.01604   0.00000  Uiso   1.00
C234   C     0.75449   0.31664   0.00644   0.00000  Uiso   1.00
C235   C     0.72923   0.28033   0.04248   0.00000  Uiso   1.00
C236   C     0.70173   0.22845   0.02368   0.00000  Uiso   1.00
C237   C     0.97172   0.07811   0.19633   0.00000  Uiso   1.00
C238   C     0.99691   0.03919   0.16168   0.00000  Uiso   1.00
C239   C     0.95312   0.32984   0.14625   0.00000  Uiso   1.00
C240   C     0.68572   0.23388   0.32468   0.00000  Uiso   1.00
C241   C     0.66840   0.19446   0.36082   0.00000  Uiso   1.00
C242   C     0.80116   0.06899   0.01114   0.00000  Uiso   1.00
C243   C     0.69129   0.21226   0.40573   0.00000  Uiso   1.00
C244   C     0.85616   0.32004   0.25988   0.00000  Uiso   1.00
C245   C     0.81128   0.01530   0.26554   0.00000  Uiso   1.00
C246   C     0.83455   0.17105   0.33584   0.00000  Uiso   1.00
C247   C     0.83223   0.16205   0.16358   0.00000  Uiso   1.00
C248   C     0.81862   0.11057   0.08836   0.00000  Uiso   1.00
H249   H     0.86523   0.23838   0.11505   0.00000  Uiso   1.00
H250   H     0.84917   0.05960   0.16745   0.00000  Uiso   1.00
H251   H     0.77504   0.06915   0.17454   0.00000  Uiso   1.00
H252   H     0.76461   0.04131   0.09736   0.00000  Uiso   1.00
H253   H     0.83954   0.03129   0.09081   0.00000  Uiso   1.00
H254   H     0.86921   0.03114   0.34481   0.00000  Uiso   1.00
H255   H     0.90174   0.04170   0.39715   0.00000  Uiso   1.00
H256   H     0.94453   0.03428   0.34554   0.00000  Uiso   1.00
H257   H     0.93550   0.28644   0.38932   0.00000  Uiso   1.00
H258   H     0.91024   0.27485   0.33441   0.00000  Uiso   1.00
H259   H     0.81558   0.26842   0.36107   0.00000  Uiso   1.00
H260   H     0.80717   0.09175   0.38158   0.00000  Uiso   1.00
H261   H     0.82608   0.30141   0.41228   0.00000  Uiso   1.00
H262   H     0.97360   0.00224   0.45248   0.00000  Uiso   1.00
H263   H     0.96164   0.31025   0.00675   0.00000  Uiso   1.00
H264   H     0.91517   0.07701   0.47771   0.00000  Uiso   1.00
H265   H     0.90524   0.05072   0.03266   0.00000  Uiso   1.00
H266   H     0.67341   0.06432   0.04189   0.00000  Uiso   1.00
H267   H     0.97693   0.12400   0.03072   0.00000  Uiso   1.00
H268   H     0.68425   0.09045   0.48647   0.00000  Uiso   1.00
H269   H     0.77303   0.29271   0.47796   0.00000  Uiso   1.00
H270   H     0.72095   0.00430   0.49393   0.00000  Uiso   1.00
H271   H     0.88526   0.28778   0.05223   0.00000  Uiso   1.00
H272   H     0.76264   0.27061   0.06339   0.00000  Uiso   1.00
H273   H     0.69806   0.30155   0.06423   0.00000  Uiso   1.00
H274   H     0.66700   0.23476   0.00291   0.00000  Uiso   1.00
H275   H     0.68467   0.20493   0.05208   0.00000  Uiso   1.00
H276   H     0.73291   0.20580   0.00315   0.00000  Uiso   1.00
H277   H     0.93614   0.09286   0.18144   0.00000  Uiso   1.00
H278   H     0.95958   0.05636   0.22652   0.00000  Uiso   1.00
H279   H     0.68250   0.06039   0.13249   0.00000  Uiso   1.00
H280   H     0.69497   0.01930   0.17770   0.00000  Uiso   1.00
H281   H     0.92388   0.01323   0.12507   0.00000  Uiso   1.00
H282   H     0.78968   0.04268   0.44303   0.00000  Uiso   1.00
H283   H     0.92970   0.31218   0.17554   0.00000  Uiso   1.00
H284   H     0.97382   0.29775   0.12651   0.00000  Uiso   1.00
H285   H     0.67403   0.27354   0.33711   0.00000  Uiso   1.00
H286   H     0.73125   0.24018   0.31765   0.00000  Uiso   1.00
H287   H     0.95547   0.19002   0.36583   0.00000  Uiso   1.00
H288   H     0.68292   0.15512   0.34980   0.00000  Uiso   1.00
H289   H     0.73728   0.21898   0.40219   0.00000  Uiso   1.00
H290   H     0.67985   0.18119   0.42976   0.00000  Uiso   1.00
H291   H     0.67370   0.24931   0.41940   0.00000  Uiso   1.00
H292   H     0.89873   0.00381   0.25790   0.00000  Uiso   1.00
H293   H     0.76857   0.33123   0.27079   0.00000  Uiso   1.00
H294   H     0.76959   0.31365   0.19367   0.00000  Uiso   1.00
H295   H     0.77170   0.29979   0.13561   0.00000  Uiso   1.00
H296   H     0.83517   0.30189   0.16394   0.00000  Uiso   1.00
N297   N     0.98344   0.15265   0.23783   0.00000  Uiso   1.00
N298   N     0.68322   0.18068   0.26217   0.00000  Uiso   1.00
O299   O     0.79642   0.24619   0.25298   0.00000  Uiso   1.00
O300   O     0.79705   0.01770   0.02511   0.00000  Uiso   1.00
O301   O     0.67716   0.11984   0.20798   0.00000  Uiso   1.00
O302   O     0.99059   0.21952   0.28598   0.00000  Uiso   1.00
O303   O     0.87025   0.08714   0.24702   0.00000  Uiso   1.00
O304   O     0.89280   0.23721   0.24518   0.00000  Uiso   1.00
O305   O     0.77387   0.09613   0.25481   0.00000  Uiso   1.00
O306   O     0.78514   0.17117   0.31997   0.00000  Uiso   1.00
O307   O     0.88153   0.16216   0.18003   0.00000  Uiso   1.00
O308   O     0.88152   0.16219   0.31217   0.00000  Uiso   1.00
O309   O     0.78515   0.17115   0.18782   0.00000  Uiso   1.00
O310   O     0.89161   0.30848   0.46690   0.00000  Uiso   1.00
Zn311  Zn    0.76898   0.17266   0.25521   0.00000  Uiso   1.00
Zn312  Zn    0.89769   0.16067   0.24479   0.00000  Uiso   1.00
C313   C     0.18180   0.59804   0.25254   0.00000  Uiso   1.00
C314   C     0.18175   0.55362   0.40921   0.00000  Uiso   1.00
C315   C     0.16535   0.49130   0.11489   0.00000  Uiso   1.00
C316   C     0.16901   0.50648   0.38340   0.00000  Uiso   1.00
C317   C     0.18454   0.53734   0.09461   0.00000  Uiso   1.00
C318   C     0.15321   0.45966   0.40257   0.00000  Uiso   1.00
C319   C     0.18717   0.54000   0.04874   0.00000  Uiso   1.00
C320   C     0.15169   0.45697   0.44806   0.00000  Uiso   1.00
C321   C     0.16924   0.49589   0.02165   0.00000  Uiso   1.00
C322   C     0.16993   0.50096   0.47523   0.00000  Uiso   1.00
C323   C     0.15131   0.44682   0.04074   0.00000  Uiso   1.00
C324   C     0.15189   0.40299   0.25699   0.00000  Uiso   1.00
C325   C     0.18730   0.55007   0.45592   0.00000  Uiso   1.00
C326   C     0.20675   0.58737   0.03020   0.00000  Uiso   1.00
C327   C     0.13413   0.40926   0.46567   0.00000  Uiso   1.00
C328   C     0.14032   0.38952   0.10689   0.00000  Uiso   1.00
C329   C     0.14083   0.38002   0.15584   0.00000  Uiso   1.00
C330   C     0.12887   0.65396   0.16250   0.00000  Uiso   1.00
C331   C     0.17859   0.60604   0.38796   0.00000  Uiso   1.00
C332   C     0.23545   0.62798   0.36795   0.00000  Uiso   1.00
C333   C     0.23770   0.35411   0.36360   0.00000  Uiso   1.00
C334   C     0.27625   0.66565   0.48191   0.00000  Uiso   1.00
C335   C     0.20908   0.59292   0.48397   0.00000  Uiso   1.00
C336   C     0.26722   0.38761   0.00229   0.00000  Uiso   1.00
C337   C     0.32090   0.41814   0.01604   0.00000  Uiso   1.00
C338   C     0.08782   0.64997   0.00644   0.00000  Uiso   1.00
C339   C     0.06256   0.61366   0.04248   0.00000  Uiso   1.00
C340   C     0.03506   0.56179   0.02368   0.00000  Uiso   1.00
C341   C     0.30505   0.41144   0.19633   0.00000  Uiso   1.00
C342   C     0.33024   0.37252   0.16168   0.00000  Uiso   1.00
C343   C     0.28645   0.66317   0.14625   0.00000  Uiso   1.00
C344   C     0.01906   0.56721   0.32468   0.00000  Uiso   1.00
C345   C     0.00173   0.52780   0.36082   0.00000  Uiso   1.00
C346   C     0.13449   0.40233   0.01114   0.00000  Uiso   1.00
C347   C     0.02462   0.54559   0.40573   0.00000  Uiso   1.00
C348   C     0.18949   0.65338   0.25988   0.00000  Uiso   1.00
C349   C     0.14461   0.34864   0.26554   0.00000  Uiso   1.00
C350   C     0.16789   0.50439   0.33584   0.00000  Uiso   1.00
C351   C     0.16556   0.49539   0.16358   0.00000  Uiso   1.00
C352   C     0.15195   0.44390   0.08836   0.00000  Uiso   1.00
H353   H     0.19856   0.57171   0.11505   0.00000  Uiso   1.00
H354   H     0.18250   0.39293   0.16745   0.00000  Uiso   1.00
H355   H     0.10838   0.40249   0.17454   0.00000  Uiso   1.00
H356   H     0.09794   0.37464   0.09736   0.00000  Uiso   1.00
H357   H     0.17287   0.36462   0.09081   0.00000  Uiso   1.00
H358   H     0.20255   0.36447   0.34481   0.00000  Uiso   1.00
H359   H     0.23508   0.37503   0.39715   0.00000  Uiso   1.00
H360   H     0.27786   0.36762   0.34554   0.00000  Uiso   1.00
H361   H     0.26884   0.61978   0.38932   0.00000  Uiso   1.00
H362   H     0.24357   0.60818   0.33441   0.00000  Uiso   1.00
H363   H     0.14891   0.60175   0.36107   0.00000  Uiso   1.00
H364   H     0.14051   0.42509   0.38158   0.00000  Uiso   1.00
H365   H     0.15941   0.63474   0.41228   0.00000  Uiso   1.00
H366   H     0.30693   0.33558   0.45248   0.00000  Uiso   1.00
H367   H     0.29498   0.64358   0.00675   0.00000  Uiso   1.00
H368   H     0.24850   0.41034   0.47771   0.00000  Uiso   1.00
H369   H     0.23857   0.38405   0.03266   0.00000  Uiso   1.00
H370   H     0.00674   0.39765   0.04189   0.00000  Uiso   1.00
H371   H     0.31027   0.45733   0.03072   0.00000  Uiso   1.00
H372   H     0.01758   0.42378   0.48647   0.00000  Uiso   1.00
H373   H     0.10636   0.62605   0.47796   0.00000  Uiso   1.00
H374   H     0.05429   0.33764   0.49393   0.00000  Uiso   1.00
H375   H     0.21860   0.62111   0.05223   0.00000  Uiso   1.00
H376   H     0.09597   0.60394   0.06339   0.00000  Uiso   1.00
H377   H     0.03139   0.63489   0.06423   0.00000  Uiso   1.00
H378   H     0.00033   0.56810   0.00291   0.00000  Uiso   1.00
H379   H     0.01800   0.53827   0.05208   0.00000  Uiso   1.00
H380   H     0.06624   0.53913   0.00315   0.00000  Uiso   1.00
H381   H     0.26947   0.42620   0.18144   0.00000  Uiso   1.00
H382   H     0.29291   0.38970   0.22652   0.00000  Uiso   1.00
H383   H     0.01583   0.39372   0.13249   0.00000  Uiso   1.00
H384   H     0.02830   0.35263   0.17770   0.00000  Uiso   1.00
H385   H     0.25721   0.34657   0.12507   0.00000  Uiso   1.00
H386   H     0.12301   0.37601   0.44303   0.00000  Uiso   1.00
H387   H     0.26303   0.64551   0.17554   0.00000  Uiso   1.00
H388   H     0.30715   0.63108   0.12651   0.00000  Uiso   1.00
H389   H     0.00736   0.60687   0.33711   0.00000  Uiso   1.00
H390   H     0.06458   0.57352   0.31765   0.00000  Uiso   1.00
H391   H     0.28880   0.52335   0.36583   0.00000  Uiso   1.00
H392   H     0.01625   0.48845   0.34980   0.00000  Uiso   1.00
H393   H     0.07061   0.55231   0.40219   0.00000  Uiso   1.00
H394   H     0.01319   0.51453   0.42976   0.00000  Uiso   1.00
H395   H     0.00703   0.58264   0.41940   0.00000  Uiso   1.00
H396   H     0.23207   0.33715   0.25790   0.00000  Uiso   1.00
H397   H     0.10190   0.66456   0.27079   0.00000  Uiso   1.00
H398   H     0.10293   0.64698   0.19367   0.00000  Uiso   1.00
H399   H     0.10504   0.63313   0.13561   0.00000  Uiso   1.00
H400   H     0.16851   0.63522   0.16394   0.00000  Uiso   1.00
N401   N     0.31678   0.48598   0.23783   0.00000  Uiso   1.00
N402   N     0.01656   0.51402   0.26217   0.00000  Uiso   1.00
O403   O     0.12975   0.57952   0.25298   0.00000  Uiso   1.00
O404   O     0.13038   0.35103   0.02511   0.00000  Uiso   1.00
O405   O     0.01049   0.45317   0.20798   0.00000  Uiso   1.00
O406   O     0.32393   0.55286   0.28598   0.00000  Uiso   1.00
O407   O     0.20358   0.42048   0.24702   0.00000  Uiso   1.00
O408   O     0.22613   0.57054   0.24518   0.00000  Uiso   1.00
O409   O     0.10720   0.42946   0.25481   0.00000  Uiso   1.00
O410   O     0.11847   0.50450   0.31997   0.00000  Uiso   1.00
O411   O     0.21486   0.49550   0.18003   0.00000  Uiso   1.00
O412   O     0.21485   0.49552   0.31217   0.00000  Uiso   1.00
O413   O     0.11848   0.50448   0.18782   0.00000  Uiso   1.00
O414   O     0.22495   0.64181   0.46690   0.00000  Uiso   1.00
Zn415  Zn    0.10231   0.50600   0.25521   0.00000  Uiso   1.00
Zn416  Zn    0.23102   0.49400   0.24479   0.00000  Uiso   1.00
C417   C     0.51513   0.59804   0.25254   0.00000  Uiso   1.00
C418   C     0.51508   0.55362   0.40921   0.00000  Uiso   1.00
C419   C     0.49868   0.49130   0.11489   0.00000  Uiso   1.00
C420   C     0.50235   0.50648   0.38340   0.00000  Uiso   1.00
C421   C     0.51787   0.53734   0.09461   0.00000  Uiso   1.00
C422   C     0.48654   0.45966   0.40257   0.00000  Uiso   1.00
C423   C     0.52050   0.54000   0.04874   0.00000  Uiso   1.00
C424   C     0.48503   0.45697   0.44806   0.00000  Uiso   1.00
C425   C     0.50257   0.49589   0.02165   0.00000  Uiso   1.00
C426   C     0.50326   0.50096   0.47523   0.00000  Uiso   1.00
C427   C     0.48464   0.44682   0.04074   0.00000  Uiso   1.00
C428   C     0.48523   0.40299   0.25699   0.00000  Uiso   1.00
C429   C     0.52063   0.55007   0.45592   0.00000  Uiso   1.00
C430   C     0.54009   0.58737   0.03020   0.00000  Uiso   1.00
C431   C     0.46746   0.40926   0.46567   0.00000  Uiso   1.00
C432   C     0.47365   0.38952   0.10689   0.00000  Uiso   1.00
C433   C     0.47416   0.38002   0.15584   0.00000  Uiso   1.00
C434   C     0.46220   0.65396   0.16250   0.00000  Uiso   1.00
C435   C     0.51192   0.60604   0.38796   0.00000  Uiso   1.00
C436   C     0.56878   0.62798   0.36795   0.00000  Uiso   1.00
C437   C     0.57103   0.35411   0.36360   0.00000  Uiso   1.00
C438   C     0.60958   0.66565   0.48191   0.00000  Uiso   1.00
C439   C     0.54241   0.59292   0.48397   0.00000  Uiso   1.00
C440   C     0.60055   0.38761   0.00229   0.00000  Uiso   1.00
C441   C     0.65423   0.41814   0.01604   0.00000  Uiso   1.00
C442   C     0.42116   0.64997   0.00644   0.00000  Uiso   1.00
C443   C     0.39589   0.61366   0.04248   0.00000  Uiso   1.00
C444   C     0.36840   0.56179   0.02368   0.00000  Uiso   1.00
C445   C     0.63838   0.41144   0.19633   0.00000  Uiso   1.00
C446   C     0.66357   0.37252   0.16168   0.00000  Uiso   1.00
C447   C     0.61979   0.66317   0.14625   0.00000  Uiso   1.00
C448   C     0.35239   0.56721   0.32468   0.00000  Uiso   1.00
C449   C     0.33507   0.52780   0.36082   0.00000  Uiso   1.00
C450   C     0.46783   0.40233   0.01114   0.00000  Uiso   1.00
C451   C     0.35796   0.54559   0.40573   0.00000  Uiso   1.00
C452   C     0.52283   0.65338   0.25988   0.00000  Uiso   1.00
C453   C     0.47794   0.34864   0.26554   0.00000  Uiso   1.00
C454   C     0.50122   0.50439   0.33584   0.00000  Uiso   1.00
C455   C     0.49890   0.49539   0.16358   0.00000  Uiso   1.00
C456   C     0.48528   0.44390   0.08836   0.00000  Uiso   1.00
H457   H     0.53190   0.57171   0.11505   0.00000  Uiso   1.00
H458   H     0.51584   0.39293   0.16745   0.00000  Uiso   1.00
H459   H     0.44171   0.40249   0.17454   0.00000  Uiso   1.00
H460   H     0.43128   0.37464   0.09736   0.00000  Uiso   1.00
H461   H     0.50621   0.36462   0.09081   0.00000  Uiso   1.00
H462   H     0.53588   0.36447   0.34481   0.00000  Uiso   1.00
H463   H     0.56841   0.37503   0.39715   0.00000  Uiso   1.00
H464   H     0.61120   0.36762   0.34554   0.00000  Uiso   1.00
H465   H     0.60217   0.61978   0.38932   0.00000  Uiso   1.00
H466   H     0.57691   0.60818   0.33441   0.00000  Uiso   1.00
H467   H     0.48224   0.60175   0.36107   0.00000  Uiso   1.00
H468   H     0.47384   0.42509   0.38158   0.00000  Uiso   1.00
H469   H     0.49275   0.63474   0.41228   0.00000  Uiso   1.00
H470   H     0.64026   0.33558   0.45248   0.00000  Uiso   1.00
H471   H     0.62831   0.64358   0.00675   0.00000  Uiso   1.00
H472   H     0.58184   0.41034   0.47771   0.00000  Uiso   1.00
H473   H     0.57191   0.38405   0.03266   0.00000  Uiso   1.00
H474   H     0.34008   0.39765   0.04189   0.00000  Uiso   1.00
H475   H     0.64360   0.45733   0.03072   0.00000  Uiso   1.00
H476   H     0.35091   0.42378   0.48647   0.00000  Uiso   1.00
H477   H     0.43970   0.62605   0.47796   0.00000  Uiso   1.00
H478   H     0.38762   0.33764   0.49393   0.00000  Uiso   1.00
H479   H     0.55193   0.62111   0.05223   0.00000  Uiso   1.00
H480   H     0.42930   0.60394   0.06339   0.00000  Uiso   1.00
H481   H     0.36472   0.63489   0.06423   0.00000  Uiso   1.00
H482   H     0.33366   0.56810   0.00291   0.00000  Uiso   1.00
H483   H     0.35133   0.53827   0.05208   0.00000  Uiso   1.00
H484   H     0.39958   0.53913   0.00315   0.00000  Uiso   1.00
H485   H     0.60280   0.42620   0.18144   0.00000  Uiso   1.00
H486   H     0.62625   0.38970   0.22652   0.00000  Uiso   1.00
H487   H     0.34916   0.39372   0.13249   0.00000  Uiso   1.00
H488   H     0.36164   0.35263   0.17770   0.00000  Uiso   1.00
H489   H     0.59054   0.34657   0.12507   0.00000  Uiso   1.00
H490   H     0.45634   0.37601   0.44303   0.00000  Uiso   1.00
H491   H     0.59637   0.64551   0.17554   0.00000  Uiso   1.00
H492   H     0.64048   0.63108   0.12651   0.00000  Uiso   1.00
H493   H     0.34070   0.60687   0.33711   0.00000  Uiso   1.00
H494   H     0.39792   0.57352   0.31765   0.00000  Uiso   1.00
H495   H     0.62213   0.52335   0.36583   0.00000  Uiso   1.00
H496   H     0.34959   0.48845   0.34980   0.00000  Uiso   1.00
H497   H     0.40395   0.55231   0.40219   0.00000  Uiso   1.00
H498   H     0.34652   0.51453   0.42976   0.00000  Uiso   1.00
H499   H     0.34037   0.58264   0.41940   0.00000  Uiso   1.00
H500   H     0.56540   0.33715   0.25790   0.00000  Uiso   1.00
H501   H     0.43524   0.66456   0.27079   0.00000  Uiso   1.00
H502   H     0.43626   0.64698   0.19367   0.00000  Uiso   1.00
H503   H     0.43837   0.63313   0.13561   0.00000  Uiso   1.00
H504   H     0.50184   0.63522   0.16394   0.00000  Uiso   1.00
N505   N     0.65011   0.48598   0.23783   0.00000  Uiso   1.00
N506   N     0.34989   0.51402   0.26217   0.00000  Uiso   1.00
O507   O     0.46308   0.57952   0.25298   0.00000  Uiso   1.00
O508   O     0.46372   0.35103   0.02511   0.00000  Uiso   1.00
O509   O     0.34382   0.45317   0.20798   0.00000  Uiso   1.00
O510   O     0.65726   0.55286   0.28598   0.00000  Uiso   1.00
O511   O     0.53692   0.42048   0.24702   0.00000  Uiso   1.00
O512   O     0.55946   0.57054   0.24518   0.00000  Uiso   1.00
O513   O     0.44054   0.42946   0.25481   0.00000  Uiso   1.00
O514   O     0.45181   0.50450   0.31997   0.00000  Uiso   1.00
O515   O     0.54819   0.49550   0.18003   0.00000  Uiso   1.00
O516   O     0.54819   0.49552   0.31217   0.00000  Uiso   1.00
O517   O     0.45181   0.50448   0.18782   0.00000  Uiso   1.00
O518   O     0.55828   0.64181   0.46690   0.00000  Uiso   1.00
Zn519  Zn    0.43565   0.50600   0.25521   0.00000  Uiso   1.00
Zn520  Zn    0.56435   0.49400   0.24479   0.00000  Uiso   1.00
C521   C     0.84847   0.59804   0.25254   0.00000  Uiso   1.00
C522   C     0.84842   0.55362   0.40921   0.00000  Uiso   1.00
C523   C     0.83202   0.49130   0.11489   0.00000  Uiso   1.00
C524   C     0.83568   0.50648   0.38340   0.00000  Uiso   1.00
C525   C     0.85120   0.53734   0.09461   0.00000  Uiso   1.00
C526   C     0.81988   0.45966   0.40257   0.00000  Uiso   1.00
C527   C     0.85383   0.54000   0.04874   0.00000  Uiso   1.00
C528   C     0.81836   0.45697   0.44806   0.00000  Uiso   1.00
C529   C     0.83591   0.49589   0.02165   0.00000  Uiso   1.00
C530   C     0.83659   0.50096   0.47523   0.00000  Uiso   1.00
C531   C     0.81797   0.44682   0.04074   0.00000  Uiso   1.00
C532   C     0.81856   0.40299   0.25699   0.00000  Uiso   1.00
C533   C     0.85397   0.55007   0.45592   0.00000  Uiso   1.00
C534   C     0.87342   0.58737   0.03020   0.00000  Uiso   1.00
C535   C     0.80079   0.40926   0.46567   0.00000  Uiso   1.00
C536   C     0.80698   0.38952   0.10689   0.00000  Uiso   1.00
C537   C     0.80749   0.38002   0.15584   0.00000  Uiso   1.00
C538   C     0.79553   0.65396   0.16250   0.00000  Uiso   1.00
C539   C     0.84525   0.60604   0.38796   0.00000  Uiso   1.00
C540   C     0.90211   0.62798   0.36795   0.00000  Uiso   1.00
C541   C     0.90436   0.35411   0.36360   0.00000  Uiso   1.00
C542   C     0.94292   0.66565   0.48191   0.00000  Uiso   1.00
C543   C     0.87574   0.59292   0.48397   0.00000  Uiso   1.00
C544   C     0.93388   0.38761   0.00229   0.00000  Uiso   1.00
C545   C     0.98757   0.41814   0.01604   0.00000  Uiso   1.00
C546   C     0.75449   0.64997   0.00644   0.00000  Uiso   1.00
C547   C     0.72923   0.61366   0.04248   0.00000  Uiso   1.00
C548   C     0.70173   0.56179   0.02368   0.00000  Uiso   1.00
C549   C     0.97172   0.41144   0.19633   0.00000  Uiso   1.00
C550   C     0.99691   0.37252   0.16168   0.00000  Uiso   1.00
C551   C     0.95312   0.66317   0.14625   0.00000  Uiso   1.00
C552   C     0.68572   0.56721   0.32468   0.00000  Uiso   1.00
C553   C     0.66840   0.52780   0.36082   0.00000  Uiso   1.00
C554   C     0.80116   0.40233   0.01114   0.00000  Uiso   1.00
C555   C     0.69129   0.54559   0.40573   0.00000  Uiso   1.00
C556   C     0.85616   0.65338   0.25988   0.00000  Uiso   1.00
C557   C     0.81128   0.34864   0.26554   0.00000  Uiso   1.00
C558   C     0.83455   0.50439   0.33584   0.00000  Uiso   1.00
C559   C     0.83223   0.49539   0.16358   0.00000  Uiso   1.00
C560   C     0.81862   0.44390   0.08836   0.00000  Uiso   1.00
H561   H     0.86523   0.57171   0.11505   0.00000  Uiso   1.00
H562   H     0.84917   0.39293   0.16745   0.00000  Uiso   1.00
H563   H     0.77504   0.40249   0.17454   0.00000  Uiso   1.00
H564   H     0.76461   0.37464   0.09736   0.00000  Uiso   1.00
H565   H     0.83954   0.36462   0.09081   0.00000  Uiso   1.00
H566   H     0.86921   0.36447   0.34481   0.00000  Uiso   1.00
H567   H     0.90174   0.37503   0.39715   0.00000  Uiso   1.00
H568   H     0.94453   0.36762   0.34554   0.00000  Uiso   1.00
H569   H     0.93550   0.61978   0.38932   0.00000  Uiso   1.00
H570   H     0.91024   0.60818   0.33441   0.00000  Uiso   1.00
H571   H     0.81558   0.60175   0.36107   0.00000  Uiso   1.00
H572   H     0.80717   0.42509   0.38158   0.00000  Uiso   1.00
H573   H     0.82608   0.63474   0.41228   0.00000  Uiso   1.00
H574   H     0.97360   0.33558   0.45248   0.00000  Uiso   1.00
H575   H     0.96164   0.64358   0.00675   0.00000  Uiso   1.00
H576   H     0.91517   0.41034   0.47771   0.00000  Uiso   1.00
H577   H     0.90524   0.38405   0.03266   0.00000  Uiso   1.00
H578   H     0.67341   0.39765   0.04189   0.00000  Uiso   1.00
H579   H     0.97693   0.45733   0.03072   0.00000  Uiso   1.00
H580   H     0.68425   0.42378   0.48647   0.00000  Uiso   1.00
H581   H     0.77303   0.62605   0.47796   0.00000  Uiso   1.00
H582   H     0.72095   0.33764   0.49393   0.00000  Uiso   1.00
H583   H     0.88526   0.62111   0.05223   0.00000  Uiso   1.00
H584   H     0.76264   0.60394   0.06339   0.00000  Uiso   1.00
H585   H     0.69806   0.63489   0.06423   0.00000  Uiso   1.00
H586   H     0.66700   0.56810   0.00291   0.00000  Uiso   1.00
H587   H     0.68467   0.53827   0.05208   0.00000  Uiso   1.00
H588   H     0.73291   0.53913   0.00315   0.00000  Uiso   1.00
H589   H     0.93614   0.42620   0.18144   0.00000  Uiso   1.00
H590   H     0.95958   0.38970   0.22652   0.00000  Uiso   1.00
H591   H     0.68250   0.39372   0.13249   0.00000  Uiso   1.00
H592   H     0.69497   0.35263   0.17770   0.00000  Uiso   1.00
H593   H     0.92388   0.34657   0.12507   0.00000  Uiso   1.00
H594   H     0.78968   0.37601   0.44303   0.00000  Uiso   1.00
H595   H     0.92970   0.64551   0.17554   0.00000  Uiso   1.00
H596   H     0.97382   0.63108   0.12651   0.00000  Uiso   1.00
H597   H     0.67403   0.60687   0.33711   0.00000  Uiso   1.00
H598   H     0.73125   0.57352   0.31765   0.00000  Uiso   1.00
H599   H     0.95547   0.52335   0.36583   0.00000  Uiso   1.00
H600   H     0.68292   0.48845   0.34980   0.00000  Uiso   1.00
H601   H     0.73728   0.55231   0.40219   0.00000  Uiso   1.00
H602   H     0.67985   0.51453   0.42976   0.00000  Uiso   1.00
H603   H     0.67370   0.58264   0.41940   0.00000  Uiso   1.00
H604   H     0.89873   0.33715   0.25790   0.00000  Uiso   1.00
H605   H     0.76857   0.66456   0.27079   0.00000  Uiso   1.00
H606   H     0.76959   0.64698   0.19367   0.00000  Uiso   1.00
H607   H     0.77170   0.63313   0.13561   0.00000  Uiso   1.00
H608   H     0.83517   0.63522   0.16394   0.00000  Uiso   1.00
N609   N     0.98344   0.48598   0.23783   0.00000  Uiso   1.00
N610   N     0.68322   0.51402   0.26217   0.00000  Uiso   1.00
O611   O     0.79642   0.57952   0.25298   0.00000  Uiso   1.00
O612   O     0.79705   0.35103   0.02511   0.00000  Uiso   1.00
O613   O     0.67716   0.45317   0.20798   0.00000  Uiso   1.00
O614   O     0.99059   0.55286   0.28598   0.00000  Uiso   1.00
O615   O     0.87025   0.42048   0.24702   0.00000  Uiso   1.00
O616   O     0.89280   0.57054   0.24518   0.00000  Uiso   1.00
O617   O     0.77387   0.42946   0.25481   0.00000  Uiso   1.00
O618   O     0.78514   0.50450   0.31997   0.00000  Uiso   1.00
O619   O     0.88153   0.49550   0.18003   0.00000  Uiso   1.00
O620   O     0.88152   0.49552   0.31217   0.00000  Uiso   1.00
O621   O     0.78515   0.50448   0.18782   0.00000  Uiso   1.00
O622   O     0.89161   0.64181   0.46690   0.00000  Uiso   1.00
Zn623  Zn    0.76898   0.50600   0.25521   0.00000  Uiso   1.00
Zn624  Zn    0.89769   0.49400   0.24479   0.00000  Uiso   1.00
C625   C     0.18180   0.93138   0.25254   0.00000  Uiso   1.00
C626   C     0.18175   0.88695   0.40921   0.00000  Uiso   1.00
C627   C     0.16535   0.82463   0.11489   0.00000  Uiso   1.00
C628   C     0.16901   0.83982   0.38340   0.00000  Uiso   1.00
C629   C     0.18454   0.87068   0.09461   0.00000  Uiso   1.00
C630   C     0.15321   0.79299   0.40257   0.00000  Uiso   1.00
C631   C     0.18717   0.87334   0.04874   0.00000  Uiso   1.00
C632   C     0.15169   0.79030   0.44806   0.00000  Uiso   1.00
C633   C     0.16924   0.82923   0.02165   0.00000  Uiso   1.00
C634   C     0.16993   0.83430   0.47523   0.00000  Uiso   1.00
C635   C     0.15131   0.78015   0.04074   0.00000  Uiso   1.00
C636   C     0.15189   0.73633   0.25699   0.00000  Uiso   1.00
C637   C     0.18730   0.88340   0.45592   0.00000  Uiso   1.00
C638   C     0.20675   0.92070   0.03020   0.00000  Uiso   1.00
C639   C     0.13413   0.74260   0.46567   0.00000  Uiso   1.00
C640   C     0.14032   0.72286   0.10689   0.00000  Uiso   1.00
C641   C     0.14083   0.71336   0.15584   0.00000  Uiso   1.00
C642   C     0.12887   0.98730   0.16250   0.00000  Uiso   1.00
C643   C     0.17859   0.93938   0.38796   0.00000  Uiso   1.00
C644   C     0.23545   0.96132   0.36795   0.00000  Uiso   1.00
C645   C     0.23770   0.68744   0.36360   0.00000  Uiso   1.00
C646   C     0.27625   0.99899   0.48191   0.00000  Uiso   1.00
C647   C     0.20908   0.92626   0.48397   0.00000  Uiso   1.00
C648   C     0.26722   0.72095   0.00229   0.00000  Uiso   1.00
C649   C     0.32090   0.75147   0.01604   0.00000  Uiso   1.00
C650   C     0.08782   0.98330   0.00644   0.00000  Uiso   1.00
C651   C     0.06256   0.94700   0.04248   0.00000  Uiso   1.00
C652   C     0.03506   0.89512   0.02368   0.00000  Uiso   1.00
C653   C     0.30505   0.74478   0.19633   0.00000  Uiso   1.00
C654   C     0.33024   0.70585   0.16168   0.00000  Uiso   1.00
C655   C     0.28645   0.99651   0.14625   0.00000  Uiso   1.00
C656   C     0.01906   0.90055   0.32468   0.00000  Uiso   1.00
C657   C     0.00173   0.86113   0.36082   0.00000  Uiso   1.00
C658   C     0.13449   0.73566   0.01114   0.00000  Uiso   1.00
C659   C     0.02462   0.87892   0.40573   0.00000  Uiso   1.00
C660   C     0.18949   0.98671   0.25988   0.00000  Uiso   1.00
C661   C     0.14461   0.68197   0.26554   0.00000  Uiso   1.00
C662   C     0.16789   0.83772   0.33584   0.00000  Uiso   1.00
C663   C     0.16556   0.82872   0.16358   0.00000  Uiso   1.00
C664   C     0.15195   0.77724   0.08836   0.00000  Uiso   1.00
H665   H     0.19856   0.90504   0.11505   0.00000  Uiso   1.00
H666   H     0.18250   0.72626   0.16745   0.00000  Uiso   1.00
H667   H     0.10838   0.73582   0.17454   0.00000  Uiso   1.00
H668   H     0.09794   0.70797   0.09736   0.00000  Uiso   1.00
H669   H     0.17287   0.69796   0.09081   0.00000  Uiso   1.00
H670   H     0.20255   0.69781   0.34481   0.00000  Uiso   1.00
H671   H     0.23508   0.70836   0.39715   0.00000  Uiso   1.00
H672   H     0.27786   0.70095   0.34554   0.00000  Uiso   1.00
H673   H     0.26884   0.95311   0.38932   0.00000  Uiso   1.00
H674   H     0.24357   0.94151   0.33441   0.00000  Uiso   1.00
H675   H     0.14891   0.93509   0.36107   0.00000  Uiso   1.00
H676   H     0.14051   0.75842   0.38158   0.00000  Uiso   1.00
H677   H     0.15941   0.96807   0.41228   0.00000  Uiso   1.00
H678   H     0.30693   0.66891   0.45248   0.00000  Uiso   1.00
H679   H     0.29498   0.97691   0.00675   0.00000  Uiso   1.00
H680   H     0.24850   0.74368   0.47771   0.00000  Uiso   1.00
H681   H     0.23857   0.71739   0.03266   0.00000  Uiso   1.00
H682   H     0.00674   0.73098   0.04189   0.00000  Uiso   1.00
H683   H     0.31027   0.79067   0.03072   0.00000  Uiso   1.00
H684   H     0.01758   0.75711   0.48647   0.00000  Uiso   1.00
H685   H     0.10636   0.95938   0.47796   0.00000  Uiso   1.00
H686   H     0.05429   0.67097   0.49393   0.00000  Uiso   1.00
H687   H     0.21860   0.95445   0.05223   0.00000  Uiso   1.00
H688   H     0.09597   0.93727   0.06339   0.00000  Uiso   1.00
H689   H     0.03139   0.96822   0.06423   0.00000  Uiso   1.00
H690   H     0.00033   0.90143   0.00291   0.00000  Uiso   1.00
H691   H     0.01800   0.87160   0.05208   0.00000  Uiso   1.00
H692   H     0.06624   0.87247   0.00315   0.00000  Uiso   1.00
H693   H     0.26947   0.75953   0.18144   0.00000  Uiso   1.00
H694   H     0.29291   0.72303   0.22652   0.00000  Uiso   1.00
H695   H     0.01583   0.72705   0.13249   0.00000  Uiso   1.00
H696   H     0.02830   0.68597   0.17770   0.00000  Uiso   1.00
H697   H     0.25721   0.67990   0.12507   0.00000  Uiso   1.00
H698   H     0.12301   0.70935   0.44303   0.00000  Uiso   1.00
H699   H     0.26303   0.97884   0.17554   0.00000  Uiso   1.00
H700   H     0.30715   0.96442   0.12651   0.00000  Uiso   1.00
H701   H     0.00736   0.94020   0.33711   0.00000  Uiso   1.00
H702   H     0.06458   0.90685   0.31765   0.00000  Uiso   1.00
H703   H     0.28880   0.85668   0.36583   0.00000  Uiso   1.00
H704   H     0.01625   0.82179   0.34980   0.00000  Uiso   1.00
H705   H     0.07061   0.88565   0.40219   0.00000  Uiso   1.00
H706   H     0.01319   0.84786   0.42976   0.00000  Uiso   1.00
H707   H     0.00703   0.91597   0.41940   0.00000  Uiso   1.00
H708   H     0.23207   0.67048   0.25790   0.00000  Uiso   1.00
H709   H     0.10190   0.99789   0.27079   0.00000  Uiso   1.00
H710   H     0.10293   0.98031   0.19367   0.00000  Uiso   1.00
H711   H     0.10504   0.96646   0.13561   0.00000  Uiso   1.00
H712   H     0.16851   0.96855   0.16394   0.00000  Uiso   1.00
N713   N     0.31678   0.81932   0.23783   0.00000  Uiso   1.00
N714   N     0.01656   0.84735   0.26217   0.00000  Uiso   1.00
O715   O     0.12975   0.91286   0.25298   0.00000  Uiso   1.00
O716   O     0.13038   0.68437   0.02511   0.00000  Uiso   1.00
O717   O     0.01049   0.78651   0.20798   0.00000  Uiso   1.00
O718   O     0.32393   0.88619   0.28598   0.00000  Uiso   1.00
O719   O     0.20358   0.75381   0.24702   0.00000  Uiso   1.00
O720   O     0.22613   0.90387   0.24518   0.00000  Uiso   1.00
O721   O     0.10720   0.76279   0.25481   0.00000  Uiso   1.00
O722   O     0.11847   0.83784   0.31997   0.00000  Uiso   1.00
O723   O     0.21486   0.82883   0.18003   0.00000  Uiso   1.00
O724   O     0.21485   0.82885   0.31217   0.00000  Uiso   1.00
O725   O     0.11848   0.83781   0.18782   0.00000  Uiso   1.00
O726   O     0.22495   0.97515   0.46690   0.00000  Uiso   1.00
Zn727  Zn    0.10231   0.83933   0.25521   0.00000  Uiso   1.00
Zn728  Zn    0.23102   0.82734   0.24479   0.00000  Uiso   1.00
C729   C     0.51513   0.93138   0.25254   0.00000  Uiso   1.00
C730   C     0.51508   0.88695   0.40921   0.00000  Uiso   1.00
C731   C     0.49868   0.82463   0.11489   0.00000  Uiso   1.00
C732   C     0.50235   0.83982   0.38340   0.00000  Uiso   1.00
C733   C     0.51787   0.87068   0.09461   0.00000  Uiso   1.00
C734   C     0.48654   0.79299   0.40257   0.00000  Uiso   1.00
C735   C     0.52050   0.87334   0.04874   0.00000  Uiso   1.00
C736   C     0.48503   0.79030   0.44806   0.00000  Uiso   1.00
C737   C     0.50257   0.82923   0.02165   0.00000  Uiso   1.00
C738   C     0.50326   0.83430   0.47523   0.00000  Uiso   1.00
C739   C     0.48464   0.78015   0.04074   0.00000  Uiso   1.00
C740   C     0.48523   0.73633   0.25699   0.00000  Uiso   1.00
C741   C     0.52063   0.88340   0.45592   0.00000  Uiso   1.00
C742   C     0.54009   0.92070   0.03020   0.00000  Uiso   1.00
C743   C     0.46746   0.74260   0.46567   0.00000  Uiso   1.00
C744   C     0.47365   0.72286   0.10689   0.00000  Uiso   1.00
C745   C     0.47416   0.71336   0.15584   0.00000  Uiso   1.00
C746   C     0.46220   0.98730   0.16250   0.00000  Uiso   1.00
C747   C     0.51192   0.93938   0.38796   0.00000  Uiso   1.00
C748   C     0.56878   0.96132   0.36795   0.00000  Uiso   1.00
C749   C     0.57103   0.68744   0.36360   0.00000  Uiso   1.00
C750   C     0.60958   0.99899   0.48191   0.00000  Uiso   1.00
C751   C     0.54241   0.92626   0.48397   0.00000  Uiso   1.00
C752   C     0.60055   0.72095   0.00229   0.00000  Uiso   1.00
C753   C     0.65423   0.75147   0.01604   0.00000  Uiso   1.00
C754   C     0.42116   0.98330   0.00644   0.00000  Uiso   1.00
C755   C     0.39589   0.94700   0.04248   0.00000  Uiso   1.00
C756   C     0.36840   0.89512   0.02368   0.00000  Uiso   1.00
C757   C     0.63838   0.74478   0.19633   0.00000  Uiso   1.00
C758   C     0.66357   0.70585   0.16168   0.00000  Uiso   1.00
C759   C     0.61979   0.99651   0.14625   0.00000  Uiso   1.00
C760   C     0.35239   0.90055   0.32468   0.00000  Uiso   1.00
C761   C     0.33507   0.86113   0.36082   0.00000  Uiso   1.00
C762   C     0.46783   0.73566   0.01114   0.00000  Uiso   1.00
C763   C     0.35796   0.87892   0.40573   0.00000  Uiso   1.00
C764   C     0.52283   0.98671   0.25988   0.00000  Uiso   1.00
C765   C     0.47794   0.68197   0.26554   0.00000  Uiso   1.00
C766   C     0.50122   0.83772   0.33584   0.00000  Uiso   1.00
C767   C     0.49890   0.82872   0.16358   0.00000  Uiso   1.00
C768   C     0.48528   0.77724   0.08836   0.00000  Uiso   1.00
H769   H     0.53190   0.90504   0.11505   0.00000  Uiso   1.00
H770   H     0.51584   0.72626   0.16745   0.00000  Uiso   1.00
H771   H     0.44171   0.73582   0.17454   0.00000  Uiso   1.00
H772   H     0.43128   0.70797   0.09736   0.00000  Uiso   1.00
H773   H     0.50621   0.69796   0.09081   0.00000  Uiso   1.00
H774   H     0.53588   0.69781   0.34481   0.00000  Uiso   1.00
H775   H     0.56841   0.70836   0.39715   0.00000  Uiso   1.00
H776   H     0.61120   0.70095   0.34554   0.00000  Uiso   1.00
H777   H     0.60217   0.95311   0.38932   0.00000  Uiso   1.00
H778   H     0.57691   0.94151   0.33441   0.00000  Uiso   1.00
H779   H     0.48224   0.93509   0.36107   0.00000  Uiso   1.00
H780   H     0.47384   0.75842   0.38158   0.00000  Uiso   1.00
H781   H     0.49275   0.96807   0.41228   0.00000  Uiso   1.00
H782   H     0.64026   0.66891   0.45248   0.00000  Uiso   1.00
H783   H     0.62831   0.97691   0.00675   0.00000  Uiso   1.00
H784   H     0.58184   0.74368   0.47771   0.00000  Uiso   1.00
H785   H     0.57191   0.71739   0.03266   0.00000  Uiso   1.00
H786   H     0.34008   0.73098   0.04189   0.00000  Uiso   1.00
H787   H     0.64360   0.79067   0.03072   0.00000  Uiso   1.00
H788   H     0.35091   0.75711   0.48647   0.00000  Uiso   1.00
H789   H     0.43970   0.95938   0.47796   0.00000  Uiso   1.00
H790   H     0.38762   0.67097   0.49393   0.00000  Uiso   1.00
H791   H     0.55193   0.95445   0.05223   0.00000  Uiso   1.00
H792   H     0.42930   0.93727   0.06339   0.00000  Uiso   1.00
H793   H     0.36472   0.96822   0.06423   0.00000  Uiso   1.00
H794   H     0.33366   0.90143   0.00291   0.00000  Uiso   1.00
H795   H     0.35133   0.87160   0.05208   0.00000  Uiso   1.00
H796   H     0.39958   0.87247   0.00315   0.00000  Uiso   1.00
H797   H     0.60280   0.75953   0.18144   0.00000  Uiso   1.00
H798   H     0.62625   0.72303   0.22652   0.00000  Uiso   1.00
H799   H     0.34916   0.72705   0.13249   0.00000  Uiso   1.00
H800   H     0.36164   0.68597   0.17770   0.00000  Uiso   1.00
H801   H     0.59054   0.67990   0.12507   0.00000  Uiso   1.00
H802   H     0.45634   0.70935   0.44303   0.00000  Uiso   1.00
H803   H     0.59637   0.97884   0.17554   0.00000  Uiso   1.00
H804   H     0.64048   0.96442   0.12651   0.00000  Uiso   1.00
H805   H     0.34070   0.94020   0.33711   0.00000  Uiso   1.00
H806   H     0.39792   0.90685   0.31765   0.00000  Uiso   1.00
H807   H     0.62213   0.85668   0.36583   0.00000  Uiso   1.00
H808   H     0.34959   0.82179   0.34980   0.00000  Uiso   1.00
H809   H     0.40395   0.88565   0.40219   0.00000  Uiso   1.00
H810   H     0.34652   0.84786   0.42976   0.00000  Uiso   1.00
H811   H     0.34037   0.91597   0.41940   0.00000  Uiso   1.00
H812   H     0.56540   0.67048   0.25790   0.00000  Uiso   1.00
H813   H     0.43524   0.99789   0.27079   0.00000  Uiso   1.00
H814   H     0.43626   0.98031   0.19367   0.00000  Uiso   1.00
H815   H     0.43837   0.96646   0.13561   0.00000  Uiso   1.00
H816   H     0.50184   0.96855   0.16394   0.00000  Uiso   1.00
N817   N     0.65011   0.81932   0.23783   0.00000  Uiso   1.00
N818   N     0.34989   0.84735   0.26217   0.00000  Uiso   1.00
O819   O     0.46308   0.91286   0.25298   0.00000  Uiso   1.00
O820   O     0.46372   0.68437   0.02511   0.00000  Uiso   1.00
O821   O     0.34382   0.78651   0.20798   0.00000  Uiso   1.00
O822   O     0.65726   0.88619   0.28598   0.00000  Uiso   1.00
O823   O     0.53692   0.75381   0.24702   0.00000  Uiso   1.00
O824   O     0.55946   0.90387   0.24518   0.00000  Uiso   1.00
O825   O     0.44054   0.76279   0.25481   0.00000  Uiso   1.00
O826   O     0.45181   0.83784   0.31997   0.00000  Uiso   1.00
O827   O     0.54819   0.82883   0.18003   0.00000  Uiso   1.00
O828   O     0.54819   0.82885   0.31217   0.00000  Uiso   1.00
O829   O     0.45181   0.83781   0.18782   0.00000  Uiso   1.00
O830   O     0.55828   0.97515   0.46690   0.00000  Uiso   1.00
Zn831  Zn    0.43565   0.83933   0.25521   0.00000  Uiso   1.00
Zn832  Zn    0.56435   0.82734   0.24479   0.00000  Uiso   1.00
C833   C     0.84847   0.93138   0.25254   0.00000  Uiso   1.00
C834   C     0.84842   0.88695   0.40921   0.00000  Uiso   1.00
C835   C     0.83202   0.82463   0.11489   0.00000  Uiso   1.00
C836   C     0.83568   0.83982   0.38340   0.00000  Uiso   1.00
C837   C     0.85120   0.87068   0.09461   0.00000  Uiso   1.00
C838   C     0.81988   0.79299   0.40257   0.00000  Uiso   1.00
C839   C     0.85383   0.87334   0.04874   0.00000  Uiso   1.00
C840   C     0.81836   0.79030   0.44806   0.00000  Uiso   1.00
C841   C     0.83591   0.82923   0.02165   0.00000  Uiso   1.00
C842   C     0.83659   0.83430   0.47523   0.00000  Uiso   1.00
C843   C     0.81797   0.78015   0.04074   0.00000  Uiso   1.00
C844   C     0.81856   0.73633   0.25699   0.00000  Uiso   1.00
C845   C     0.85397   0.88340   0.45592   0.00000  Uiso   1.00
C846   C     0.87342   0.92070   0.03020   0.00000  Uiso   1.00
C847   C     0.80079   0.74260   0.46567   0.00000  Uiso   1.00
C848   C     0.80698   0.72286   0.10689   0.00000  Uiso   1.00
C849   C     0.80749   0.71336   0.15584   0.00000  Uiso   1.00
C850   C     0.79553   0.98730   0.16250   0.00000  Uiso   1.00
C851   C     0.84525   0.93938   0.38796   0.00000  Uiso   1.00
C852   C     0.90211   0.96132   0.36795   0.00000  Uiso   1.00
C853   C     0.90436   0.68744   0.36360   0.00000  Uiso   1.00
C854   C     0.94292   0.99899   0.48191   0.00000  Uiso   1.00
C855   C     0.87574   0.92626   0.48397   0.00000  Uiso   1.00
C856   C     0.93388   0.72095   0.00229   0.00000  Uiso   1.00
C857   C     0.98757   0.75147   0.01604   0.00000  Uiso   1.00
C858   C     0.75449   0.98330   0.00644   0.00000  Uiso   1.00
C859   C     0.72923   0.94700   0.04248   0.00000  Uiso   1.00
C860   C     0.70173   0.89512   0.02368   0.00000  Uiso   1.00
C861   C     0.97172   0.74478   0.19633   0.00000  Uiso   1.00
C862   C     0.99691   0.70585   0.16168   0.00000  Uiso   1.00
C863   C     0.95312   0.99651   0.14625   0.00000  Uiso   1.00
C864   C     0.68572   0.90055   0.32468   0.00000  Uiso   1.00
C865   C     0.66840   0.86113   0.36082   0.00000  Uiso   1.00
C866   C     0.80116   0.73566   0.01114   0.00000  Uiso   1.00
C867   C     0.69129   0.87892   0.40573   0.00000  Uiso   1.00
C868   C     0.85616   0.98671   0.25988   0.00000  Uiso   1.00
C869   C     0.81128   0.68197   0.26554   0.00000  Uiso   1.00
C870   C     0.83455   0.83772   0.33584   0.00000  Uiso   1.00
C871   C     0.83223   0.82872   0.16358   0.00000  Uiso   1.00
C872   C     0.81862   0.77724   0.08836   0.00000  Uiso   1.00
H873   H     0.86523   0.90504   0.11505   0.00000  Uiso   1.00
H874   H     0.84917   0.72626   0.16745   0.00000  Uiso   1.00
H875   H     0.77504   0.73582   0.17454   0.00000  Uiso   1.00
H876   H     0.76461   0.70797   0.09736   0.00000  Uiso   1.00
H877   H     0.83954   0.69796   0.09081   0.00000  Uiso   1.00
H878   H     0.86921   0.69781   0.34481   0.00000  Uiso   1.00
H879   H     0.90174   0.70836   0.39715   0.00000  Uiso   1.00
H880   H     0.94453   0.70095   0.34554   0.00000  Uiso   1.00
H881   H     0.93550   0.95311   0.38932   0.00000  Uiso   1.00
H882   H     0.91024   0.94151   0.33441   0.00000  Uiso   1.00
H883   H     0.81558   0.93509   0.36107   0.00000  Uiso   1.00
H884   H     0.80717   0.75842   0.38158   0.00000  Uiso   1.00
H885   H     0.82608   0.96807   0.41228   0.00000  Uiso   1.00
H886   H     0.97360   0.66891   0.45248   0.00000  Uiso   1.00
H887   H     0.96164   0.97691   0.00675   0.00000  Uiso   1.00
H888   H     0.91517   0.74368   0.47771   0.00000  Uiso   1.00
H889   H     0.90524   0.71739   0.03266   0.00000  Uiso   1.00
H890   H     0.67341   0.73098   0.04189   0.00000  Uiso   1.00
H891   H     0.97693   0.79067   0.03072   0.00000  Uiso   1.00
H892   H     0.68425   0.75711   0.48647   0.00000  Uiso   1.00
H893   H     0.77303   0.95938   0.47796   0.00000  Uiso   1.00
H894   H     0.72095   0.67097   0.49393   0.00000  Uiso   1.00
H895   H     0.88526   0.95445   0.05223   0.00000  Uiso   1.00
H896   H     0.76264   0.93727   0.06339   0.00000  Uiso   1.00
H897   H     0.69806   0.96822   0.06423   0.00000  Uiso   1.00
H898   H     0.66700   0.90143   0.00291   0.00000  Uiso   1.00
H899   H     0.68467   0.87160   0.05208   0.00000  Uiso   1.00
H900   H     0.73291   0.87247   0.00315   0.00000  Uiso   1.00
H901   H     0.93614   0.75953   0.18144   0.00000  Uiso   1.00
H902   H     0.95958   0.72303   0.22652   0.00000  Uiso   1.00
H903   H     0.68250   0.72705   0.13249   0.00000  Uiso   1.00
H904   H     0.69497   0.68597   0.17770   0.00000  Uiso   1.00
H905   H     0.92388   0.67990   0.12507   0.00000  Uiso   1.00
H906   H     0.78968   0.70935   0.44303   0.00000  Uiso   1.00
H907   H     0.92970   0.97884   0.17554   0.00000  Uiso   1.00
H908   H     0.97382   0.96442   0.12651   0.00000  Uiso   1.00
H909   H     0.67403   0.94020   0.33711   0.00000  Uiso   1.00
H910   H     0.73125   0.90685   0.31765   0.00000  Uiso   1.00
H911   H     0.95547   0.85668   0.36583   0.00000  Uiso   1.00
H912   H     0.68292   0.82179   0.34980   0.00000  Uiso   1.00
H913   H     0.73728   0.88565   0.40219   0.00000  Uiso   1.00
H914   H     0.67985   0.84786   0.42976   0.00000  Uiso   1.00
H915   H     0.67370   0.91597   0.41940   0.00000  Uiso   1.00
H916   H     0.89873   0.67048   0.25790   0.00000  Uiso   1.00
H917   H     0.76857   0.99789   0.27079   0.00000  Uiso   1.00
H918   H     0.76959   0.98031   0.19367   0.00000  Uiso   1.00
H919   H     0.77170   0.96646   0.13561   0.00000  Uiso   1.00
H920   H     0.83517   0.96855   0.16394   0.00000  Uiso   1.00
N921   N     0.98344   0.81932   0.23783   0.00000  Uiso   1.00
N922   N     0.68322   0.84735   0.26217   0.00000  Uiso   1.00
O923   O     0.79642   0.91286   0.25298   0.00000  Uiso   1.00
O924   O     0.79705   0.68437   0.02511   0.00000  Uiso   1.00
O925   O     0.67716   0.78651   0.20798   0.00000  Uiso   1.00
O926   O     0.99059   0.88619   0.28598   0.00000  Uiso   1.00
O927   O     0.87025   0.75381   0.24702   0.00000  Uiso   1.00
O928   O     0.89280   0.90387   0.24518   0.00000  Uiso   1.00
O929   O     0.77387   0.76279   0.25481   0.00000  Uiso   1.00
O930   O     0.78514   0.83784   0.31997   0.00000  Uiso   1.00
O931   O     0.88153   0.82883   0.18003   0.00000  Uiso   1.00
O932   O     0.88152   0.82885   0.31217   0.00000  Uiso   1.00
O933   O     0.78515   0.83781   0.18782   0.00000  Uiso   1.00
O934   O     0.89161   0.97515   0.46690   0.00000  Uiso   1.00
Zn935  Zn    0.76898   0.83933   0.25521   0.00000  Uiso   1.00
Zn936  Zn    0.89769   0.82734   0.24479   0.00000  Uiso   1.00
C937   C     0.18180   0.26471   0.75254   0.00000  Uiso   1.00
C938   C     0.18175   0.22028   0.90921   0.00000  Uiso   1.00
C939   C     0.16535   0.15796   0.61489   0.00000  Uiso   1.00
C940   C     0.16901   0.17315   0.88340   0.00000  Uiso   1.00
C941   C     0.18454   0.20401   0.59461   0.00000  Uiso   1.00
C942   C     0.15321   0.12632   0.90257   0.00000  Uiso   1.00
C943   C     0.18717   0.20667   0.54874   0.00000  Uiso   1.00
C944   C     0.15169   0.12363   0.94806   0.00000  Uiso   1.00
C945   C     0.16924   0.16256   0.52165   0.00000  Uiso   1.00
C946   C     0.16993   0.16763   0.97523   0.00000  Uiso   1.00
C947   C     0.15131   0.11348   0.54074   0.00000  Uiso   1.00
C948   C     0.15189   0.06966   0.75699   0.00000  Uiso   1.00
C949   C     0.18730   0.21673   0.95592   0.00000  Uiso   1.00
C950   C     0.20675   0.25404   0.53020   0.00000  Uiso   1.00
C951   C     0.13413   0.07593   0.96567   0.00000  Uiso   1.00
C952   C     0.14032   0.05619   0.60689   0.00000  Uiso   1.00
C953   C     0.14083   0.04669   0.65584   0.00000  Uiso   1.00
C954   C     0.12887   0.32063   0.66250   0.00000  Uiso   1.00
C955   C     0.17859   0.27271   0.88796   0.00000  Uiso   1.00
C956   C     0.23545   0.29465   0.86795   0.00000  Uiso   1.00
C957   C     0.23770   0.02078   0.86360   0.00000  Uiso   1.00
C958   C     0.27625   0.33232   0.98191   0.00000  Uiso   1.00
C959   C     0.20908   0.25959   0.98397   0.00000  Uiso   1.00
C960   C     0.26722   0.05428   0.50229   0.00000  Uiso   1.00
C961   C     0.32090   0.08481   0.51604   0.00000  Uiso   1.00
C962   C     0.08782   0.31664   0.50644   0.00000  Uiso   1.00
C963   C     0.06256   0.28033   0.54248   0.00000  Uiso   1.00
C964   C     0.03506   0.22845   0.52368   0.00000  Uiso   1.00
C965   C     0.30505   0.07811   0.69633   0.00000  Uiso   1.00
C966   C     0.33024   0.03919   0.66168   0.00000  Uiso   1.00
C967   C     0.28645   0.32984   0.64625   0.00000  Uiso   1.00
C968   C     0.01906   0.23388   0.82468   0.00000  Uiso   1.00
C969   C     0.00173   0.19446   0.86082   0.00000  Uiso   1.00
C970   C     0.13449   0.06899   0.51114   0.00000  Uiso   1.00
C971   C     0.02462   0.21226   0.90573   0.00000  Uiso   1.00
C972   C     0.18949   0.32004   0.75988   0.00000  Uiso   1.00
C973   C     0.14461   0.01530   0.76554   0.00000  Uiso   1.00
C974   C     0.16789   0.17105   0.83584   0.00000  Uiso   1.00
C975   C     0.16556   0.16205   0.66358   0.00000  Uiso   1.00
C976   C     0.15195   0.11057   0.58836   0.00000  Uiso   1.00
H977   H     0.19856   0.23838   0.61505   0.00000  Uiso   1.00
H978   H     0.18250   0.05960   0.66745   0.00000  Uiso   1.00
H979   H     0.10838   0.06915   0.67454   0.00000  Uiso   1.00
H980   H     0.09794   0.04131   0.59736   0.00000  Uiso   1.00
H981   H     0.17287   0.03129   0.59081   0.00000  Uiso   1.00
H982   H     0.20255   0.03114   0.84481   0.00000  Uiso   1.00
H983   H     0.23508   0.04170   0.89715   0.00000  Uiso   1.00
H984   H     0.27786   0.03428   0.84554   0.00000  Uiso   1.00
H985   H     0.26884   0.28644   0.88932   0.00000  Uiso   1.00
H986   H     0.24357   0.27485   0.83441   0.00000  Uiso   1.00
H987   H     0.14891   0.26842   0.86107   0.00000  Uiso   1.00
H988   H     0.14051   0.09175   0.88158   0.00000  Uiso   1.00
H989   H     0.15941   0.30141   0.91228   0.00000  Uiso   1.00
H990   H     0.30693   0.00224   0.95248   0.00000  Uiso   1.00
H991   H     0.29498   0.31025   0.50675   0.00000  Uiso   1.00
H992   H     0.24850   0.07701   0.97771   0.00000  Uiso   1.00
H993   H     0.23857   0.05072   0.53266   0.00000  Uiso   1.00
H994   H     0.00674   0.06432   0.54189   0.00000  Uiso   1.00
H995   H     0.31027   0.12400   0.53072   0.00000  Uiso   1.00
H996   H     0.01758   0.09045   0.98647   0.00000  Uiso   1.00
H997   H     0.10636   0.29271   0.97796   0.00000  Uiso   1.00
H998   H     0.05429   0.00430   0.99393   0.00000  Uiso   1.00
H999   H     0.21860   0.28778   0.55223   0.00000  Uiso   1.00
H1000  H     0.09597   0.27061   0.56339   0.00000  Uiso   1.00
H1001  H     0.03139   0.30155   0.56423   0.00000  Uiso   1.00
H1002  H     0.00033   0.23476   0.50291   0.00000  Uiso   1.00
H1003  H     0.01800   0.20493   0.55208   0.00000  Uiso   1.00
H1004  H     0.06624   0.20580   0.50315   0.00000  Uiso   1.00
H1005  H     0.26947   0.09286   0.68144   0.00000  Uiso   1.00
H1006  H     0.29291   0.05636   0.72652   0.00000  Uiso   1.00
H1007  H     0.01583   0.06039   0.63249   0.00000  Uiso   1.00
H1008  H     0.02830   0.01930   0.67770   0.00000  Uiso   1.00
H1009  H     0.25721   0.01323   0.62507   0.00000  Uiso   1.00
H1010  H     0.12301   0.04268   0.94303   0.00000  Uiso   1.00
H1011  H     0.26303   0.31218   0.67554   0.00000  Uiso   1.00
H1012  H     0.30715   0.29775   0.62651   0.00000  Uiso   1.00
H1013  H     0.00736   0.27354   0.83711   0.00000  Uiso   1.00
H1014  H     0.06458   0.24018   0.81765   0.00000  Uiso   1.00
H1015  H     0.28880   0.19002   0.86583   0.00000  Uiso   1.00
H1016  H     0.01625   0.15512   0.84980   0.00000  Uiso   1.00
H1017  H     0.07061   0.21898   0.90219   0.00000  Uiso   1.00
H1018  H     0.01319   0.18119   0.92976   0.00000  Uiso   1.00
H1019  H     0.00703   0.24931   0.91940   0.00000  Uiso   1.00
H1020  H     0.23207   0.00381   0.75790   0.00000  Uiso   1.00
H1021  H     0.10190   0.33123   0.77079   0.00000  Uiso   1.00
H1022  H     0.10293   0.31365   0.69367   0.00000  Uiso   1.00
H1023  H     0.10504   0.29979   0.63561   0.00000  Uiso   1.00
H1024  H     0.16851   0.30189   0.66394   0.00000  Uiso   1.00
N1025  N     0.31678   0.15265   0.73783   0.00000  Uiso   1.00
N1026  N     0.01656   0.18068   0.76217   0.00000  Uiso   1.00
O1027  O     0.12975   0.24619   0.75298   0.00000  Uiso   1.00
O1028  O     0.13038   0.01770   0.52511   0.00000  Uiso   1.00
O1029  O     0.01049   0.11984   0.70798   0.00000  Uiso   1.00
O1030  O     0.32393   0.21952   0.78598   0.00000  Uiso   1.00
O1031  O     0.20358   0.08714   0.74702   0.00000  Uiso   1.00
O1032  O     0.22613   0.23721   0.74518   0.00000  Uiso   1.00
O1033  O     0.10720   0.09613   0.75481   0.00000  Uiso   1.00
O1034  O     0.11847   0.17117   0.81997   0.00000  Uiso   1.00
O1035  O     0.21486   0.16216   0.68003   0.00000  Uiso   1.00
O1036  O     0.21485   0.16219   0.81217   0.00000  Uiso   1.00
O1037  O     0.11848   0.17115   0.68782   0.00000  Uiso   1.00
O1038  O     0.22495   0.30848   0.96690   0.00000  Uiso   1.00
Zn1039 Zn    0.10231   0.17266   0.75521   0.00000  Uiso   1.00
Zn1040 Zn    0.23102   0.16067   0.74479   0.00000  Uiso   1.00
C1041  C     0.51513   0.26471   0.75254   0.00000  Uiso   1.00
C1042  C     0.51508   0.22028   0.90921   0.00000  Uiso   1.00
C1043  C     0.49868   0.15796   0.61489   0.00000  Uiso   1.00
C1044  C     0.50235   0.17315   0.88340   0.00000  Uiso   1.00
C1045  C     0.51787   0.20401   0.59461   0.00000  Uiso   1.00
C1046  C     0.48654   0.12632   0.90257   0.00000  Uiso   1.00
C1047  C     0.52050   0.20667   0.54874   0.00000  Uiso   1.00
C1048  C     0.48503   0.12363   0.94806   0.00000  Uiso   1.00
C1049  C     0.50257   0.16256   0.52165   0.00000  Uiso   1.00
C1050  C     0.50326   0.16763   0.97523   0.00000  Uiso   1.00
C1051  C     0.48464   0.11348   0.54074   0.00000  Uiso   1.00
C1052  C     0.48523   0.06966   0.75699   0.00000  Uiso   1.00
C1053  C     0.52063   0.21673   0.95592   0.00000  Uiso   1.00
C1054  C     0.54009   0.25404   0.53020   0.00000  Uiso   1.00
C1055  C     0.46746   0.07593   0.96567   0.00000  Uiso   1.00
C1056  C     0.47365   0.05619   0.60689   0.00000  Uiso   1.00
C1057  C     0.47416   0.04669   0.65584   0.00000  Uiso   1.00
C1058  C     0.46220   0.32063   0.66250   0.00000  Uiso   1.00
C1059  C     0.51192   0.27271   0.88796   0.00000  Uiso   1.00
C1060  C     0.56878   0.29465   0.86795   0.00000  Uiso   1.00
C1061  C     0.57103   0.02078   0.86360   0.00000  Uiso   1.00
C1062  C     0.60958   0.33232   0.98191   0.00000  Uiso   1.00
C1063  C     0.54241   0.25959   0.98397   0.00000  Uiso   1.00
C1064  C     0.60055   0.05428   0.50229   0.00000  Uiso   1.00
C1065  C     0.65423   0.08481   0.51604   0.00000  Uiso   1.00
C1066  C     0.42116   0.31664   0.50644   0.00000  Uiso   1.00
C1067  C     0.39589   0.28033   0.54248   0.00000  Uiso   1.00
C1068  C     0.36840   0.22845   0.52368   0.00000  Uiso   1.00
C1069  C     0.63838   0.07811   0.69633   0.00000  Uiso   1.00
C1070  C     0.66357   0.03919   0.66168   0.00000  Uiso   1.00
C1071  C     0.61979   0.32984   0.64625   0.00000  Uiso   1.00
C1072  C     0.35239   0.23388   0.82468   0.00000  Uiso   1.00
C1073  C     0.33507   0.19446   0.86082   0.00000  Uiso   1.00
C1074  C     0.46783   0.06899   0.51114   0.00000  Uiso   1.00
C1075  C     0.35796   0.21226   0.90573   0.00000  Uiso   1.00
C1076  C     0.52283   0.32004   0.75988   0.00000  Uiso   1.00
C1077  C     0.47794   0.01530   0.76554   0.00000  Uiso   1.00
C1078  C     0.50122   0.17105   0.83584   0.00000  Uiso   1.00
C1079  C     0.49890   0.16205   0.66358   0.00000  Uiso   1.00
C1080  C     0.48528   0.11057   0.58836   0.00000  Uiso   1.00
H1081  H     0.53190   0.23838   0.61505   0.00000  Uiso   1.00
H1082  H     0.51584   0.05960   0.66745   0.00000  Uiso   1.00
H1083  H     0.44171   0.06915   0.67454   0.00000  Uiso   1.00
H1084  H     0.43128   0.04131   0.59736   0.00000  Uiso   1.00
H1085  H     0.50621   0.03129   0.59081   0.00000  Uiso   1.00
H1086  H     0.53588   0.03114   0.84481   0.00000  Uiso   1.00
H1087  H     0.56841   0.04170   0.89715   0.00000  Uiso   1.00
H1088  H     0.61120   0.03428   0.84554   0.00000  Uiso   1.00
H1089  H     0.60217   0.28644   0.88932   0.00000  Uiso   1.00
H1090  H     0.57691   0.27485   0.83441   0.00000  Uiso   1.00
H1091  H     0.48224   0.26842   0.86107   0.00000  Uiso   1.00
H1092  H     0.47384   0.09175   0.88158   0.00000  Uiso   1.00
H1093  H     0.49275   0.30141   0.91228   0.00000  Uiso   1.00
H1094  H     0.64026   0.00224   0.95248   0.00000  Uiso   1.00
H1095  H     0.62831   0.31025   0.50675   0.00000  Uiso   1.00
H1096  H     0.58184   0.07701   0.97771   0.00000  Uiso   1.00
H1097  H     0.57191   0.05072   0.53266   0.00000  Uiso   1.00
H1098  H     0.34008   0.06432   0.54189   0.00000  Uiso   1.00
H1099  H     0.64360   0.12400   0.53072   0.00000  Uiso   1.00
H1100  H     0.35091   0.09045   0.98647   0.00000  Uiso   1.00
H1101  H     0.43970   0.29271   0.97796   0.00000  Uiso   1.00
H1102  H     0.38762   0.00430   0.99393   0.00000  Uiso   1.00
H1103  H     0.55193   0.28778   0.55223   0.00000  Uiso   1.00
H1104  H     0.42930   0.27061   0.56339   0.00000  Uiso   1.00
H1105  H     0.36472   0.30155   0.56423   0.00000  Uiso   1.00
H1106  H     0.33366   0.23476   0.50291   0.00000  Uiso   1.00
H1107  H     0.35133   0.20493   0.55208   0.00000  Uiso   1.00
H1108  H     0.39958   0.20580   0.50315   0.00000  Uiso   1.00
H1109  H     0.60280   0.09286   0.68144   0.00000  Uiso   1.00
H1110  H     0.62625   0.05636   0.72652   0.00000  Uiso   1.00
H1111  H     0.34916   0.06039   0.63249   0.00000  Uiso   1.00
H1112  H     0.36164   0.01930   0.67770   0.00000  Uiso   1.00
H1113  H     0.59054   0.01323   0.62507   0.00000  Uiso   1.00
H1114  H     0.45634   0.04268   0.94303   0.00000  Uiso   1.00
H1115  H     0.59637   0.31218   0.67554   0.00000  Uiso   1.00
H1116  H     0.64048   0.29775   0.62651   0.00000  Uiso   1.00
H1117  H     0.34070   0.27354   0.83711   0.00000  Uiso   1.00
H1118  H     0.39792   0.24018   0.81765   0.00000  Uiso   1.00
H1119  H     0.62213   0.19002   0.86583   0.00000  Uiso   1.00
H1120  H     0.34959   0.15512   0.84980   0.00000  Uiso   1.00
H1121  H     0.40395   0.21898   0.90219   0.00000  Uiso   1.00
H1122  H     0.34652   0.18119   0.92976   0.00000  Uiso   1.00
H1123  H     0.34037   0.24931   0.91940   0.00000  Uiso   1.00
H1124  H     0.56540   0.00381   0.75790   0.00000  Uiso   1.00
H1125  H     0.43524   0.33123   0.77079   0.00000  Uiso   1.00
H1126  H     0.43626   0.31365   0.69367   0.00000  Uiso   1.00
H1127  H     0.43837   0.29979   0.63561   0.00000  Uiso   1.00
H1128  H     0.50184   0.30189   0.66394   0.00000  Uiso   1.00
N1129  N     0.65011   0.15265   0.73783   0.00000  Uiso   1.00
N1130  N     0.34989   0.18068   0.76217   0.00000  Uiso   1.00
O1131  O     0.46308   0.24619   0.75298   0.00000  Uiso   1.00
O1132  O     0.46372   0.01770   0.52511   0.00000  Uiso   1.00
O1133  O     0.34382   0.11984   0.70798   0.00000  Uiso   1.00
O1134  O     0.65726   0.21952   0.78598   0.00000  Uiso   1.00
O1135  O     0.53692   0.08714   0.74702   0.00000  Uiso   1.00
O1136  O     0.55946   0.23721   0.74518   0.00000  Uiso   1.00
O1137  O     0.44054   0.09613   0.75481   0.00000  Uiso   1.00
O1138  O     0.45181   0.17117   0.81997   0.00000  Uiso   1.00
O1139  O     0.54819   0.16216   0.68003   0.00000  Uiso   1.00
O1140  O     0.54819   0.16219   0.81217   0.00000  Uiso   1.00
O1141  O     0.45181   0.17115   0.68782   0.00000  Uiso   1.00
O1142  O     0.55828   0.30848   0.96690   0.00000  Uiso   1.00
Zn1143 Zn    0.43565   0.17266   0.75521   0.00000  Uiso   1.00
Zn1144 Zn    0.56435   0.16067   0.74479   0.00000  Uiso   1.00
C1145  C     0.84847   0.26471   0.75254   0.00000  Uiso   1.00
C1146  C     0.84842   0.22028   0.90921   0.00000  Uiso   1.00
C1147  C     0.83202   0.15796   0.61489   0.00000  Uiso   1.00
C1148  C     0.83568   0.17315   0.88340   0.00000  Uiso   1.00
C1149  C     0.85120   0.20401   0.59461   0.00000  Uiso   1.00
C1150  C     0.81988   0.12632   0.90257   0.00000  Uiso   1.00
C1151  C     0.85383   0.20667   0.54874   0.00000  Uiso   1.00
C1152  C     0.81836   0.12363   0.94806   0.00000  Uiso   1.00
C1153  C     0.83591   0.16256   0.52165   0.00000  Uiso   1.00
C1154  C     0.83659   0.16763   0.97523   0.00000  Uiso   1.00
C1155  C     0.81797   0.11348   0.54074   0.00000  Uiso   1.00
C1156  C     0.81856   0.06966   0.75699   0.00000  Uiso   1.00
C1157  C     0.85397   0.21673   0.95592   0.00000  Uiso   1.00
C1158  C     0.87342   0.25404   0.53020   0.00000  Uiso   1.00
C1159  C     0.80079   0.07593   0.96567   0.00000  Uiso   1.00
C1160  C     0.80698   0.05619   0.60689   0.00000  Uiso   1.00
C1161  C     0.80749   0.04669   0.65584   0.00000  Uiso   1.00
C1162  C     0.79553   0.32063   0.66250   0.00000  Uiso   1.00
C1163  C     0.84525   0.27271   0.88796   0.00000  Uiso   1.00
C1164  C     0.90211   0.29465   0.86795   0.00000  Uiso   1.00
C1165  C     0.90436   0.02078   0.86360   0.00000  Uiso   1.00
C1166  C     0.94292   0.33232   0.98191   0.00000  Uiso   1.00
C1167  C     0.87574   0.25959   0.98397   0.00000  Uiso   1.00
C1168  C     0.93388   0.05428   0.50229   0.00000  Uiso   1.00
C1169  C     0.98757   0.08481   0.51604   0.00000  Uiso   1.00
C1170  C     0.75449   0.31664   0.50644   0.00000  Uiso   1.00
C1171  C     0.72923   0.28033   0.54248   0.00000  Uiso   1.00
C1172  C     0.70173   0.22845   0.52368   0.00000  Uiso   1.00
C1173  C     0.97172   0.07811   0.69633   0.00000  Uiso   1.00
C1174  C     0.99691   0.03919   0.66168   0.00000  Uiso   1.00
C1175  C     0.95312   0.32984   0.64625   0.00000  Uiso   1.00
C1176  C     0.68572   0.23388   0.82468   0.00000  Uiso   1.00
C1177  C     0.66840   0.19446   0.86082   0.00000  Uiso   1.00
C1178  C     0.80116   0.06899   0.51114   0.00000  Uiso   1.00
C1179  C     0.69129   0.21226   0.90573   0.00000  Uiso   1.00
C1180  C     0.85616   0.32004   0.75988   0.00000  Uiso   1.00
C1181  C     0.81128   0.01530   0.76554   0.00000  Uiso   1.00
C1182  C     0.83455   0.17105   0.83584   0.00000  Uiso   1.00
C1183  C     0.83223   0.16205   0.66358   0.00000  Uiso   1.00
C1184  C     0.81862   0.11057   0.58836   0.00000  Uiso   1.00
H1185  H     0.86523   0.23838   0.61505   0.00000  Uiso   1.00
H1186  H     0.84917   0.05960   0.66745   0.00000  Uiso   1.00
H1187  H     0.77504   0.06915   0.67454   0.00000  Uiso   1.00
H1188  H     0.76461   0.04131   0.59736   0.00000  Uiso   1.00
H1189  H     0.83954   0.03129   0.59081   0.00000  Uiso   1.00
H1190  H     0.86921   0.03114   0.84481   0.00000  Uiso   1.00
H1191  H     0.90174   0.04170   0.89715   0.00000  Uiso   1.00
H1192  H     0.94453   0.03428   0.84554   0.00000  Uiso   1.00
H1193  H     0.93550   0.28644   0.88932   0.00000  Uiso   1.00
H1194  H     0.91024   0.27485   0.83441   0.00000  Uiso   1.00
H1195  H     0.81558   0.26842   0.86107   0.00000  Uiso   1.00
H1196  H     0.80717   0.09175   0.88158   0.00000  Uiso   1.00
H1197  H     0.82608   0.30141   0.91228   0.00000  Uiso   1.00
H1198  H     0.97360   0.00224   0.95248   0.00000  Uiso   1.00
H1199  H     0.96164   0.31025   0.50675   0.00000  Uiso   1.00
H1200  H     0.91517   0.07701   0.97771   0.00000  Uiso   1.00
H1201  H     0.90524   0.05072   0.53266   0.00000  Uiso   1.00
H1202  H     0.67341   0.06432   0.54189   0.00000  Uiso   1.00
H1203  H     0.97693   0.12400   0.53072   0.00000  Uiso   1.00
H1204  H     0.68425   0.09045   0.98647   0.00000  Uiso   1.00
H1205  H     0.77303   0.29271   0.97796   0.00000  Uiso   1.00
H1206  H     0.72095   0.00430   0.99393   0.00000  Uiso   1.00
H1207  H     0.88526   0.28778   0.55223   0.00000  Uiso   1.00
H1208  H     0.76264   0.27061   0.56339   0.00000  Uiso   1.00
H1209  H     0.69806   0.30155   0.56423   0.00000  Uiso   1.00
H1210  H     0.66700   0.23476   0.50291   0.00000  Uiso   1.00
H1211  H     0.68467   0.20493   0.55208   0.00000  Uiso   1.00
H1212  H     0.73291   0.20580   0.50315   0.00000  Uiso   1.00
H1213  H     0.93614   0.09286   0.68144   0.00000  Uiso   1.00
H1214  H     0.95958   0.05636   0.72652   0.00000  Uiso   1.00
H1215  H     0.68250   0.06039   0.63249   0.00000  Uiso   1.00
H1216  H     0.69497   0.01930   0.67770   0.00000  Uiso   1.00
H1217  H     0.92388   0.01323   0.62507   0.00000  Uiso   1.00
H1218  H     0.78968   0.04268   0.94303   0.00000  Uiso   1.00
H1219  H     0.92970   0.31218   0.67554   0.00000  Uiso   1.00
H1220  H     0.97382   0.29775   0.62651   0.00000  Uiso   1.00
H1221  H     0.67403   0.27354   0.83711   0.00000  Uiso   1.00
H1222  H     0.73125   0.24018   0.81765   0.00000  Uiso   1.00
H1223  H     0.95547   0.19002   0.86583   0.00000  Uiso   1.00
H1224  H     0.68292   0.15512   0.84980   0.00000  Uiso   1.00
H1225  H     0.73728   0.21898   0.90219   0.00000  Uiso   1.00
H1226  H     0.67985   0.18119   0.92976   0.00000  Uiso   1.00
H1227  H     0.67370   0.24931   0.91940   0.00000  Uiso   1.00
H1228  H     0.89873   0.00381   0.75790   0.00000  Uiso   1.00
H1229  H     0.76857   0.33123   0.77079   0.00000  Uiso   1.00
H1230  H     0.76959   0.31365   0.69367   0.00000  Uiso   1.00
H1231  H     0.77170   0.29979   0.63561   0.00000  Uiso   1.00
H1232  H     0.83517   0.30189   0.66394   0.00000  Uiso   1.00
N1233  N     0.98344   0.15265   0.73783   0.00000  Uiso   1.00
N1234  N     0.68322   0.18068   0.76217   0.00000  Uiso   1.00
O1235  O     0.79642   0.24619   0.75298   0.00000  Uiso   1.00
O1236  O     0.79705   0.01770   0.52511   0.00000  Uiso   1.00
O1237  O     0.67716   0.11984   0.70798   0.00000  Uiso   1.00
O1238  O     0.99059   0.21952   0.78598   0.00000  Uiso   1.00
O1239  O     0.87025   0.08714   0.74702   0.00000  Uiso   1.00
O1240  O     0.89280   0.23721   0.74518   0.00000  Uiso   1.00
O1241  O     0.77387   0.09613   0.75481   0.00000  Uiso   1.00
O1242  O     0.78514   0.17117   0.81997   0.00000  Uiso   1.00
O1243  O     0.88153   0.16216   0.68003   0.00000  Uiso   1.00
O1244  O     0.88152   0.16219   0.81217   0.00000  Uiso   1.00
O1245  O     0.78515   0.17115   0.68782   0.00000  Uiso   1.00
O1246  O     0.89161   0.30848   0.96690   0.00000  Uiso   1.00
Zn1247 Zn    0.76898   0.17266   0.75521   0.00000  Uiso   1.00
Zn1248 Zn    0.89769   0.16067   0.74479   0.00000  Uiso   1.00
C1249  C     0.18180   0.59804   0.75254   0.00000  Uiso   1.00
C1250  C     0.18175   0.55362   0.90921   0.00000  Uiso   1.00
C1251  C     0.16535   0.49130   0.61489   0.00000  Uiso   1.00
C1252  C     0.16901   0.50648   0.88340   0.00000  Uiso   1.00
C1253  C     0.18454   0.53734   0.59461   0.00000  Uiso   1.00
C1254  C     0.15321   0.45966   0.90257   0.00000  Uiso   1.00
C1255  C     0.18717   0.54000   0.54874   0.00000  Uiso   1.00
C1256  C     0.15169   0.45697   0.94806   0.00000  Uiso   1.00
C1257  C     0.16924   0.49589   0.52165   0.00000  Uiso   1.00
C1258  C     0.16993   0.50096   0.97523   0.00000  Uiso   1.00
C1259  C     0.15131   0.44682   0.54074   0.00000  Uiso   1.00
C1260  C     0.15189   0.40299   0.75699   0.00000  Uiso   1.00
C1261  C     0.18730   0.55007   0.95592   0.00000  Uiso   1.00
C1262  C     0.20675   0.58737   0.53020   0.00000  Uiso   1.00
C1263  C     0.13413   0.40926   0.96567   0.00000  Uiso   1.00
C1264  C     0.14032   0.38952   0.60689   0.00000  Uiso   1.00
C1265  C     0.14083   0.38002   0.65584   0.00000  Uiso   1.00
C1266  C     0.12887   0.65396   0.66250   0.00000  Uiso   1.00
C1267  C     0.17859   0.60604   0.88796   0.00000  Uiso   1.00
C1268  C     0.23545   0.62798   0.86795   0.00000  Uiso   1.00
C1269  C     0.23770   0.35411   0.86360   0.00000  Uiso   1.00
C1270  C     0.27625   0.66565   0.98191   0.00000  Uiso   1.00
C1271  C     0.20908   0.59292   0.98397   0.00000  Uiso   1.00
C1272  C     0.26722   0.38761   0.50229   0.00000  Uiso   1.00
C1273  C     0.32090   0.41814   0.51604   0.00000  Uiso   1.00
C1274  C     0.08782   0.64997   0.50644   0.00000  Uiso   1.00
C1275  C     0.06256   0.61366   0.54248   0.00000  Uiso   1.00
C1276  C     0.03506   0.56179   0.52368   0.00000  Uiso   1.00
C1277  C     0.30505   0.41144   0.69633   0.00000  Uiso   1.00
C1278  C     0.33024   0.37252   0.66168   0.00000  Uiso   1.00
C1279  C     0.28645   0.66317   0.64625   0.00000  Uiso   1.00
C1280  C     0.01906   0.56721   0.82468   0.00000  Uiso   1.00
C1281  C     0.00173   0.52780   0.86082   0.00000  Uiso   1.00
C1282  C     0.13449   0.40233   0.51114   0.00000  Uiso   1.00
C1283  C     0.02462   0.54559   0.90573   0.00000  Uiso   1.00
C1284  C     0.18949   0.65338   0.75988   0.00000  Uiso   1.00
C1285  C     0.14461   0.34864   0.76554   0.00000  Uiso   1.00
C1286  C     0.16789   0.50439   0.83584   0.00000  Uiso   1.00
C1287  C     0.16556   0.49539   0.66358   0.00000  Uiso   1.00
C1288  C     0.15195   0.44390   0.58836   0.00000  Uiso   1.00
H1289  H     0.19856   0.57171   0.61505   0.00000  Uiso   1.00
H1290  H     0.18250   0.39293   0.66745   0.00000  Uiso   1.00
H1291  H     0.10838   0.40249   0.67454   0.00000  Uiso   1.00
H1292  H     0.09794   0.37464   0.59736   0.00000  Uiso   1.00
H1293  H     0.17287   0.36462   0.59081   0.00000  Uiso   1.00
H1294  H     0.20255   0.36447   0.84481   0.00000  Uiso   1.00
H1295  H     0.23508   0.37503   0.89715   0.00000  Uiso   1.00
H1296  H     0.27786   0.36762   0.84554   0.00000  Uiso   1.00
H1297  H     0.26884   0.61978   0.88932   0.00000  Uiso   1.00
H1298  H     0.24357   0.60818   0.83441   0.00000  Uiso   1.00
H1299  H     0.14891   0.60175   0.86107   0.00000  Uiso   1.00
H1300  H     0.14051   0.42509   0.88158   0.00000  Uiso   1.00
H1301  H     0.15941   0.63474   0.91228   0.00000  Uiso   1.00
H1302  H     0.30693   0.33558   0.95248   0.00000  Uiso   1.00
H1303  H     0.29498   0.64358   0.50675   0.00000  Uiso   1.00
H1304  H     0.24850   0.41034   0.97771   0.00000  Uiso   1.00
H1305  H     0.23857   0.38405   0.53266   0.00000  Uiso   1.00
H1306  H     0.00674   0.39765   0.54189   0.00000  Uiso   1.00
H1307  H     0.31027   0.45733   0.53072   0.00000  Uiso   1.00
H1308  H     0.01758   0.42378   0.98647   0.00000  Uiso   1.00
H1309  H     0.10636   0.62605   0.97796   0.00000  Uiso   1.00
H1310  H     0.05429   0.33764   0.99393   0.00000  Uiso   1.00
H1311  H     0.21860   0.62111   0.55223   0.00000  Uiso   1.00
H1312  H     0.09597   0.60394   0.56339   0.00000  Uiso   1.00
H1313  H     0.03139   0.63489   0.56423   0.00000  Uiso   1.00
H1314  H     0.00033   0.56810   0.50291   0.00000  Uiso   1.00
H1315  H     0.01800   0.53827   0.55208   0.00000  Uiso   1.00
H1316  H     0.06624   0.53913   0.50315   0.00000  Uiso   1.00
H1317  H     0.26947   0.42620   0.68144   0.00000  Uiso   1.00
H1318  H     0.29291   0.38970   0.72652   0.00000  Uiso   1.00
H1319  H     0.01583   0.39372   0.63249   0.00000  Uiso   1.00
H1320  H     0.02830   0.35263   0.67770   0.00000  Uiso   1.00
H1321  H     0.25721   0.34657   0.62507   0.00000  Uiso   1.00
H1322  H     0.12301   0.37601   0.94303   0.00000  Uiso   1.00
H1323  H     0.26303   0.64551   0.67554   0.00000  Uiso   1.00
H1324  H     0.30715   0.63108   0.62651   0.00000  Uiso   1.00
H1325  H     0.00736   0.60687   0.83711   0.00000  Uiso   1.00
H1326  H     0.06458   0.57352   0.81765   0.00000  Uiso   1.00
H1327  H     0.28880   0.52335   0.86583   0.00000  Uiso   1.00
H1328  H     0.01625   0.48845   0.84980   0.00000  Uiso   1.00
H1329  H     0.07061   0.55231   0.90219   0.00000  Uiso   1.00
H1330  H     0.01319   0.51453   0.92976   0.00000  Uiso   1.00
H1331  H     0.00703   0.58264   0.91940   0.00000  Uiso   1.00
H1332  H     0.23207   0.33715   0.75790   0.00000  Uiso   1.00
H1333  H     0.10190   0.66456   0.77079   0.00000  Uiso   1.00
H1334  H     0.10293   0.64698   0.69367   0.00000  Uiso   1.00
H1335  H     0.10504   0.63313   0.63561   0.00000  Uiso   1.00
H1336  H     0.16851   0.63522   0.66394   0.00000  Uiso   1.00
N1337  N     0.31678   0.48598   0.73783   0.00000  Uiso   1.00
N1338  N     0.01656   0.51402   0.76217   0.00000  Uiso   1.00
O1339  O     0.12975   0.57952   0.75298   0.00000  Uiso   1.00
O1340  O     0.13038   0.35103   0.52511   0.00000  Uiso   1.00
O1341  O     0.01049   0.45317   0.70798   0.00000  Uiso   1.00
O1342  O     0.32393   0.55286   0.78598   0.00000  Uiso   1.00
O1343  O     0.20358   0.42048   0.74702   0.00000  Uiso   1.00
O1344  O     0.22613   0.57054   0.74518   0.00000  Uiso   1.00
O1345  O     0.10720   0.42946   0.75481   0.00000  Uiso   1.00
O1346  O     0.11847   0.50450   0.81997   0.00000  Uiso   1.00
O1347  O     0.21486   0.49550   0.68003   0.00000  Uiso   1.00
O1348  O     0.21485   0.49552   0.81217   0.00000  Uiso   1.00
O1349  O     0.11848   0.50448   0.68782   0.00000  Uiso   1.00
O1350  O     0.22495   0.64181   0.96690   0.00000  Uiso   1.00
Zn1351 Zn    0.10231   0.50600   0.75521   0.00000  Uiso   1.00
Zn1352 Zn    0.23102   0.49400   0.74479   0.00000  Uiso   1.00
C1353  C     0.51513   0.59804   0.75254   0.00000  Uiso   1.00
C1354  C     0.51508   0.55362   0.90921   0.00000  Uiso   1.00
C1355  C     0.49868   0.49130   0.61489   0.00000  Uiso   1.00
C1356  C     0.50235   0.50648   0.88340   0.00000  Uiso   1.00
C1357  C     0.51787   0.53734   0.59461   0.00000  Uiso   1.00
C1358  C     0.48654   0.45966   0.90257   0.00000  Uiso   1.00
C1359  C     0.52050   0.54000   0.54874   0.00000  Uiso   1.00
C1360  C     0.48503   0.45697   0.94806   0.00000  Uiso   1.00
C1361  C     0.50257   0.49589   0.52165   0.00000  Uiso   1.00
C1362  C     0.50326   0.50096   0.97523   0.00000  Uiso   1.00
C1363  C     0.48464   0.44682   0.54074   0.00000  Uiso   1.00
C1364  C     0.48523   0.40299   0.75699   0.00000  Uiso   1.00
C1365  C     0.52063   0.55007   0.95592   0.00000  Uiso   1.00
C1366  C     0.54009   0.58737   0.53020   0.00000  Uiso   1.00
C1367  C     0.46746   0.40926   0.96567   0.00000  Uiso   1.00
C1368  C     0.47365   0.38952   0.60689   0.00000  Uiso   1.00
C1369  C     0.47416   0.38002   0.65584   0.00000  Uiso   1.00
C1370  C     0.46220   0.65396   0.66250   0.00000  Uiso   1.00
C1371  C     0.51192   0.60604   0.88796   0.00000  Uiso   1.00
C1372  C     0.56878   0.62798   0.86795   0.00000  Uiso   1.00
C1373  C     0.57103   0.35411   0.86360   0.00000  Uiso   1.00
C1374  C     0.60958   0.66565   0.98191   0.00000  Uiso   1.00
C1375  C     0.54241   0.59292   0.98397   0.00000  Uiso   1.00
C1376  C     0.60055   0.38761   0.50229   0.00000  Uiso   1.00
C1377  C     0.65423   0.41814   0.51604   0.00000  Uiso   1.00
C1378  C     0.42116   0.64997   0.50644   0.00000  Uiso   1.00
C1379  C     0.39589   0.61366   0.54248   0.00000  Uiso   1.00
C1380  C     0.36840   0.56179   0.52368   0.00000  Uiso   1.00
C1381  C     0.63838   0.41144   0.69633   0.00000  Uiso   1.00
C1382  C     0.66357   0.37252   0.66168   0.00000  Uiso   1.00
C1383  C     0.61979   0.66317   0.64625   0.00000  Uiso   1.00
C1384  C     0.35239   0.56721   0.82468   0.00000  Uiso   1.00
C1385  C     0.33507   0.52780   0.86082   0.00000  Uiso   1.00
C1386  C     0.46783   0.40233   0.51114   0.00000  Uiso   1.00
C1387  C     0.35796   0.54559   0.90573   0.00000  Uiso   1.00
C1388  C     0.52283   0.65338   0.75988   0.00000  Uiso   1.00
C1389  C     0.47794   0.34864   0.76554   0.00000  Uiso   1.00
C1390  C     0.50122   0.50439   0.83584   0.00000  Uiso   1.00
C1391  C     0.49890   0.49539   0.66358   0.00000  Uiso   1.00
C1392  C     0.48528   0.44390   0.58836   0.00000  Uiso   1.00
H1393  H     0.53190   0.57171   0.61505   0.00000  Uiso   1.00
H1394  H     0.51584   0.39293   0.66745   0.00000  Uiso   1.00
H1395  H     0.44171   0.40249   0.67454   0.00000  Uiso   1.00
H1396  H     0.43128   0.37464   0.59736   0.00000  Uiso   1.00
H1397  H     0.50621   0.36462   0.59081   0.00000  Uiso   1.00
H1398  H     0.53588   0.36447   0.84481   0.00000  Uiso   1.00
H1399  H     0.56841   0.37503   0.89715   0.00000  Uiso   1.00
H1400  H     0.61120   0.36762   0.84554   0.00000  Uiso   1.00
H1401  H     0.60217   0.61978   0.88932   0.00000  Uiso   1.00
H1402  H     0.57691   0.60818   0.83441   0.00000  Uiso   1.00
H1403  H     0.48224   0.60175   0.86107   0.00000  Uiso   1.00
H1404  H     0.47384   0.42509   0.88158   0.00000  Uiso   1.00
H1405  H     0.49275   0.63474   0.91228   0.00000  Uiso   1.00
H1406  H     0.64026   0.33558   0.95248   0.00000  Uiso   1.00
H1407  H     0.62831   0.64358   0.50675   0.00000  Uiso   1.00
H1408  H     0.58184   0.41034   0.97771   0.00000  Uiso   1.00
H1409  H     0.57191   0.38405   0.53266   0.00000  Uiso   1.00
H1410  H     0.34008   0.39765   0.54189   0.00000  Uiso   1.00
H1411  H     0.64360   0.45733   0.53072   0.00000  Uiso   1.00
H1412  H     0.35091   0.42378   0.98647   0.00000  Uiso   1.00
H1413  H     0.43970   0.62605   0.97796   0.00000  Uiso   1.00
H1414  H     0.38762   0.33764   0.99393   0.00000  Uiso   1.00
H1415  H     0.55193   0.62111   0.55223   0.00000  Uiso   1.00
H1416  H     0.42930   0.60394   0.56339   0.00000  Uiso   1.00
H1417  H     0.36472   0.63489   0.56423   0.00000  Uiso   1.00
H1418  H     0.33366   0.56810   0.50291   0.00000  Uiso   1.00
H1419  H     0.35133   0.53827   0.55208   0.00000  Uiso   1.00
H1420  H     0.39958   0.53913   0.50315   0.00000  Uiso   1.00
H1421  H     0.60280   0.42620   0.68144   0.00000  Uiso   1.00
H1422  H     0.62625   0.38970   0.72652   0.00000  Uiso   1.00
H1423  H     0.34916   0.39372   0.63249   0.00000  Uiso   1.00
H1424  H     0.36164   0.35263   0.67770   0.00000  Uiso   1.00
H1425  H     0.59054   0.34657   0.62507   0.00000  Uiso   1.00
H1426  H     0.45634   0.37601   0.94303   0.00000  Uiso   1.00
H1427  H     0.59637   0.64551   0.67554   0.00000  Uiso   1.00
H1428  H     0.64048   0.63108   0.62651   0.00000  Uiso   1.00
H1429  H     0.34070   0.60687   0.83711   0.00000  Uiso   1.00
H1430  H     0.39792   0.57352   0.81765   0.00000  Uiso   1.00
H1431  H     0.62213   0.52335   0.86583   0.00000  Uiso   1.00
H1432  H     0.34959   0.48845   0.84980   0.00000  Uiso   1.00
H1433  H     0.40395   0.55231   0.90219   0.00000  Uiso   1.00
H1434  H     0.34652   0.51453   0.92976   0.00000  Uiso   1.00
H1435  H     0.34037   0.58264   0.91940   0.00000  Uiso   1.00
H1436  H     0.56540   0.33715   0.75790   0.00000  Uiso   1.00
H1437  H     0.43524   0.66456   0.77079   0.00000  Uiso   1.00
H1438  H     0.43626   0.64698   0.69367   0.00000  Uiso   1.00
H1439  H     0.43837   0.63313   0.63561   0.00000  Uiso   1.00
H1440  H     0.50184   0.63522   0.66394   0.00000  Uiso   1.00
N1441  N     0.65011   0.48598   0.73783   0.00000  Uiso   1.00
N1442  N     0.34989   0.51402   0.76217   0.00000  Uiso   1.00
O1443  O     0.46308   0.57952   0.75298   0.00000  Uiso   1.00
O1444  O     0.46372   0.35103   0.52511   0.00000  Uiso   1.00
O1445  O     0.34382   0.45317   0.70798   0.00000  Uiso   1.00
O1446  O     0.65726   0.55286   0.78598   0.00000  Uiso   1.00
O1447  O     0.53692   0.42048   0.74702   0.00000  Uiso   1.00
O1448  O     0.55946   0.57054   0.74518   0.00000  Uiso   1.00
O1449  O     0.44054   0.42946   0.75481   0.00000  Uiso   1.00
O1450  O     0.45181   0.50450   0.81997   0.00000  Uiso   1.00
O1451  O     0.54819   0.49550   0.68003   0.00000  Uiso   1.00
O1452  O     0.54819   0.49552   0.81217   0.00000  Uiso   1.00
O1453  O     0.45181   0.50448   0.68782   0.00000  Uiso   1.00
O1454  O     0.55828   0.64181   0.96690   0.00000  Uiso   1.00
Zn1455 Zn    0.43565   0.50600   0.75521   0.00000  Uiso   1.00
Zn1456 Zn    0.56435   0.49400   0.74479   0.00000  Uiso   1.00
C1457  C     0.84847   0.59804   0.75254   0.00000  Uiso   1.00
C1458  C     0.84842   0.55362   0.90921   0.00000  Uiso   1.00
C1459  C     0.83202   0.49130   0.61489   0.00000  Uiso   1.00
C1460  C     0.83568   0.50648   0.88340   0.00000  Uiso   1.00
C1461  C     0.85120   0.53734   0.59461   0.00000  Uiso   1.00
C1462  C     0.81988   0.45966   0.90257   0.00000  Uiso   1.00
C1463  C     0.85383   0.54000   0.54874   0.00000  Uiso   1.00
C1464  C     0.81836   0.45697   0.94806   0.00000  Uiso   1.00
C1465  C     0.83591   0.49589   0.52165   0.00000  Uiso   1.00
C1466  C     0.83659   0.50096   0.97523   0.00000  Uiso   1.00
C1467  C     0.81797   0.44682   0.54074   0.00000  Uiso   1.00
C1468  C     0.81856   0.40299   0.75699   0.00000  Uiso   1.00
C1469  C     0.85397   0.55007   0.95592   0.00000  Uiso   1.00
C1470  C     0.87342   0.58737   0.53020   0.00000  Uiso   1.00
C1471  C     0.80079   0.40926   0.96567   0.00000  Uiso   1.00
C1472  C     0.80698   0.38952   0.60689   0.00000  Uiso   1.00
C1473  C     0.80749   0.38002   0.65584   0.00000  Uiso   1.00
C1474  C     0.79553   0.65396   0.66250   0.00000  Uiso   1.00
C1475  C     0.84525   0.60604   0.88796   0.00000  Uiso   1.00
C1476  C     0.90211   0.62798   0.86795   0.00000  Uiso   1.00
C1477  C     0.90436   0.35411   0.86360   0.00000  Uiso   1.00
C1478  C     0.94292   0.66565   0.98191   0.00000  Uiso   1.00
C1479  C     0.87574   0.59292   0.98397   0.00000  Uiso   1.00
C1480  C     0.93388   0.38761   0.50229   0.00000  Uiso   1.00
C1481  C     0.98757   0.41814   0.51604   0.00000  Uiso   1.00
C1482  C     0.75449   0.64997   0.50644   0.00000  Uiso   1.00
C1483  C     0.72923   0.61366   0.54248   0.00000  Uiso   1.00
C1484  C     0.70173   0.56179   0.52368   0.00000  Uiso   1.00
C1485  C     0.97172   0.41144   0.69633   0.00000  Uiso   1.00
C1486  C     0.99691   0.37252   0.66168   0.00000  Uiso   1.00
C1487  C     0.95312   0.66317   0.64625   0.00000  Uiso   1.00
C1488  C     0.68572   0.56721   0.82468   0.00000  Uiso   1.00
C1489  C     0.66840   0.52780   0.86082   0.00000  Uiso   1.00
C1490  C     0.80116   0.40233   0.51114   0.00000  Uiso   1.00
C1491  C     0.69129   0.54559   0.90573   0.00000  Uiso   1.00
C1492  C     0.85616   0.65338   0.75988   0.00000  Uiso   1.00
C1493  C     0.81128   0.34864   0.76554   0.00000  Uiso   1.00
C1494  C     0.83455   0.50439   0.83584   0.00000  Uiso   1.00
C1495  C     0.83223   0.49539   0.66358   0.00000  Uiso   1.00
C1496  C     0.81862   0.44390   0.58836   0.00000  Uiso   1.00
H1497  H     0.86523   0.57171   0.61505   0.00000  Uiso   1.00
H1498  H     0.84917   0.39293   0.66745   0.00000  Uiso   1.00
H1499  H     0.77504   0.40249   0.67454   0.00000  Uiso   1.00
H1500  H     0.76461   0.37464   0.59736   0.00000  Uiso   1.00
H1501  H     0.83954   0.36462   0.59081   0.00000  Uiso   1.00
H1502  H     0.86921   0.36447   0.84481   0.00000  Uiso   1.00
H1503  H     0.90174   0.37503   0.89715   0.00000  Uiso   1.00
H1504  H     0.94453   0.36762   0.84554   0.00000  Uiso   1.00
H1505  H     0.93550   0.61978   0.88932   0.00000  Uiso   1.00
H1506  H     0.91024   0.60818   0.83441   0.00000  Uiso   1.00
H1507  H     0.81558   0.60175   0.86107   0.00000  Uiso   1.00
H1508  H     0.80717   0.42509   0.88158   0.00000  Uiso   1.00
H1509  H     0.82608   0.63474   0.91228   0.00000  Uiso   1.00
H1510  H     0.97360   0.33558   0.95248   0.00000  Uiso   1.00
H1511  H     0.96164   0.64358   0.50675   0.00000  Uiso   1.00
H1512  H     0.91517   0.41034   0.97771   0.00000  Uiso   1.00
H1513  H     0.90524   0.38405   0.53266   0.00000  Uiso   1.00
H1514  H     0.67341   0.39765   0.54189   0.00000  Uiso   1.00
H1515  H     0.97693   0.45733   0.53072   0.00000  Uiso   1.00
H1516  H     0.68425   0.42378   0.98647   0.00000  Uiso   1.00
H1517  H     0.77303   0.62605   0.97796   0.00000  Uiso   1.00
H1518  H     0.72095   0.33764   0.99393   0.00000  Uiso   1.00
H1519  H     0.88526   0.62111   0.55223   0.00000  Uiso   1.00
H1520  H     0.76264   0.60394   0.56339   0.00000  Uiso   1.00
H1521  H     0.69806   0.63489   0.56423   0.00000  Uiso   1.00
H1522  H     0.66700   0.56810   0.50291   0.00000  Uiso   1.00
H1523  H     0.68467   0.53827   0.55208   0.00000  Uiso   1.00
H1524  H     0.73291   0.53913   0.50315   0.00000  Uiso   1.00
H1525  H     0.93614   0.42620   0.68144   0.00000  Uiso   1.00
H1526  H     0.95958   0.38970   0.72652   0.00000  Uiso   1.00
H1527  H     0.68250   0.39372   0.63249   0.00000  Uiso   1.00
H1528  H     0.69497   0.35263   0.67770   0.00000  Uiso   1.00
H1529  H     0.92388   0.34657   0.62507   0.00000  Uiso   1.00
H1530  H     0.78968   0.37601   0.94303   0.00000  Uiso   1.00
H1531  H     0.92970   0.64551   0.67554   0.00000  Uiso   1.00
H1532  H     0.97382   0.63108   0.62651   0.00000  Uiso   1.00
H1533  H     0.67403   0.60687   0.83711   0.00000  Uiso   1.00
H1534  H     0.73125   0.57352   0.81765   0.00000  Uiso   1.00
H1535  H     0.95547   0.52335   0.86583   0.00000  Uiso   1.00
H1536  H     0.68292   0.48845   0.84980   0.00000  Uiso   1.00
H1537  H     0.73728   0.55231   0.90219   0.00000  Uiso   1.00
H1538  H     0.67985   0.51453   0.92976   0.00000  Uiso   1.00
H1539  H     0.67370   0.58264   0.91940   0.00000  Uiso   1.00
H1540  H     0.89873   0.33715   0.75790   0.00000  Uiso   1.00
H1541  H     0.76857   0.66456   0.77079   0.00000  Uiso   1.00
H1542  H     0.76959   0.64698   0.69367   0.00000  Uiso   1.00
H1543  H     0.77170   0.63313   0.63561   0.00000  Uiso   1.00
H1544  H     0.83517   0.63522   0.66394   0.00000  Uiso   1.00
N1545  N     0.98344   0.48598   0.73783   0.00000  Uiso   1.00
N1546  N     0.68322   0.51402   0.76217   0.00000  Uiso   1.00
O1547  O     0.79642   0.57952   0.75298   0.00000  Uiso   1.00
O1548  O     0.79705   0.35103   0.52511   0.00000  Uiso   1.00
O1549  O     0.67716   0.45317   0.70798   0.00000  Uiso   1.00
O1550  O     0.99059   0.55286   0.78598   0.00000  Uiso   1.00
O1551  O     0.87025   0.42048   0.74702   0.00000  Uiso   1.00
O1552  O     0.89280   0.57054   0.74518   0.00000  Uiso   1.00
O1553  O     0.77387   0.42946   0.75481   0.00000  Uiso   1.00
O1554  O     0.78514   0.50450   0.81997   0.00000  Uiso   1.00
O1555  O     0.88153   0.49550   0.68003   0.00000  Uiso   1.00
O1556  O     0.88152   0.49552   0.81217   0.00000  Uiso   1.00
O1557  O     0.78515   0.50448   0.68782   0.00000  Uiso   1.00
O1558  O     0.89161   0.64181   0.96690   0.00000  Uiso   1.00
Zn1559 Zn    0.76898   0.50600   0.75521   0.00000  Uiso   1.00
Zn1560 Zn    0.89769   0.49400   0.74479   0.00000  Uiso   1.00
C1561  C     0.18180   0.93138   0.75254   0.00000  Uiso   1.00
C1562  C     0.18175   0.88695   0.90921   0.00000  Uiso   1.00
C1563  C     0.16535   0.82463   0.61489   0.00000  Uiso   1.00
C1564  C     0.16901   0.83982   0.88340   0.00000  Uiso   1.00
C1565  C     0.18454   0.87068   0.59461   0.00000  Uiso   1.00
C1566  C     0.15321   0.79299   0.90257   0.00000  Uiso   1.00
C1567  C     0.18717   0.87334   0.54874   0.00000  Uiso   1.00
C1568  C     0.15169   0.79030   0.94806   0.00000  Uiso   1.00
C1569  C     0.16924   0.82923   0.52165   0.00000  Uiso   1.00
C1570  C     0.16993   0.83430   0.97523   0.00000  Uiso   1.00
C1571  C     0.15131   0.78015   0.54074   0.00000  Uiso   1.00
C1572  C     0.15189   0.73633   0.75699   0.00000  Uiso   1.00
C1573  C     0.18730   0.88340   0.95592   0.00000  Uiso   1.00
C1574  C     0.20675   0.92070   0.53020   0.00000  Uiso   1.00
C1575  C     0.13413   0.74260   0.96567   0.00000  Uiso   1.00
C1576  C     0.14032   0.72286   0.60689   0.00000  Uiso   1.00
C1577  C     0.14083   0.71336   0.65584   0.00000  Uiso   1.00
C1578  C     0.12887   0.98730   0.66250   0.00000  Uiso   1.00
C1579  C     0.17859   0.93938   0.88796   0.00000  Uiso   1.00
C1580  C     0.23545   0.96132   0.86795   0.00000  Uiso   1.00
C1581  C     0.23770   0.68744   0.86360   0.00000  Uiso   1.00
C1582  C     0.27625   0.99899   0.98191   0.00000  Uiso   1.00
C1583  C     0.20908   0.92626   0.98397   0.00000  Uiso   1.00
C1584  C     0.26722   0.72095   0.50229   0.00000  Uiso   1.00
C1585  C     0.32090   0.75147   0.51604   0.00000  Uiso   1.00
C1586  C     0.08782   0.98330   0.50644   0.00000  Uiso   1.00
C1587  C     0.06256   0.94700   0.54248   0.00000  Uiso   1.00
C1588  C     0.03506   0.89512   0.52368   0.00000  Uiso   1.00
C1589  C     0.30505   0.74478   0.69633   0.00000  Uiso   1.00
C1590  C     0.33024   0.70585   0.66168   0.00000  Uiso   1.00
C1591  C     0.28645   0.99651   0.64625   0.00000  Uiso   1.00
C1592  C     0.01906   0.90055   0.82468   0.00000  Uiso   1.00
C1593  C     0.00173   0.86113   0.86082   0.00000  Uiso   1.00
C1594  C     0.13449   0.73566   0.51114   0.00000  Uiso   1.00
C1595  C     0.02462   0.87892   0.90573   0.00000  Uiso   1.00
C1596  C     0.18949   0.98671   0.75988   0.00000  Uiso   1.00
C1597  C     0.14461   0.68197   0.76554   0.00000  Uiso   1.00
C1598  C     0.16789   0.83772   0.83584   0.00000  Uiso   1.00
C1599  C     0.16556   0.82872   0.66358   0.00000  Uiso   1.00
C1600  C     0.15195   0.77724   0.58836   0.00000  Uiso   1.00
H1601  H     0.19856   0.90504   0.61505   0.00000  Uiso   1.00
H1602  H     0.18250   0.72626   0.66745   0.00000  Uiso   1.00
H1603  H     0.10838   0.73582   0.67454   0.00000  Uiso   1.00
H1604  H     0.09794   0.70797   0.59736   0.00000  Uiso   1.00
H1605  H     0.17287   0.69796   0.59081   0.00000  Uiso   1.00
H1606  H     0.20255   0.69781   0.84481   0.00000  Uiso   1.00
H1607  H     0.23508   0.70836   0.89715   0.00000  Uiso   1.00
H1608  H     0.27786   0.70095   0.84554   0.00000  Uiso   1.00
H1609  H     0.26884   0.95311   0.88932   0.00000  Uiso   1.00
H1610  H     0.24357   0.94151   0.83441   0.00000  Uiso   1.00
H1611  H     0.14891   0.93509   0.86107   0.00000  Uiso   1.00
H1612  H     0.14051   0.75842   0.88158   0.00000  Uiso   1.00
H1613  H     0.15941   0.96807   0.91228   0.00000  Uiso   1.00
H1614  H     0.30693   0.66891   0.95248   0.00000  Uiso   1.00
H1615  H     0.29498   0.97691   0.50675   0.00000  Uiso   1.00
H1616  H     0.24850   0.74368   0.97771   0.00000  Uiso   1.00
H1617  H     0.23857   0.71739   0.53266   0.00000  Uiso   1.00
H1618  H     0.00674   0.73098   0.54189   0.00000  Uiso   1.00
H1619  H     0.31027   0.79067   0.53072   0.00000  Uiso   1.00
H1620  H     0.01758   0.75711   0.98647   0.00000  Uiso   1.00
H1621  H     0.10636   0.95938   0.97796   0.00000  Uiso   1.00
H1622  H     0.05429   0.67097   0.99393   0.00000  Uiso   1.00
H1623  H     0.21860   0.95445   0.55223   0.00000  Uiso   1.00
H1624  H     0.09597   0.93727   0.56339   0.00000  Uiso   1.00
H1625  H     0.03139   0.96822   0.56423   0.00000  Uiso   1.00
H1626  H     0.00033   0.90143   0.50291   0.00000  Uiso   1.00
H1627  H     0.01800   0.87160   0.55208   0.00000  Uiso   1.00
H1628  H     0.06624   0.87247   0.50315   0.00000  Uiso   1.00
H1629  H     0.26947   0.75953   0.68144   0.00000  Uiso   1.00
H1630  H     0.29291   0.72303   0.72652   0.00000  Uiso   1.00
H1631  H     0.01583   0.72705   0.63249   0.00000  Uiso   1.00
H1632  H     0.02830   0.68597   0.67770   0.00000  Uiso   1.00
H1633  H     0.25721   0.67990   0.62507   0.00000  Uiso   1.00
H1634  H     0.12301   0.70935   0.94303   0.00000  Uiso   1.00
H1635  H     0.26303   0.97884   0.67554   0.00000  Uiso   1.00
H1636  H     0.30715   0.96442   0.62651   0.00000  Uiso   1.00
H1637  H     0.00736   0.94020   0.83711   0.00000  Uiso   1.00
H1638  H     0.06458   0.90685   0.81765   0.00000  Uiso   1.00
H1639  H     0.28880   0.85668   0.86583   0.00000  Uiso   1.00
H1640  H     0.01625   0.82179   0.84980   0.00000  Uiso   1.00
H1641  H     0.07061   0.88565   0.90219   0.00000  Uiso   1.00
H1642  H     0.01319   0.84786   0.92976   0.00000  Uiso   1.00
H1643  H     0.00703   0.91597   0.91940   0.00000  Uiso   1.00
H1644  H     0.23207   0.67048   0.75790   0.00000  Uiso   1.00
H1645  H     0.10190   0.99789   0.77079   0.00000  Uiso   1.00
H1646  H     0.10293   0.98031   0.69367   0.00000  Uiso   1.00
H1647  H     0.10504   0.96646   0.63561   0.00000  Uiso   1.00
H1648  H     0.16851   0.96855   0.66394   0.00000  Uiso   1.00
N1649  N     0.31678   0.81932   0.73783   0.00000  Uiso   1.00
N1650  N     0.01656   0.84735   0.76217   0.00000  Uiso   1.00
O1651  O     0.12975   0.91286   0.75298   0.00000  Uiso   1.00
O1652  O     0.13038   0.68437   0.52511   0.00000  Uiso   1.00
O1653  O     0.01049   0.78651   0.70798   0.00000  Uiso   1.00
O1654  O     0.32393   0.88619   0.78598   0.00000  Uiso   1.00
O1655  O     0.20358   0.75381   0.74702   0.00000  Uiso   1.00
O1656  O     0.22613   0.90387   0.74518   0.00000  Uiso   1.00
O1657  O     0.10720   0.76279   0.75481   0.00000  Uiso   1.00
O1658  O     0.11847   0.83784   0.81997   0.00000  Uiso   1.00
O1659  O     0.21486   0.82883   0.68003   0.00000  Uiso   1.00
O1660  O     0.21485   0.82885   0.81217   0.00000  Uiso   1.00
O1661  O     0.11848   0.83781   0.68782   0.00000  Uiso   1.00
O1662  O     0.22495   0.97515   0.96690   0.00000  Uiso   1.00
Zn1663 Zn    0.10231   0.83933   0.75521   0.00000  Uiso   1.00
Zn1664 Zn    0.23102   0.82734   0.74479   0.00000  Uiso   1.00
C1665  C     0.51513   0.93138   0.75254   0.00000  Uiso   1.00
C1666  C     0.51508   0.88695   0.90921   0.00000  Uiso   1.00
C1667  C     0.49868   0.82463   0.61489   0.00000  Uiso   1.00
C1668  C     0.50235   0.83982   0.88340   0.00000  Uiso   1.00
C1669  C     0.51787   0.87068   0.59461   0.00000  Uiso   1.00
C1670  C     0.48654   0.79299   0.90257   0.00000  Uiso   1.00
C1671  C     0.52050   0.87334   0.54874   0.00000  Uiso   1.00
C1672  C     0.48503   0.79030   0.94806   0.00000  Uiso   1.00
C1673  C     0.50257   0.82923   0.52165   0.00000  Uiso   1.00
C1674  C     0.50326   0.83430   0.97523   0.00000  Uiso   1.00
C1675  C     0.48464   0.78015   0.54074   0.00000  Uiso   1.00
C1676  C     0.48523   0.73633   0.75699   0.00000  Uiso   1.00
C1677  C     0.52063   0.88340   0.95592   0.00000  Uiso   1.00
C1678  C     0.54009   0.92070   0.53020   0.00000  Uiso   1.00
C1679  C     0.46746   0.74260   0.96567   0.00000  Uiso   1.00
C1680  C     0.47365   0.72286   0.60689   0.00000  Uiso   1.00
C1681  C     0.47416   0.71336   0.65584   0.00000  Uiso   1.00
C1682  C     0.46220   0.98730   0.66250   0.00000  Uiso   1.00
C1683  C     0.51192   0.93938   0.88796   0.00000  Uiso   1.00
C1684  C     0.56878   0.96132   0.86795   0.00000  Uiso   1.00
C1685  C     0.57103   0.68744   0.86360   0.00000  Uiso   1.00
C1686  C     0.60958   0.99899   0.98191   0.00000  Uiso   1.00
C1687  C     0.54241   0.92626   0.98397   0.00000  Uiso   1.00
C1688  C     0.60055   0.72095   0.50229   0.00000  Uiso   1.00
C1689  C     0.65423   0.75147   0.51604   0.00000  Uiso   1.00
C1690  C     0.42116   0.98330   0.50644   0.00000  Uiso   1.00
C1691  C     0.39589   0.94700   0.54248   0.00000  Uiso   1.00
C1692  C     0.36840   0.89512   0.52368   0.00000  Uiso   1.00
C1693  C     0.63838   0.74478   0.69633   0.00000  Uiso   1.00
C1694  C     0.66357   0.70585   0.66168   0.00000  Uiso   1.00
C1695  C     0.61979   0.99651   0.64625   0.00000  Uiso   1.00
C1696  C     0.35239   0.90055   0.82468   0.00000  Uiso   1.00
C1697  C     0.33507   0.86113   0.86082   0.00000  Uiso   1.00
C1698  C     0.46783   0.73566   0.51114   0.00000  Uiso   1.00
C1699  C     0.35796   0.87892   0.90573   0.00000  Uiso   1.00
C1700  C     0.52283   0.98671   0.75988   0.00000  Uiso   1.00
C1701  C     0.47794   0.68197   0.76554   0.00000  Uiso   1.00
C1702  C     0.50122   0.83772   0.83584   0.00000  Uiso   1.00
C1703  C     0.49890   0.82872   0.66358   0.00000  Uiso   1.00
C1704  C     0.48528   0.77724   0.58836   0.00000  Uiso   1.00
H1705  H     0.53190   0.90504   0.61505   0.00000  Uiso   1.00
H1706  H     0.51584   0.72626   0.66745   0.00000  Uiso   1.00
H1707  H     0.44171   0.73582   0.67454   0.00000  Uiso   1.00
H1708  H     0.43128   0.70797   0.59736   0.00000  Uiso   1.00
H1709  H     0.50621   0.69796   0.59081   0.00000  Uiso   1.00
H1710  H     0.53588   0.69781   0.84481   0.00000  Uiso   1.00
H1711  H     0.56841   0.70836   0.89715   0.00000  Uiso   1.00
H1712  H     0.61120   0.70095   0.84554   0.00000  Uiso   1.00
H1713  H     0.60217   0.95311   0.88932   0.00000  Uiso   1.00
H1714  H     0.57691   0.94151   0.83441   0.00000  Uiso   1.00
H1715  H     0.48224   0.93509   0.86107   0.00000  Uiso   1.00
H1716  H     0.47384   0.75842   0.88158   0.00000  Uiso   1.00
H1717  H     0.49275   0.96807   0.91228   0.00000  Uiso   1.00
H1718  H     0.64026   0.66891   0.95248   0.00000  Uiso   1.00
H1719  H     0.62831   0.97691   0.50675   0.00000  Uiso   1.00
H1720  H     0.58184   0.74368   0.97771   0.00000  Uiso   1.00
H1721  H     0.57191   0.71739   0.53266   0.00000  Uiso   1.00
H1722  H     0.34008   0.73098   0.54189   0.00000  Uiso   1.00
H1723  H     0.64360   0.79067   0.53072   0.00000  Uiso   1.00
H1724  H     0.35091   0.75711   0.98647   0.00000  Uiso   1.00
H1725  H     0.43970   0.95938   0.97796   0.00000  Uiso   1.00
H1726  H     0.38762   0.67097   0.99393   0.00000  Uiso   1.00
H1727  H     0.55193   0.95445   0.55223   0.00000  Uiso   1.00
H1728  H     0.42930   0.93727   0.56339   0.00000  Uiso   1.00
H1729  H     0.36472   0.96822   0.56423   0.00000  Uiso   1.00
H1730  H     0.33366   0.90143   0.50291   0.00000  Uiso   1.00
H1731  H     0.35133   0.87160   0.55208   0.00000  Uiso   1.00
H1732  H     0.39958   0.87247   0.50315   0.00000  Uiso   1.00
H1733  H     0.60280   0.75953   0.68144   0.00000  Uiso   1.00
H1734  H     0.62625   0.72303   0.72652   0.00000  Uiso   1.00
H1735  H     0.34916   0.72705   0.63249   0.00000  Uiso   1.00
H1736  H     0.36164   0.68597   0.67770   0.00000  Uiso   1.00
H1737  H     0.59054   0.67990   0.62507   0.00000  Uiso   1.00
H1738  H     0.45634   0.70935   0.94303   0.00000  Uiso   1.00
H1739  H     0.59637   0.97884   0.67554   0.00000  Uiso   1.00
H1740  H     0.64048   0.96442   0.62651   0.00000  Uiso   1.00
H1741  H     0.34070   0.94020   0.83711   0.00000  Uiso   1.00
H1742  H     0.39792   0.90685   0.81765   0.00000  Uiso   1.00
H1743  H     0.62213   0.85668   0.86583   0.00000  Uiso   1.00
H1744  H     0.34959   0.82179   0.84980   0.00000  Uiso   1.00
H1745  H     0.40395   0.88565   0.90219   0.00000  Uiso   1.00
H1746  H     0.34652   0.84786   0.92976   0.00000  Uiso   1.00
H1747  H     0.34037   0.91597   0.91940   0.00000  Uiso   1.00
H1748  H     0.56540   0.67048   0.75790   0.00000  Uiso   1.00
H1749  H     0.43524   0.99789   0.77079   0.00000  Uiso   1.00
H1750  H     0.43626   0.98031   0.69367   0.00000  Uiso   1.00
H1751  H     0.43837   0.96646   0.63561   0.00000  Uiso   1.00
H1752  H     0.50184   0.96855   0.66394   0.00000  Uiso   1.00
N1753  N     0.65011   0.81932   0.73783   0.00000  Uiso   1.00
N1754  N     0.34989   0.84735   0.76217   0.00000  Uiso   1.00
O1755  O     0.46308   0.91286   0.75298   0.00000  Uiso   1.00
O1756  O     0.46372   0.68437   0.52511   0.00000  Uiso   1.00
O1757  O     0.34382   0.78651   0.70798   0.00000  Uiso   1.00
O1758  O     0.65726   0.88619   0.78598   0.00000  Uiso   1.00
O1759  O     0.53692   0.75381   0.74702   0.00000  Uiso   1.00
O1760  O     0.55946   0.90387   0.74518   0.00000  Uiso   1.00
O1761  O     0.44054   0.76279   0.75481   0.00000  Uiso   1.00
O1762  O     0.45181   0.83784   0.81997   0.00000  Uiso   1.00
O1763  O     0.54819   0.82883   0.68003   0.00000  Uiso   1.00
O1764  O     0.54819   0.82885   0.81217   0.00000  Uiso   1.00
O1765  O     0.45181   0.83781   0.68782   0.00000  Uiso   1.00
O1766  O     0.55828   0.97515   0.96690   0.00000  Uiso   1.00
Zn1767 Zn    0.43565   0.83933   0.75521   0.00000  Uiso   1.00
Zn1768 Zn    0.56435   0.82734   0.74479   0.00000  Uiso   1.00
C1769  C     0.84847   0.93138   0.75254   0.00000  Uiso   1.00
C1770  C     0.84842   0.88695   0.90921   0.00000  Uiso   1.00
C1771  C     0.83202   0.82463   0.61489   0.00000  Uiso   1.00
C1772  C     0.83568   0.83982   0.88340   0.00000  Uiso   1.00
C1773  C     0.85120   0.87068   0.59461   0.00000  Uiso   1.00
C1774  C     0.81988   0.79299   0.90257   0.00000  Uiso   1.00
C1775  C     0.85383   0.87334   0.54874   0.00000  Uiso   1.00
C1776  C     0.81836   0.79030   0.94806   0.00000  Uiso   1.00
C1777  C     0.83591   0.82923   0.52165   0.00000  Uiso   1.00
C1778  C     0.83659   0.83430   0.97523   0.00000  Uiso   1.00
C1779  C     0.81797   0.78015   0.54074   0.00000  Uiso   1.00
C1780  C     0.81856   0.73633   0.75699   0.00000  Uiso   1.00
C1781  C     0.85397   0.88340   0.95592   0.00000  Uiso   1.00
C1782  C     0.87342   0.92070   0.53020   0.00000  Uiso   1.00
C1783  C     0.80079   0.74260   0.96567   0.00000  Uiso   1.00
C1784  C     0.80698   0.72286   0.60689   0.00000  Uiso   1.00
C1785  C     0.80749   0.71336   0.65584   0.00000  Uiso   1.00
C1786  C     0.79553   0.98730   0.66250   0.00000  Uiso   1.00
C1787  C     0.84525   0.93938   0.88796   0.00000  Uiso   1.00
C1788  C     0.90211   0.96132   0.86795   0.00000  Uiso   1.00
C1789  C     0.90436   0.68744   0.86360   0.00000  Uiso   1.00
C1790  C     0.94292   0.99899   0.98191   0.00000  Uiso   1.00
C1791  C     0.87574   0.92626   0.98397   0.00000  Uiso   1.00
C1792  C     0.93388   0.72095   0.50229   0.00000  Uiso   1.00
C1793  C     0.98757   0.75147   0.51604   0.00000  Uiso   1.00
C1794  C     0.75449   0.98330   0.50644   0.00000  Uiso   1.00
C1795  C     0.72923   0.94700   0.54248   0.00000  Uiso   1.00
C1796  C     0.70173   0.89512   0.52368   0.00000  Uiso   1.00
C1797  C     0.97172   0.74478   0.69633   0.00000  Uiso   1.00
C1798  C     0.99691   0.70585   0.66168   0.00000  Uiso   1.00
C1799  C     0.95312   0.99651   0.64625   0.00000  Uiso   1.00
C1800  C     0.68572   0.90055   0.82468   0.00000  Uiso   1.00
C1801  C     0.66840   0.86113   0.86082   0.00000  Uiso   1.00
C1802  C     0.80116   0.73566   0.51114   0.00000  Uiso   1.00
C1803  C     0.69129   0.87892   0.90573   0.00000  Uiso   1.00
C1804  C     0.85616   0.98671   0.75988   0.00000  Uiso   1.00
C1805  C     0.81128   0.68197   0.76554   0.00000  Uiso   1.00
C1806  C     0.83455   0.83772   0.83584   0.00000  Uiso   1.00
C1807  C     0.83223   0.82872   0.66358   0.00000  Uiso   1.00
C1808  C     0.81862   0.77724   0.58836   0.00000  Uiso   1.00
H1809  H     0.86523   0.90504   0.61505   0.00000  Uiso   1.00
H1810  H     0.84917   0.72626   0.66745   0.00000  Uiso   1.00
H1811  H     0.77504   0.73582   0.67454   0.00000  Uiso   1.00
H1812  H     0.76461   0.70797   0.59736   0.00000  Uiso   1.00
H1813  H     0.83954   0.69796   0.59081   0.00000  Uiso   1.00
H1814  H     0.86921   0.69781   0.84481   0.00000  Uiso   1.00
H1815  H     0.90174   0.70836   0.89715   0.00000  Uiso   1.00
H1816  H     0.94453   0.70095   0.84554   0.00000  Uiso   1.00
H1817  H     0.93550   0.95311   0.88932   0.00000  Uiso   1.00
H1818  H     0.91024   0.94151   0.83441   0.00000  Uiso   1.00
H1819  H     0.81558   0.93509   0.86107   0.00000  Uiso   1.00
H1820  H     0.80717   0.75842   0.88158   0.00000  Uiso   1.00
H1821  H     0.82608   0.96807   0.91228   0.00000  Uiso   1.00
H1822  H     0.97360   0.66891   0.95248   0.00000  Uiso   1.00
H1823  H     0.96164   0.97691   0.50675   0.00000  Uiso   1.00
H1824  H     0.91517   0.74368   0.97771   0.00000  Uiso   1.00
H1825  H     0.90524   0.71739   0.53266   0.00000  Uiso   1.00
H1826  H     0.67341   0.73098   0.54189   0.00000  Uiso   1.00
H1827  H     0.97693   0.79067   0.53072   0.00000  Uiso   1.00
H1828  H     0.68425   0.75711   0.98647   0.00000  Uiso   1.00
H1829  H     0.77303   0.95938   0.97796   0.00000  Uiso   1.00
H1830  H     0.72095   0.67097   0.99393   0.00000  Uiso   1.00
H1831  H     0.88526   0.95445   0.55223   0.00000  Uiso   1.00
H1832  H     0.76264   0.93727   0.56339   0.00000  Uiso   1.00
H1833  H     0.69806   0.96822   0.56423   0.00000  Uiso   1.00
H1834  H     0.66700   0.90143   0.50291   0.00000  Uiso   1.00
H1835  H     0.68467   0.87160   0.55208   0.00000  Uiso   1.00
H1836  H     0.73291   0.87247   0.50315   0.00000  Uiso   1.00
H1837  H     0.93614   0.75953   0.68144   0.00000  Uiso   1.00
H1838  H     0.95958   0.72303   0.72652   0.00000  Uiso   1.00
H1839  H     0.68250   0.72705   0.63249   0.00000  Uiso   1.00
H1840  H     0.69497   0.68597   0.67770   0.00000  Uiso   1.00
H1841  H     0.92388   0.67990   0.62507   0.00000  Uiso   1.00
H1842  H     0.78968   0.70935   0.94303   0.00000  Uiso   1.00
H1843  H     0.92970   0.97884   0.67554   0.00000  Uiso   1.00
H1844  H     0.97382   0.96442   0.62651   0.00000  Uiso   1.00
H1845  H     0.67403   0.94020   0.83711   0.00000  Uiso   1.00
H1846  H     0.73125   0.90685   0.81765   0.00000  Uiso   1.00
H1847  H     0.95547   0.85668   0.86583   0.00000  Uiso   1.00
H1848  H     0.68292   0.82179   0.84980   0.00000  Uiso   1.00
H1849  H     0.73728   0.88565   0.90219   0.00000  Uiso   1.00
H1850  H     0.67985   0.84786   0.92976   0.00000  Uiso   1.00
H1851  H     0.67370   0.91597   0.91940   0.00000  Uiso   1.00
H1852  H     0.89873   0.67048   0.75790   0.00000  Uiso   1.00
H1853  H     0.76857   0.99789   0.77079   0.00000  Uiso   1.00
H1854  H     0.76959   0.98031   0.69367   0.00000  Uiso   1.00
H1855  H     0.77170   0.96646   0.63561   0.00000  Uiso   1.00
H1856  H     0.83517   0.96855   0.66394   0.00000  Uiso   1.00
N1857  N     0.98344   0.81932   0.73783   0.00000  Uiso   1.00
N1858  N     0.68322   0.84735   0.76217   0.00000  Uiso   1.00
O1859  O     0.79642   0.91286   0.75298   0.00000  Uiso   1.00
O1860  O     0.79705   0.68437   0.52511   0.00000  Uiso   1.00
O1861  O     0.67716   0.78651   0.70798   0.00000  Uiso   1.00
O1862  O     0.99059   0.88619   0.78598   0.00000  Uiso   1.00
O1863  O     0.87025   0.75381   0.74702   0.00000  Uiso   1.00
O1864  O     0.89280   0.90387   0.74518   0.00000  Uiso   1.00
O1865  O     0.77387   0.76279   0.75481   0.00000  Uiso   1.00
O1866  O     0.78514   0.83784   0.81997   0.00000  Uiso   1.00
O1867  O     0.88153   0.82883   0.68003   0.00000  Uiso   1.00
O1868  O     0.88152   0.82885   0.81217   0.00000  Uiso   1.00
O1869  O     0.78515   0.83781   0.68782   0.00000  Uiso   1.00
O1870  O     0.89161   0.97515   0.96690   0.00000  Uiso   1.00
Zn1871 Zn    0.76898   0.83933   0.75521   0.00000  Uiso   1.00
Zn1872 Zn    0.89769   0.82734   0.74479   0.00000  Uiso   1.00
loop_
_geom_bond_atom_site_label_1
_geom_bond_atom_site_label_2
_geom_bond_distance
_geom_bond_site_symmetry_2
_ccdc_geom_bond_type
C1     O91     1.298   .     A
C1     O96     1.317   .     A
C1     C36     1.413   .     S
C2     C13     1.429   .     A
C2     C4      1.412   .     A
C2     C19     1.528   .     S
C3     C39     1.460   .     S
C3     C40     1.432   .     A
C3     C5      1.387   .     A
C4     C6      1.373   .     A
C4     C38     1.428   .     S
C5     C7      1.380   .     A
C5     H41     1.082   .     S
C6     C8      1.370   .     A
C6     H52     1.087   .     S
C7     C14     1.395   .     A
C7     C9      1.403   .     A
C8     C10     1.404   .     A
C8     C15     1.380   .     A
C9     C11     1.431   .     A
C9     C946    1.407   1_554 S
C10    C13     1.432   .     A
C10    C945    1.407   .     S
C11    C34     1.445   .     A
C11    C40     1.439   .     A
C12    C37     1.420   .     S
C12    O95     1.303   .     A
C12    O97     1.319   .     A
C13    C23     1.425   .     A
C14    H63     1.083   .     S
C14    C959    1.402   1_554 S
C15    H74     1.081   .     S
C15    C970    1.389   .     S
C16    H44     1.107   .     S
C16    C40     1.525   .     S
C16    H45     1.109   .     S
C16    C17     1.507   .     S
C17    H42     1.102   .     S
C17    H43     1.102   .     S
C17    C642    1.541   1_545 S
C18    H88     1.103   .     S
C18    H86     1.101   .     S
C18    H87     1.107   .     S
C18    C329    1.541   .     S
C19    C20     1.527   .     S
C19    H53     1.102   .     S
C19    H51     1.111   .     S
C20    H49     1.104   .     S
C20    H50     1.108   .     S
C20    C333    1.526   .     S
C21    H48     1.110   .     S
C21    H46     1.107   .     S
C21    H47     1.109   .     S
C21    C644    1.526   1_545 S
C22    O102    1.419   .     S
C22    C1272   1.525   .     S
C22    H366    1.110   .     S
C22    H991    1.105   .     S
C23    O102    1.392   .     S
C23    C950    1.402   .     S
C24    H57     1.104   .     S
C24    C25     1.520   .     S
C24    C1582   1.525   1_544 S
C24    H992    1.109   1_554 S
C25    H59     1.107   .     S
C25    H162    1.110   .     S
C25    H1100   1.110   1_554 S
C26    C27     1.529   .     S
C26    H997    1.105   1_554 S
C26    H1310   1.102   1_554 S
C26    O404    1.415   .     S
C27    H65     1.107   .     S
C27    H64     1.107   .     S
C27    C28     1.524   .     S
C28    H66     1.105   .     S
C28    H68     1.108   .     S
C28    H67     1.109   .     S
C29    H70     1.102   .     S
C29    H69     1.096   .     S
C29    C30     1.517   .     S
C29    O197    1.400   .     S
C30    C655    1.525   1_545 S
C30    H175    1.109   .     S
C30    H176    1.097   .     S
C31    H75     1.109   .     S
C31    H76     1.107   .     S
C31    C342    1.525   .     S
C31    H385    1.108   .     S
C32    H77     1.105   .     S
C32    C33     1.539   .     S
C32    H78     1.097   .     S
C32    O302    1.405   1_455 S
C33    H80     1.110   .     S
C33    C35     1.523   .     S
C33    H287    1.106   1_455 S
C34    O92     1.393   .     S
C34    C951    1.389   1_554 S
C35    H81     1.101   .     S
C35    H82     1.110   .     S
C35    H83     1.108   .     S
C36    C349    1.342   .     S
C36    H396    1.076   .     S
C37    C660    1.342   1_545 S
C37    H709    1.087   1_545 S
C38    O98     1.310   .     A
C38    O100    1.313   .     A
C39    O99     1.315   .     A
C39    O101    1.325   .     A
H54    C646    1.110   1_545 S
H55    C958    1.105   1_554 S
H56    C960    1.109   .     S
H58    C233    1.110   1_455 S
H60    C1169   1.110   1_455 S
H61    C962    1.105   .     S
H62    C1586   1.102   1_545 S
H71    C238    1.109   1_455 S
H72    C238    1.097   1_455 S
H73    C655    1.108   1_545 S
H79    C137    1.106   .     S
H84    C660    1.076   1_545 S
H85    C349    1.087   .     S
N89    Zn104   2.077   .     S
N89    N194    1.266   .     S
N89    O197    1.352   .     S
N90    Zn103   2.077   .     S
N90    N297    1.266   1_455 S
N90    O302    1.349   1_455 S
O91    Zn103   1.940   .     S
O92    C650    1.415   1_545 S
O93    N297    1.352   1_455 S
O93    C237    1.400   1_455 S
O94    C136    1.405   .     S
O94    N194    1.349   .     S
O95    Zn104   1.940   .     S
O96    Zn104   1.963   .     S
O97    Zn103   1.963   .     S
O98    Zn103   2.015   .     S
O99    Zn104   2.015   .     S
O100   Zn104   2.031   .     S
O101   Zn103   2.031   .     S
C105   O195    1.298   .     A
C105   O200    1.317   .     A
C105   C140    1.413   .     S
C106   C117    1.429   .     A
C106   C108    1.412   .     A
C106   C123    1.528   .     S
C107   C143    1.460   .     S
C107   C144    1.432   .     A
C107   C109    1.387   .     A
C108   C110    1.373   .     A
C108   C142    1.428   .     S
C109   C111    1.380   .     A
C109   H145    1.082   .     S
C110   C112    1.370   .     A
C110   H156    1.087   .     S
C111   C118    1.395   .     A
C111   C113    1.403   .     A
C112   C114    1.404   .     A
C112   C119    1.380   .     A
C113   C115    1.431   .     A
C113   C1050   1.407   1_554 S
C114   C117    1.432   .     A
C114   C1049   1.407   .     S
C115   C138    1.445   .     A
C115   C144    1.439   .     A
C116   C141    1.420   .     S
C116   O199    1.303   .     A
C116   O201    1.319   .     A
C117   C127    1.425   .     A
C118   H167    1.083   .     S
C118   C1063   1.402   1_554 S
C119   H178    1.081   .     S
C119   C1074   1.389   .     S
C120   H148    1.107   .     S
C120   C144    1.525   .     S
C120   H149    1.109   .     S
C120   C121    1.507   .     S
C121   H146    1.102   .     S
C121   H147    1.102   .     S
C121   C746    1.541   1_545 S
C122   H192    1.103   .     S
C122   H190    1.101   .     S
C122   H191    1.107   .     S
C122   C433    1.541   .     S
C123   C124    1.527   .     S
C123   H157    1.102   .     S
C123   H155    1.111   .     S
C124   H153    1.104   .     S
C124   H154    1.108   .     S
C124   C437    1.526   .     S
C125   H152    1.110   .     S
C125   H150    1.107   .     S
C125   H151    1.109   .     S
C125   C748    1.526   1_545 S
C126   O206    1.419   .     S
C126   C1376   1.525   .     S
C126   H470    1.110   .     S
C126   H1095   1.105   .     S
C127   O206    1.392   .     S
C127   C1054   1.402   .     S
C128   H161    1.104   .     S
C128   C129    1.520   .     S
C128   C1686   1.525   1_544 S
C128   H1096   1.109   1_554 S
C129   H163    1.107   .     S
C129   H266    1.110   .     S
C129   H1204   1.110   1_554 S
C130   C131    1.529   .     S
C130   H1101   1.105   1_554 S
C130   H1414   1.102   1_554 S
C130   O508    1.415   .     S
C131   H169    1.107   .     S
C131   H168    1.107   .     S
C131   C132    1.524   .     S
C132   H170    1.105   .     S
C132   H172    1.108   .     S
C132   H171    1.109   .     S
C133   H174    1.102   .     S
C133   H173    1.096   .     S
C133   C134    1.517   .     S
C133   O301    1.400   .     S
C134   C759    1.525   1_545 S
C134   H279    1.109   .     S
C134   H280    1.097   .     S
C135   H179    1.109   .     S
C135   H180    1.107   .     S
C135   C446    1.525   .     S
C135   H489    1.108   .     S
C136   H181    1.105   .     S
C136   C137    1.539   .     S
C136   H182    1.097   .     S
C137   H184    1.110   .     S
C137   C139    1.523   .     S
C138   O196    1.393   .     S
C138   C1055   1.389   1_554 S
C139   H185    1.101   .     S
C139   H186    1.110   .     S
C139   H187    1.108   .     S
C140   C453    1.342   .     S
C140   H500    1.076   .     S
C141   C764    1.342   1_545 S
C141   H813    1.087   1_545 S
C142   O202    1.310   .     A
C142   O204    1.313   .     A
C143   O203    1.315   .     A
C143   O205    1.325   .     A
H158   C750    1.110   1_545 S
H159   C1062   1.105   1_554 S
H160   C1064   1.109   .     S
H164   C961    1.110   .     S
H165   C1066   1.105   .     S
H166   C1690   1.102   1_545 S
H177   C759    1.108   1_545 S
H183   C241    1.106   .     S
H188   C764    1.076   1_545 S
H189   C453    1.087   .     S
N193   Zn208   2.077   .     S
N193   N298    1.266   .     S
N193   O301    1.352   .     S
N194   Zn207   2.077   .     S
O195   Zn207   1.940   .     S
O196   C754    1.415   1_545 S
O198   C240    1.405   .     S
O198   N298    1.349   .     S
O199   Zn208   1.940   .     S
O200   Zn208   1.963   .     S
O201   Zn207   1.963   .     S
O202   Zn207   2.015   .     S
O203   Zn208   2.015   .     S
O204   Zn208   2.031   .     S
O205   Zn207   2.031   .     S
C209   O299    1.298   .     A
C209   O304    1.317   .     A
C209   C244    1.413   .     S
C210   C221    1.429   .     A
C210   C212    1.412   .     A
C210   C227    1.528   .     S
C211   C247    1.460   .     S
C211   C248    1.432   .     A
C211   C213    1.387   .     A
C212   C214    1.373   .     A
C212   C246    1.428   .     S
C213   C215    1.380   .     A
C213   H249    1.082   .     S
C214   C216    1.370   .     A
C214   H260    1.087   .     S
C215   C222    1.395   .     A
C215   C217    1.403   .     A
C216   C218    1.404   .     A
C216   C223    1.380   .     A
C217   C219    1.431   .     A
C217   C1154   1.407   1_554 S
C218   C221    1.432   .     A
C218   C1153   1.407   .     S
C219   C242    1.445   .     A
C219   C248    1.439   .     A
C220   C245    1.420   .     S
C220   O303    1.303   .     A
C220   O305    1.319   .     A
C221   C231    1.425   .     A
C222   H271    1.083   .     S
C222   C1167   1.402   1_554 S
C223   H282    1.081   .     S
C223   C1178   1.389   .     S
C224   H252    1.107   .     S
C224   C248    1.525   .     S
C224   H253    1.109   .     S
C224   C225    1.507   .     S
C225   H250    1.102   .     S
C225   H251    1.102   .     S
C225   C850    1.541   1_545 S
C226   H296    1.103   .     S
C226   H294    1.101   .     S
C226   H295    1.107   .     S
C226   C537    1.541   .     S
C227   C228    1.527   .     S
C227   H261    1.102   .     S
C227   H259    1.111   .     S
C228   H257    1.104   .     S
C228   H258    1.108   .     S
C228   C541    1.526   .     S
C229   H256    1.110   .     S
C229   H254    1.107   .     S
C229   H255    1.109   .     S
C229   C852    1.526   1_545 S
C230   O310    1.419   .     S
C230   C1480   1.525   .     S
C230   H574    1.110   .     S
C230   H1199   1.105   .     S
C231   O310    1.392   .     S
C231   C1158   1.402   .     S
C232   H265    1.104   .     S
C232   C233    1.520   .     S
C232   C1790   1.525   1_544 S
C232   H1200   1.109   1_554 S
C233   H267    1.107   .     S
C233   H58     1.110   1_655 S
C233   H996    1.110   1_654 S
C234   C235    1.529   .     S
C234   H1205   1.105   1_554 S
C234   H1518   1.102   1_554 S
C234   O612    1.415   .     S
C235   H273    1.107   .     S
C235   H272    1.107   .     S
C235   C236    1.524   .     S
C236   H274    1.105   .     S
C236   H276    1.108   .     S
C236   H275    1.109   .     S
C237   H278    1.102   .     S
C237   H277    1.096   .     S
C237   C238    1.517   .     S
C237   O93     1.400   1_655 S
C238   C863    1.525   1_545 S
C238   H71     1.109   1_655 S
C238   H72     1.097   1_655 S
C239   H283    1.109   .     S
C239   H284    1.107   .     S
C239   C550    1.525   .     S
C239   H593    1.108   .     S
C240   H285    1.105   .     S
C240   C241    1.539   .     S
C240   H286    1.097   .     S
C241   H288    1.110   .     S
C241   C243    1.523   .     S
C242   O300    1.393   .     S
C242   C1159   1.389   1_554 S
C243   H289    1.101   .     S
C243   H290    1.110   .     S
C243   H291    1.108   .     S
C244   C557    1.342   .     S
C244   H604    1.076   .     S
C245   C868    1.342   1_545 S
C245   H917    1.087   1_545 S
C246   O306    1.310   .     A
C246   O308    1.313   .     A
C247   O307    1.315   .     A
C247   O309    1.325   .     A
H262   C854    1.110   1_545 S
H263   C1166   1.105   1_554 S
H264   C1168   1.109   .     S
H268   C1065   1.110   .     S
H269   C1170   1.105   .     S
H270   C1794   1.102   1_545 S
H281   C863    1.108   1_545 S
H287   C33     1.106   1_655 S
H292   C868    1.076   1_545 S
H293   C557    1.087   .     S
N297   Zn312   2.077   .     S
N297   N90     1.266   1_655 S
N297   O93     1.352   1_655 S
N298   Zn311   2.077   .     S
O299   Zn311   1.940   .     S
O300   C858    1.415   1_545 S
O302   C32     1.405   1_655 S
O302   N90     1.349   1_655 S
O303   Zn312   1.940   .     S
O304   Zn312   1.963   .     S
O305   Zn311   1.963   .     S
O306   Zn311   2.015   .     S
O307   Zn312   2.015   .     S
O308   Zn312   2.031   .     S
O309   Zn311   2.031   .     S
C313   O403    1.298   .     A
C313   O408    1.317   .     A
C313   C348    1.413   .     S
C314   C325    1.429   .     A
C314   C316    1.412   .     A
C314   C331    1.528   .     S
C315   C351    1.460   .     S
C315   C352    1.432   .     A
C315   C317    1.387   .     A
C316   C318    1.373   .     A
C316   C350    1.428   .     S
C317   C319    1.380   .     A
C317   H353    1.082   .     S
C318   C320    1.370   .     A
C318   H364    1.087   .     S
C319   C326    1.395   .     A
C319   C321    1.403   .     A
C320   C322    1.404   .     A
C320   C327    1.380   .     A
C321   C323    1.431   .     A
C321   C1258   1.407   1_554 S
C322   C325    1.432   .     A
C322   C1257   1.407   .     S
C323   C346    1.445   .     A
C323   C352    1.439   .     A
C324   C349    1.420   .     S
C324   O407    1.303   .     A
C324   O409    1.319   .     A
C325   C335    1.425   .     A
C326   H375    1.083   .     S
C326   C1271   1.402   1_554 S
C327   H386    1.081   .     S
C327   C1282   1.389   .     S
C328   H356    1.107   .     S
C328   C352    1.525   .     S
C328   H357    1.109   .     S
C328   C329    1.507   .     S
C329   H354    1.102   .     S
C329   H355    1.102   .     S
C330   H400    1.103   .     S
C330   H398    1.101   .     S
C330   H399    1.107   .     S
C330   C641    1.541   .     S
C331   C332    1.527   .     S
C331   H365    1.102   .     S
C331   H363    1.111   .     S
C332   H361    1.104   .     S
C332   H362    1.108   .     S
C332   C645    1.526   .     S
C333   H360    1.110   .     S
C333   H358    1.107   .     S
C333   H359    1.109   .     S
C334   O414    1.419   .     S
C334   C1584   1.525   .     S
C334   H678    1.110   .     S
C334   H1303   1.105   .     S
C335   O414    1.392   .     S
C335   C1262   1.402   .     S
C336   H369    1.104   .     S
C336   C337    1.520   .     S
C336   C958    1.525   1_554 S
C336   H1304   1.109   1_554 S
C337   H371    1.107   .     S
C337   H474    1.110   .     S
C337   H1412   1.110   1_554 S
C338   C339    1.529   .     S
C338   H1309   1.105   1_554 S
C338   H1622   1.102   1_554 S
C338   O716    1.415   .     S
C339   H377    1.107   .     S
C339   H376    1.107   .     S
C339   C340    1.524   .     S
C340   H378    1.105   .     S
C340   H380    1.108   .     S
C340   H379    1.109   .     S
C341   H382    1.102   .     S
C341   H381    1.096   .     S
C341   C342    1.517   .     S
C341   O509    1.400   .     S
C342   H487    1.109   .     S
C342   H488    1.097   .     S
C343   H387    1.109   .     S
C343   H388    1.107   .     S
C343   C654    1.525   .     S
C343   H697    1.108   .     S
C344   H389    1.105   .     S
C344   C345    1.539   .     S
C344   H390    1.097   .     S
C344   O614    1.405   1_455 S
C345   H392    1.110   .     S
C345   C347    1.523   .     S
C345   H599    1.106   1_455 S
C346   O404    1.393   .     S
C346   C1263   1.389   1_554 S
C347   H393    1.101   .     S
C347   H394    1.110   .     S
C347   H395    1.108   .     S
C348   C661    1.342   .     S
C348   H708    1.076   .     S
C350   O410    1.310   .     A
C350   O412    1.313   .     A
C351   O411    1.315   .     A
C351   O413    1.325   .     A
H367   C1270   1.105   1_554 S
H368   C1272   1.109   .     S
H370   C545    1.110   1_455 S
H372   C1481   1.110   1_455 S
H373   C1274   1.105   .     S
H374   C962    1.102   .     S
H383   C550    1.109   1_455 S
H384   C550    1.097   1_455 S
H391   C449    1.106   .     S
H397   C661    1.087   .     S
N401   Zn416   2.077   .     S
N401   N506    1.266   .     S
N401   O509    1.352   .     S
N402   Zn415   2.077   .     S
N402   N609    1.266   1_455 S
N402   O614    1.349   1_455 S
O403   Zn415   1.940   .     S
O405   N609    1.352   1_455 S
O405   C549    1.400   1_455 S
O406   C448    1.405   .     S
O406   N506    1.349   .     S
O407   Zn416   1.940   .     S
O408   Zn416   1.963   .     S
O409   Zn415   1.963   .     S
O410   Zn415   2.015   .     S
O411   Zn416   2.015   .     S
O412   Zn416   2.031   .     S
O413   Zn415   2.031   .     S
C417   O507    1.298   .     A
C417   O512    1.317   .     A
C417   C452    1.413   .     S
C418   C429    1.429   .     A
C418   C420    1.412   .     A
C418   C435    1.528   .     S
C419   C455    1.460   .     S
C419   C456    1.432   .     A
C419   C421    1.387   .     A
C420   C422    1.373   .     A
C420   C454    1.428   .     S
C421   C423    1.380   .     A
C421   H457    1.082   .     S
C422   C424    1.370   .     A
C422   H468    1.087   .     S
C423   C430    1.395   .     A
C423   C425    1.403   .     A
C424   C426    1.404   .     A
C424   C431    1.380   .     A
C425   C427    1.431   .     A
C425   C1362   1.407   1_554 S
C426   C429    1.432   .     A
C426   C1361   1.407   .     S
C427   C450    1.445   .     A
C427   C456    1.439   .     A
C428   C453    1.420   .     S
C428   O511    1.303   .     A
C428   O513    1.319   .     A
C429   C439    1.425   .     A
C430   H479    1.083   .     S
C430   C1375   1.402   1_554 S
C431   H490    1.081   .     S
C431   C1386   1.389   .     S
C432   H460    1.107   .     S
C432   C456    1.525   .     S
C432   H461    1.109   .     S
C432   C433    1.507   .     S
C433   H458    1.102   .     S
C433   H459    1.102   .     S
C434   H504    1.103   .     S
C434   H502    1.101   .     S
C434   H503    1.107   .     S
C434   C745    1.541   .     S
C435   C436    1.527   .     S
C435   H469    1.102   .     S
C435   H467    1.111   .     S
C436   H465    1.104   .     S
C436   H466    1.108   .     S
C436   C749    1.526   .     S
C437   H464    1.110   .     S
C437   H462    1.107   .     S
C437   H463    1.109   .     S
C438   O518    1.419   .     S
C438   C1688   1.525   .     S
C438   H782    1.110   .     S
C438   H1407   1.105   .     S
C439   O518    1.392   .     S
C439   C1366   1.402   .     S
C440   H473    1.104   .     S
C440   C441    1.520   .     S
C440   C1062   1.525   1_554 S
C440   H1408   1.109   1_554 S
C441   H475    1.107   .     S
C441   H578    1.110   .     S
C441   H1516   1.110   1_554 S
C442   C443    1.529   .     S
C442   H1413   1.105   1_554 S
C442   H1726   1.102   1_554 S
C442   O820    1.415   .     S
C443   H481    1.107   .     S
C443   H480    1.107   .     S
C443   C444    1.524   .     S
C444   H482    1.105   .     S
C444   H484    1.108   .     S
C444   H483    1.109   .     S
C445   H486    1.102   .     S
C445   H485    1.096   .     S
C445   C446    1.517   .     S
C445   O613    1.400   .     S
C446   H591    1.109   .     S
C446   H592    1.097   .     S
C447   H491    1.109   .     S
C447   H492    1.107   .     S
C447   C758    1.525   .     S
C447   H801    1.108   .     S
C448   H493    1.105   .     S
C448   C449    1.539   .     S
C448   H494    1.097   .     S
C449   H496    1.110   .     S
C449   C451    1.523   .     S
C450   O508    1.393   .     S
C450   C1367   1.389   1_554 S
C451   H497    1.101   .     S
C451   H498    1.110   .     S
C451   H499    1.108   .     S
C452   C765    1.342   .     S
C452   H812    1.076   .     S
C454   O514    1.310   .     A
C454   O516    1.313   .     A
C455   O515    1.315   .     A
C455   O517    1.325   .     A
H471   C1374   1.105   1_554 S
H472   C1376   1.109   .     S
H476   C1273   1.110   .     S
H477   C1378   1.105   .     S
H478   C1066   1.102   .     S
H495   C553    1.106   .     S
H501   C765    1.087   .     S
N505   Zn520   2.077   .     S
N505   N610    1.266   .     S
N505   O613    1.352   .     S
N506   Zn519   2.077   .     S
O507   Zn519   1.940   .     S
O510   C552    1.405   .     S
O510   N610    1.349   .     S
O511   Zn520   1.940   .     S
O512   Zn520   1.963   .     S
O513   Zn519   1.963   .     S
O514   Zn519   2.015   .     S
O515   Zn520   2.015   .     S
O516   Zn520   2.031   .     S
O517   Zn519   2.031   .     S
C521   O611    1.298   .     A
C521   O616    1.317   .     A
C521   C556    1.413   .     S
C522   C533    1.429   .     A
C522   C524    1.412   .     A
C522   C539    1.528   .     S
C523   C559    1.460   .     S
C523   C560    1.432   .     A
C523   C525    1.387   .     A
C524   C526    1.373   .     A
C524   C558    1.428   .     S
C525   C527    1.380   .     A
C525   H561    1.082   .     S
C526   C528    1.370   .     A
C526   H572    1.087   .     S
C527   C534    1.395   .     A
C527   C529    1.403   .     A
C528   C530    1.404   .     A
C528   C535    1.380   .     A
C529   C531    1.431   .     A
C529   C1466   1.407   1_554 S
C530   C533    1.432   .     A
C530   C1465   1.407   .     S
C531   C554    1.445   .     A
C531   C560    1.439   .     A
C532   C557    1.420   .     S
C532   O615    1.303   .     A
C532   O617    1.319   .     A
C533   C543    1.425   .     A
C534   H583    1.083   .     S
C534   C1479   1.402   1_554 S
C535   H594    1.081   .     S
C535   C1490   1.389   .     S
C536   H564    1.107   .     S
C536   C560    1.525   .     S
C536   H565    1.109   .     S
C536   C537    1.507   .     S
C537   H562    1.102   .     S
C537   H563    1.102   .     S
C538   H608    1.103   .     S
C538   H606    1.101   .     S
C538   H607    1.107   .     S
C538   C849    1.541   .     S
C539   C540    1.527   .     S
C539   H573    1.102   .     S
C539   H571    1.111   .     S
C540   H569    1.104   .     S
C540   H570    1.108   .     S
C540   C853    1.526   .     S
C541   H568    1.110   .     S
C541   H566    1.107   .     S
C541   H567    1.109   .     S
C542   O622    1.419   .     S
C542   C1792   1.525   .     S
C542   H886    1.110   .     S
C542   H1511   1.105   .     S
C543   O622    1.392   .     S
C543   C1470   1.402   .     S
C544   H577    1.104   .     S
C544   C545    1.520   .     S
C544   C1166   1.525   1_554 S
C544   H1512   1.109   1_554 S
C545   H579    1.107   .     S
C545   H370    1.110   1_655 S
C545   H1308   1.110   1_654 S
C546   C547    1.529   .     S
C546   H1517   1.105   1_554 S
C546   H1830   1.102   1_554 S
C546   O924    1.415   .     S
C547   H585    1.107   .     S
C547   H584    1.107   .     S
C547   C548    1.524   .     S
C548   H586    1.105   .     S
C548   H588    1.108   .     S
C548   H587    1.109   .     S
C549   H590    1.102   .     S
C549   H589    1.096   .     S
C549   C550    1.517   .     S
C549   O405    1.400   1_655 S
C550   H383    1.109   1_655 S
C550   H384    1.097   1_655 S
C551   H595    1.109   .     S
C551   H596    1.107   .     S
C551   C862    1.525   .     S
C551   H905    1.108   .     S
C552   H597    1.105   .     S
C552   C553    1.539   .     S
C552   H598    1.097   .     S
C553   H600    1.110   .     S
C553   C555    1.523   .     S
C554   O612    1.393   .     S
C554   C1471   1.389   1_554 S
C555   H601    1.101   .     S
C555   H602    1.110   .     S
C555   H603    1.108   .     S
C556   C869    1.342   .     S
C556   H916    1.076   .     S
C558   O618    1.310   .     A
C558   O620    1.313   .     A
C559   O619    1.315   .     A
C559   O621    1.325   .     A
H575   C1478   1.105   1_554 S
H576   C1480   1.109   .     S
H580   C1377   1.110   .     S
H581   C1482   1.105   .     S
H582   C1170   1.102   .     S
H599   C345    1.106   1_655 S
H605   C869    1.087   .     S
N609   Zn624   2.077   .     S
N609   N402    1.266   1_655 S
N609   O405    1.352   1_655 S
N610   Zn623   2.077   .     S
O611   Zn623   1.940   .     S
O614   C344    1.405   1_655 S
O614   N402    1.349   1_655 S
O615   Zn624   1.940   .     S
O616   Zn624   1.963   .     S
O617   Zn623   1.963   .     S
O618   Zn623   2.015   .     S
O619   Zn624   2.015   .     S
O620   Zn624   2.031   .     S
O621   Zn623   2.031   .     S
C625   O715    1.298   .     A
C625   O720    1.317   .     A
C625   C660    1.413   .     S
C626   C637    1.429   .     A
C626   C628    1.412   .     A
C626   C643    1.528   .     S
C627   C663    1.460   .     S
C627   C664    1.432   .     A
C627   C629    1.387   .     A
C628   C630    1.373   .     A
C628   C662    1.428   .     S
C629   C631    1.380   .     A
C629   H665    1.082   .     S
C630   C632    1.370   .     A
C630   H676    1.087   .     S
C631   C638    1.395   .     A
C631   C633    1.403   .     A
C632   C634    1.404   .     A
C632   C639    1.380   .     A
C633   C635    1.431   .     A
C633   C1570   1.407   1_554 S
C634   C637    1.432   .     A
C634   C1569   1.407   .     S
C635   C658    1.445   .     A
C635   C664    1.439   .     A
C636   C661    1.420   .     S
C636   O719    1.303   .     A
C636   O721    1.319   .     A
C637   C647    1.425   .     A
C638   H687    1.083   .     S
C638   C1583   1.402   1_554 S
C639   H698    1.081   .     S
C639   C1594   1.389   .     S
C640   H668    1.107   .     S
C640   C664    1.525   .     S
C640   H669    1.109   .     S
C640   C641    1.507   .     S
C641   H666    1.102   .     S
C641   H667    1.102   .     S
C642   H712    1.103   .     S
C642   H710    1.101   .     S
C642   H711    1.107   .     S
C642   C17     1.541   1_565 S
C643   C644    1.527   .     S
C643   H677    1.102   .     S
C643   H675    1.111   .     S
C644   H673    1.104   .     S
C644   H674    1.108   .     S
C644   C21     1.526   1_565 S
C645   H672    1.110   .     S
C645   H670    1.107   .     S
C645   H671    1.109   .     S
C646   O726    1.419   .     S
C646   C960    1.525   1_565 S
C646   H54     1.110   1_565 S
C646   H1615   1.105   .     S
C647   O726    1.392   .     S
C647   C1574   1.402   .     S
C648   H681    1.104   .     S
C648   C649    1.520   .     S
C648   C1270   1.525   1_554 S
C648   H1616   1.109   1_554 S
C649   H683    1.107   .     S
C649   H786    1.110   .     S
C649   H1724   1.110   1_554 S
C650   C651    1.529   .     S
C650   H1621   1.105   1_554 S
C650   H998    1.102   1_564 S
C650   O92     1.415   1_565 S
C651   H689    1.107   .     S
C651   H688    1.107   .     S
C651   C652    1.524   .     S
C652   H690    1.105   .     S
C652   H692    1.108   .     S
C652   H691    1.109   .     S
C653   H694    1.102   .     S
C653   H693    1.096   .     S
C653   C654    1.517   .     S
C653   O821    1.400   .     S
C654   H799    1.109   .     S
C654   H800    1.097   .     S
C655   H699    1.109   .     S
C655   H700    1.107   .     S
C655   C30     1.525   1_565 S
C655   H73     1.108   1_565 S
C656   H701    1.105   .     S
C656   C657    1.539   .     S
C656   H702    1.097   .     S
C656   O926    1.405   1_455 S
C657   H704    1.110   .     S
C657   C659    1.523   .     S
C657   H911    1.106   1_455 S
C658   O716    1.393   .     S
C658   C1575   1.389   1_554 S
C659   H705    1.101   .     S
C659   H706    1.110   .     S
C659   H707    1.108   .     S
C660   C37     1.342   1_565 S
C660   H84     1.076   1_565 S
C662   O722    1.310   .     A
C662   O724    1.313   .     A
C663   O723    1.315   .     A
C663   O725    1.325   .     A
H679   C1582   1.105   1_554 S
H680   C1584   1.109   .     S
H682   C857    1.110   1_455 S
H684   C1793   1.110   1_455 S
H685   C1586   1.105   .     S
H686   C1274   1.102   .     S
H695   C862    1.109   1_455 S
H696   C862    1.097   1_455 S
H703   C761    1.106   .     S
H709   C37     1.087   1_565 S
N713   Zn728   2.077   .     S
N713   N818    1.266   .     S
N713   O821    1.352   .     S
N714   Zn727   2.077   .     S
N714   N921    1.266   1_455 S
N714   O926    1.349   1_455 S
O715   Zn727   1.940   .     S
O717   N921    1.352   1_455 S
O717   C861    1.400   1_455 S
O718   C760    1.405   .     S
O718   N818    1.349   .     S
O719   Zn728   1.940   .     S
O720   Zn728   1.963   .     S
O721   Zn727   1.963   .     S
O722   Zn727   2.015   .     S
O723   Zn728   2.015   .     S
O724   Zn728   2.031   .     S
O725   Zn727   2.031   .     S
C729   O819    1.298   .     A
C729   O824    1.317   .     A
C729   C764    1.413   .     S
C730   C741    1.429   .     A
C730   C732    1.412   .     A
C730   C747    1.528   .     S
C731   C767    1.460   .     S
C731   C768    1.432   .     A
C731   C733    1.387   .     A
C732   C734    1.373   .     A
C732   C766    1.428   .     S
C733   C735    1.380   .     A
C733   H769    1.082   .     S
C734   C736    1.370   .     A
C734   H780    1.087   .     S
C735   C742    1.395   .     A
C735   C737    1.403   .     A
C736   C738    1.404   .     A
C736   C743    1.380   .     A
C737   C739    1.431   .     A
C737   C1674   1.407   1_554 S
C738   C741    1.432   .     A
C738   C1673   1.407   .     S
C739   C762    1.445   .     A
C739   C768    1.439   .     A
C740   C765    1.420   .     S
C740   O823    1.303   .     A
C740   O825    1.319   .     A
C741   C751    1.425   .     A
C742   H791    1.083   .     S
C742   C1687   1.402   1_554 S
C743   H802    1.081   .     S
C743   C1698   1.389   .     S
C744   H772    1.107   .     S
C744   C768    1.525   .     S
C744   H773    1.109   .     S
C744   C745    1.507   .     S
C745   H770    1.102   .     S
C745   H771    1.102   .     S
C746   H816    1.103   .     S
C746   H814    1.101   .     S
C746   H815    1.107   .     S
C746   C121    1.541   1_565 S
C747   C748    1.527   .     S
C747   H781    1.102   .     S
C747   H779    1.111   .     S
C748   H777    1.104   .     S
C748   H778    1.108   .     S
C748   C125    1.526   1_565 S
C749   H776    1.110   .     S
C749   H774    1.107   .     S
C749   H775    1.109   .     S
C750   O830    1.419   .     S
C750   C1064   1.525   1_565 S
C750   H158    1.110   1_565 S
C750   H1719   1.105   .     S
C751   O830    1.392   .     S
C751   C1678   1.402   .     S
C752   H785    1.104   .     S
C752   C753    1.520   .     S
C752   C1374   1.525   1_554 S
C752   H1720   1.109   1_554 S
C753   H787    1.107   .     S
C753   H890    1.110   .     S
C753   H1828   1.110   1_554 S
C754   C755    1.529   .     S
C754   H1725   1.105   1_554 S
C754   H1102   1.102   1_564 S
C754   O196    1.415   1_565 S
C755   H793    1.107   .     S
C755   H792    1.107   .     S
C755   C756    1.524   .     S
C756   H794    1.105   .     S
C756   H796    1.108   .     S
C756   H795    1.109   .     S
C757   H798    1.102   .     S
C757   H797    1.096   .     S
C757   C758    1.517   .     S
C757   O925    1.400   .     S
C758   H903    1.109   .     S
C758   H904    1.097   .     S
C759   H803    1.109   .     S
C759   H804    1.107   .     S
C759   C134    1.525   1_565 S
C759   H177    1.108   1_565 S
C760   H805    1.105   .     S
C760   C761    1.539   .     S
C760   H806    1.097   .     S
C761   H808    1.110   .     S
C761   C763    1.523   .     S
C762   O820    1.393   .     S
C762   C1679   1.389   1_554 S
C763   H809    1.101   .     S
C763   H810    1.110   .     S
C763   H811    1.108   .     S
C764   C141    1.342   1_565 S
C764   H188    1.076   1_565 S
C766   O826    1.310   .     A
C766   O828    1.313   .     A
C767   O827    1.315   .     A
C767   O829    1.325   .     A
H783   C1686   1.105   1_554 S
H784   C1688   1.109   .     S
H788   C1585   1.110   .     S
H789   C1690   1.105   .     S
H790   C1378   1.102   .     S
H807   C865    1.106   .     S
H813   C141    1.087   1_565 S
N817   Zn832   2.077   .     S
N817   N922    1.266   .     S
N817   O925    1.352   .     S
N818   Zn831   2.077   .     S
O819   Zn831   1.940   .     S
O822   C864    1.405   .     S
O822   N922    1.349   .     S
O823   Zn832   1.940   .     S
O824   Zn832   1.963   .     S
O825   Zn831   1.963   .     S
O826   Zn831   2.015   .     S
O827   Zn832   2.015   .     S
O828   Zn832   2.031   .     S
O829   Zn831   2.031   .     S
C833   O923    1.298   .     A
C833   O928    1.317   .     A
C833   C868    1.413   .     S
C834   C845    1.429   .     A
C834   C836    1.412   .     A
C834   C851    1.528   .     S
C835   C871    1.460   .     S
C835   C872    1.432   .     A
C835   C837    1.387   .     A
C836   C838    1.373   .     A
C836   C870    1.428   .     S
C837   C839    1.380   .     A
C837   H873    1.082   .     S
C838   C840    1.370   .     A
C838   H884    1.087   .     S
C839   C846    1.395   .     A
C839   C841    1.403   .     A
C840   C842    1.404   .     A
C840   C847    1.380   .     A
C841   C843    1.431   .     A
C841   C1778   1.407   1_554 S
C842   C845    1.432   .     A
C842   C1777   1.407   .     S
C843   C866    1.445   .     A
C843   C872    1.439   .     A
C844   C869    1.420   .     S
C844   O927    1.303   .     A
C844   O929    1.319   .     A
C845   C855    1.425   .     A
C846   H895    1.083   .     S
C846   C1791   1.402   1_554 S
C847   H906    1.081   .     S
C847   C1802   1.389   .     S
C848   H876    1.107   .     S
C848   C872    1.525   .     S
C848   H877    1.109   .     S
C848   C849    1.507   .     S
C849   H874    1.102   .     S
C849   H875    1.102   .     S
C850   H920    1.103   .     S
C850   H918    1.101   .     S
C850   H919    1.107   .     S
C850   C225    1.541   1_565 S
C851   C852    1.527   .     S
C851   H885    1.102   .     S
C851   H883    1.111   .     S
C852   H881    1.104   .     S
C852   H882    1.108   .     S
C852   C229    1.526   1_565 S
C853   H880    1.110   .     S
C853   H878    1.107   .     S
C853   H879    1.109   .     S
C854   O934    1.419   .     S
C854   C1168   1.525   1_565 S
C854   H262    1.110   1_565 S
C854   H1823   1.105   .     S
C855   O934    1.392   .     S
C855   C1782   1.402   .     S
C856   H889    1.104   .     S
C856   C857    1.520   .     S
C856   C1478   1.525   1_554 S
C856   H1824   1.109   1_554 S
C857   H891    1.107   .     S
C857   H682    1.110   1_655 S
C857   H1620   1.110   1_654 S
C858   C859    1.529   .     S
C858   H1829   1.105   1_554 S
C858   H1206   1.102   1_564 S
C858   O300    1.415   1_565 S
C859   H897    1.107   .     S
C859   H896    1.107   .     S
C859   C860    1.524   .     S
C860   H898    1.105   .     S
C860   H900    1.108   .     S
C860   H899    1.109   .     S
C861   H902    1.102   .     S
C861   H901    1.096   .     S
C861   C862    1.517   .     S
C861   O717    1.400   1_655 S
C862   H695    1.109   1_655 S
C862   H696    1.097   1_655 S
C863   H907    1.109   .     S
C863   H908    1.107   .     S
C863   C238    1.525   1_565 S
C863   H281    1.108   1_565 S
C864   H909    1.105   .     S
C864   C865    1.539   .     S
C864   H910    1.097   .     S
C865   H912    1.110   .     S
C865   C867    1.523   .     S
C866   O924    1.393   .     S
C866   C1783   1.389   1_554 S
C867   H913    1.101   .     S
C867   H914    1.110   .     S
C867   H915    1.108   .     S
C868   C245    1.342   1_565 S
C868   H292    1.076   1_565 S
C870   O930    1.310   .     A
C870   O932    1.313   .     A
C871   O931    1.315   .     A
C871   O933    1.325   .     A
H887   C1790   1.105   1_554 S
H888   C1792   1.109   .     S
H892   C1689   1.110   .     S
H893   C1794   1.105   .     S
H894   C1482   1.102   .     S
H911   C657    1.106   1_655 S
H917   C245    1.087   1_565 S
N921   Zn936   2.077   .     S
N921   N714    1.266   1_655 S
N921   O717    1.352   1_655 S
N922   Zn935   2.077   .     S
O923   Zn935   1.940   .     S
O926   C656    1.405   1_655 S
O926   N714    1.349   1_655 S
O927   Zn936   1.940   .     S
O928   Zn936   1.963   .     S
O929   Zn935   1.963   .     S
O930   Zn935   2.015   .     S
O931   Zn936   2.015   .     S
O932   Zn936   2.031   .     S
O933   Zn935   2.031   .     S
C937   O1027   1.298   .     A
C937   O1032   1.317   .     A
C937   C972    1.413   .     S
C938   C949    1.429   .     A
C938   C940    1.412   .     A
C938   C955    1.528   .     S
C939   C975    1.460   .     S
C939   C976    1.432   .     A
C939   C941    1.387   .     A
C940   C942    1.373   .     A
C940   C974    1.428   .     S
C941   C943    1.380   .     A
C941   H977    1.082   .     S
C942   C944    1.370   .     A
C942   H988    1.087   .     S
C943   C950    1.395   .     A
C943   C945    1.403   .     A
C944   C946    1.404   .     A
C944   C951    1.380   .     A
C945   C947    1.431   .     A
C946   C949    1.432   .     A
C946   C9      1.407   1_556 S
C947   C970    1.445   .     A
C947   C976    1.439   .     A
C948   C973    1.420   .     S
C948   O1031   1.303   .     A
C948   O1033   1.319   .     A
C949   C959    1.425   .     A
C950   H999    1.083   .     S
C951   H1010   1.081   .     S
C951   C34     1.389   1_556 S
C952   H980    1.107   .     S
C952   C976    1.525   .     S
C952   H981    1.109   .     S
C952   C953    1.507   .     S
C953   H978    1.102   .     S
C953   H979    1.102   .     S
C953   C1578   1.541   1_545 S
C954   H1024   1.103   .     S
C954   H1022   1.101   .     S
C954   H1023   1.107   .     S
C954   C1265   1.541   .     S
C955   C956    1.527   .     S
C955   H989    1.102   .     S
C955   H987    1.111   .     S
C956   H985    1.104   .     S
C956   H986    1.108   .     S
C956   C1269   1.526   .     S
C957   H984    1.110   .     S
C957   H982    1.107   .     S
C957   H983    1.109   .     S
C957   C1580   1.526   1_545 S
C958   O1038   1.419   .     S
C958   C336    1.525   1_556 S
C958   H1302   1.110   .     S
C958   H55     1.105   1_556 S
C959   O1038   1.392   .     S
C959   C14     1.402   1_556 S
C960   H993    1.104   .     S
C960   C961    1.520   .     S
C960   C646    1.525   1_545 S
C961   H995    1.107   .     S
C961   H1098   1.110   .     S
C962   C963    1.529   .     S
C962   O1340   1.415   .     S
C963   H1001   1.107   .     S
C963   H1000   1.107   .     S
C963   C964    1.524   .     S
C964   H1002   1.105   .     S
C964   H1004   1.108   .     S
C964   H1003   1.109   .     S
C965   H1006   1.102   .     S
C965   H1005   1.096   .     S
C965   C966    1.517   .     S
C965   O1133   1.400   .     S
C966   C1591   1.525   1_545 S
C966   H1111   1.109   .     S
C966   H1112   1.097   .     S
C967   H1011   1.109   .     S
C967   H1012   1.107   .     S
C967   C1278   1.525   .     S
C967   H1321   1.108   .     S
C968   H1013   1.105   .     S
C968   C969    1.539   .     S
C968   H1014   1.097   .     S
C968   O1238   1.405   1_455 S
C969   H1016   1.110   .     S
C969   C971    1.523   .     S
C969   H1223   1.106   1_455 S
C970   O1028   1.393   .     S
C971   H1017   1.101   .     S
C971   H1018   1.110   .     S
C971   H1019   1.108   .     S
C972   C1285   1.342   .     S
C972   H1332   1.076   .     S
C973   C1596   1.342   1_545 S
C973   H1645   1.087   1_545 S
C974   O1034   1.310   .     A
C974   O1036   1.313   .     A
C975   O1035   1.315   .     A
C975   O1037   1.325   .     A
H990   C1582   1.110   1_545 S
H992   C24     1.109   1_556 S
H994   C1169   1.110   1_455 S
H996   C233    1.110   1_456 S
H997   C26     1.105   1_556 S
H998   C650    1.102   1_546 S
H1007  C1174   1.109   1_455 S
H1008  C1174   1.097   1_455 S
H1009  C1591   1.108   1_545 S
H1015  C1073   1.106   .     S
H1020  C1596   1.076   1_545 S
H1021  C1285   1.087   .     S
N1025  Zn1040  2.077   .     S
N1025  N1130   1.266   .     S
N1025  O1133   1.352   .     S
N1026  Zn1039  2.077   .     S
N1026  N1233   1.266   1_455 S
N1026  O1238   1.349   1_455 S
O1027  Zn1039  1.940   .     S
O1028  C1586   1.415   1_545 S
O1029  N1233   1.352   1_455 S
O1029  C1173   1.400   1_455 S
O1030  C1072   1.405   .     S
O1030  N1130   1.349   .     S
O1031  Zn1040  1.940   .     S
O1032  Zn1040  1.963   .     S
O1033  Zn1039  1.963   .     S
O1034  Zn1039  2.015   .     S
O1035  Zn1040  2.015   .     S
O1036  Zn1040  2.031   .     S
O1037  Zn1039  2.031   .     S
C1041  O1131   1.298   .     A
C1041  O1136   1.317   .     A
C1041  C1076   1.413   .     S
C1042  C1053   1.429   .     A
C1042  C1044   1.412   .     A
C1042  C1059   1.528   .     S
C1043  C1079   1.460   .     S
C1043  C1080   1.432   .     A
C1043  C1045   1.387   .     A
C1044  C1046   1.373   .     A
C1044  C1078   1.428   .     S
C1045  C1047   1.380   .     A
C1045  H1081   1.082   .     S
C1046  C1048   1.370   .     A
C1046  H1092   1.087   .     S
C1047  C1054   1.395   .     A
C1047  C1049   1.403   .     A
C1048  C1050   1.404   .     A
C1048  C1055   1.380   .     A
C1049  C1051   1.431   .     A
C1050  C1053   1.432   .     A
C1050  C113    1.407   1_556 S
C1051  C1074   1.445   .     A
C1051  C1080   1.439   .     A
C1052  C1077   1.420   .     S
C1052  O1135   1.303   .     A
C1052  O1137   1.319   .     A
C1053  C1063   1.425   .     A
C1054  H1103   1.083   .     S
C1055  H1114   1.081   .     S
C1055  C138    1.389   1_556 S
C1056  H1084   1.107   .     S
C1056  C1080   1.525   .     S
C1056  H1085   1.109   .     S
C1056  C1057   1.507   .     S
C1057  H1082   1.102   .     S
C1057  H1083   1.102   .     S
C1057  C1682   1.541   1_545 S
C1058  H1128   1.103   .     S
C1058  H1126   1.101   .     S
C1058  H1127   1.107   .     S
C1058  C1369   1.541   .     S
C1059  C1060   1.527   .     S
C1059  H1093   1.102   .     S
C1059  H1091   1.111   .     S
C1060  H1089   1.104   .     S
C1060  H1090   1.108   .     S
C1060  C1373   1.526   .     S
C1061  H1088   1.110   .     S
C1061  H1086   1.107   .     S
C1061  H1087   1.109   .     S
C1061  C1684   1.526   1_545 S
C1062  O1142   1.419   .     S
C1062  C440    1.525   1_556 S
C1062  H1406   1.110   .     S
C1062  H159    1.105   1_556 S
C1063  O1142   1.392   .     S
C1063  C118    1.402   1_556 S
C1064  H1097   1.104   .     S
C1064  C1065   1.520   .     S
C1064  C750    1.525   1_545 S
C1065  H1099   1.107   .     S
C1065  H1202   1.110   .     S
C1066  C1067   1.529   .     S
C1066  O1444   1.415   .     S
C1067  H1105   1.107   .     S
C1067  H1104   1.107   .     S
C1067  C1068   1.524   .     S
C1068  H1106   1.105   .     S
C1068  H1108   1.108   .     S
C1068  H1107   1.109   .     S
C1069  H1110   1.102   .     S
C1069  H1109   1.096   .     S
C1069  C1070   1.517   .     S
C1069  O1237   1.400   .     S
C1070  C1695   1.525   1_545 S
C1070  H1215   1.109   .     S
C1070  H1216   1.097   .     S
C1071  H1115   1.109   .     S
C1071  H1116   1.107   .     S
C1071  C1382   1.525   .     S
C1071  H1425   1.108   .     S
C1072  H1117   1.105   .     S
C1072  C1073   1.539   .     S
C1072  H1118   1.097   .     S
C1073  H1120   1.110   .     S
C1073  C1075   1.523   .     S
C1074  O1132   1.393   .     S
C1075  H1121   1.101   .     S
C1075  H1122   1.110   .     S
C1075  H1123   1.108   .     S
C1076  C1389   1.342   .     S
C1076  H1436   1.076   .     S
C1077  C1700   1.342   1_545 S
C1077  H1749   1.087   1_545 S
C1078  O1138   1.310   .     A
C1078  O1140   1.313   .     A
C1079  O1139   1.315   .     A
C1079  O1141   1.325   .     A
H1094  C1686   1.110   1_545 S
H1096  C128    1.109   1_556 S
H1100  C25     1.110   1_556 S
H1101  C130    1.105   1_556 S
H1102  C754    1.102   1_546 S
H1113  C1695   1.108   1_545 S
H1119  C1177   1.106   .     S
H1124  C1700   1.076   1_545 S
H1125  C1389   1.087   .     S
N1129  Zn1144  2.077   .     S
N1129  N1234   1.266   .     S
N1129  O1237   1.352   .     S
N1130  Zn1143  2.077   .     S
O1131  Zn1143  1.940   .     S
O1132  C1690   1.415   1_545 S
O1134  C1176   1.405   .     S
O1134  N1234   1.349   .     S
O1135  Zn1144  1.940   .     S
O1136  Zn1144  1.963   .     S
O1137  Zn1143  1.963   .     S
O1138  Zn1143  2.015   .     S
O1139  Zn1144  2.015   .     S
O1140  Zn1144  2.031   .     S
O1141  Zn1143  2.031   .     S
C1145  O1235   1.298   .     A
C1145  O1240   1.317   .     A
C1145  C1180   1.413   .     S
C1146  C1157   1.429   .     A
C1146  C1148   1.412   .     A
C1146  C1163   1.528   .     S
C1147  C1183   1.460   .     S
C1147  C1184   1.432   .     A
C1147  C1149   1.387   .     A
C1148  C1150   1.373   .     A
C1148  C1182   1.428   .     S
C1149  C1151   1.380   .     A
C1149  H1185   1.082   .     S
C1150  C1152   1.370   .     A
C1150  H1196   1.087   .     S
C1151  C1158   1.395   .     A
C1151  C1153   1.403   .     A
C1152  C1154   1.404   .     A
C1152  C1159   1.380   .     A
C1153  C1155   1.431   .     A
C1154  C1157   1.432   .     A
C1154  C217    1.407   1_556 S
C1155  C1178   1.445   .     A
C1155  C1184   1.439   .     A
C1156  C1181   1.420   .     S
C1156  O1239   1.303   .     A
C1156  O1241   1.319   .     A
C1157  C1167   1.425   .     A
C1158  H1207   1.083   .     S
C1159  H1218   1.081   .     S
C1159  C242    1.389   1_556 S
C1160  H1188   1.107   .     S
C1160  C1184   1.525   .     S
C1160  H1189   1.109   .     S
C1160  C1161   1.507   .     S
C1161  H1186   1.102   .     S
C1161  H1187   1.102   .     S
C1161  C1786   1.541   1_545 S
C1162  H1232   1.103   .     S
C1162  H1230   1.101   .     S
C1162  H1231   1.107   .     S
C1162  C1473   1.541   .     S
C1163  C1164   1.527   .     S
C1163  H1197   1.102   .     S
C1163  H1195   1.111   .     S
C1164  H1193   1.104   .     S
C1164  H1194   1.108   .     S
C1164  C1477   1.526   .     S
C1165  H1192   1.110   .     S
C1165  H1190   1.107   .     S
C1165  H1191   1.109   .     S
C1165  C1788   1.526   1_545 S
C1166  O1246   1.419   .     S
C1166  C544    1.525   1_556 S
C1166  H1510   1.110   .     S
C1166  H263    1.105   1_556 S
C1167  O1246   1.392   .     S
C1167  C222    1.402   1_556 S
C1168  H1201   1.104   .     S
C1168  C1169   1.520   .     S
C1168  C854    1.525   1_545 S
C1169  H1203   1.107   .     S
C1169  H994    1.110   1_655 S
C1169  H60     1.110   1_655 S
C1170  C1171   1.529   .     S
C1170  O1548   1.415   .     S
C1171  H1209   1.107   .     S
C1171  H1208   1.107   .     S
C1171  C1172   1.524   .     S
C1172  H1210   1.105   .     S
C1172  H1212   1.108   .     S
C1172  H1211   1.109   .     S
C1173  H1214   1.102   .     S
C1173  H1213   1.096   .     S
C1173  C1174   1.517   .     S
C1173  O1029   1.400   1_655 S
C1174  C1799   1.525   1_545 S
C1174  H1007   1.109   1_655 S
C1174  H1008   1.097   1_655 S
C1175  H1219   1.109   .     S
C1175  H1220   1.107   .     S
C1175  C1486   1.525   .     S
C1175  H1529   1.108   .     S
C1176  H1221   1.105   .     S
C1176  C1177   1.539   .     S
C1176  H1222   1.097   .     S
C1177  H1224   1.110   .     S
C1177  C1179   1.523   .     S
C1178  O1236   1.393   .     S
C1179  H1225   1.101   .     S
C1179  H1226   1.110   .     S
C1179  H1227   1.108   .     S
C1180  C1493   1.342   .     S
C1180  H1540   1.076   .     S
C1181  C1804   1.342   1_545 S
C1181  H1853   1.087   1_545 S
C1182  O1242   1.310   .     A
C1182  O1244   1.313   .     A
C1183  O1243   1.315   .     A
C1183  O1245   1.325   .     A
H1198  C1790   1.110   1_545 S
H1200  C232    1.109   1_556 S
H1204  C129    1.110   1_556 S
H1205  C234    1.105   1_556 S
H1206  C858    1.102   1_546 S
H1217  C1799   1.108   1_545 S
H1223  C969    1.106   1_655 S
H1228  C1804   1.076   1_545 S
H1229  C1493   1.087   .     S
N1233  Zn1248  2.077   .     S
N1233  N1026   1.266   1_655 S
N1233  O1029   1.352   1_655 S
N1234  Zn1247  2.077   .     S
O1235  Zn1247  1.940   .     S
O1236  C1794   1.415   1_545 S
O1238  C968    1.405   1_655 S
O1238  N1026   1.349   1_655 S
O1239  Zn1248  1.940   .     S
O1240  Zn1248  1.963   .     S
O1241  Zn1247  1.963   .     S
O1242  Zn1247  2.015   .     S
O1243  Zn1248  2.015   .     S
O1244  Zn1248  2.031   .     S
O1245  Zn1247  2.031   .     S
C1249  O1339   1.298   .     A
C1249  O1344   1.317   .     A
C1249  C1284   1.413   .     S
C1250  C1261   1.429   .     A
C1250  C1252   1.412   .     A
C1250  C1267   1.528   .     S
C1251  C1287   1.460   .     S
C1251  C1288   1.432   .     A
C1251  C1253   1.387   .     A
C1252  C1254   1.373   .     A
C1252  C1286   1.428   .     S
C1253  C1255   1.380   .     A
C1253  H1289   1.082   .     S
C1254  C1256   1.370   .     A
C1254  H1300   1.087   .     S
C1255  C1262   1.395   .     A
C1255  C1257   1.403   .     A
C1256  C1258   1.404   .     A
C1256  C1263   1.380   .     A
C1257  C1259   1.431   .     A
C1258  C1261   1.432   .     A
C1258  C321    1.407   1_556 S
C1259  C1282   1.445   .     A
C1259  C1288   1.439   .     A
C1260  C1285   1.420   .     S
C1260  O1343   1.303   .     A
C1260  O1345   1.319   .     A
C1261  C1271   1.425   .     A
C1262  H1311   1.083   .     S
C1263  H1322   1.081   .     S
C1263  C346    1.389   1_556 S
C1264  H1292   1.107   .     S
C1264  C1288   1.525   .     S
C1264  H1293   1.109   .     S
C1264  C1265   1.507   .     S
C1265  H1290   1.102   .     S
C1265  H1291   1.102   .     S
C1266  H1336   1.103   .     S
C1266  H1334   1.101   .     S
C1266  H1335   1.107   .     S
C1266  C1577   1.541   .     S
C1267  C1268   1.527   .     S
C1267  H1301   1.102   .     S
C1267  H1299   1.111   .     S
C1268  H1297   1.104   .     S
C1268  H1298   1.108   .     S
C1268  C1581   1.526   .     S
C1269  H1296   1.110   .     S
C1269  H1294   1.107   .     S
C1269  H1295   1.109   .     S
C1270  O1350   1.419   .     S
C1270  C648    1.525   1_556 S
C1270  H1614   1.110   .     S
C1270  H367    1.105   1_556 S
C1271  O1350   1.392   .     S
C1271  C326    1.402   1_556 S
C1272  H1305   1.104   .     S
C1272  C1273   1.520   .     S
C1273  H1307   1.107   .     S
C1273  H1410   1.110   .     S
C1274  C1275   1.529   .     S
C1274  O1652   1.415   .     S
C1275  H1313   1.107   .     S
C1275  H1312   1.107   .     S
C1275  C1276   1.524   .     S
C1276  H1314   1.105   .     S
C1276  H1316   1.108   .     S
C1276  H1315   1.109   .     S
C1277  H1318   1.102   .     S
C1277  H1317   1.096   .     S
C1277  C1278   1.517   .     S
C1277  O1445   1.400   .     S
C1278  H1423   1.109   .     S
C1278  H1424   1.097   .     S
C1279  H1323   1.109   .     S
C1279  H1324   1.107   .     S
C1279  C1590   1.525   .     S
C1279  H1633   1.108   .     S
C1280  H1325   1.105   .     S
C1280  C1281   1.539   .     S
C1280  H1326   1.097   .     S
C1280  O1550   1.405   1_455 S
C1281  H1328   1.110   .     S
C1281  C1283   1.523   .     S
C1281  H1535   1.106   1_455 S
C1282  O1340   1.393   .     S
C1283  H1329   1.101   .     S
C1283  H1330   1.110   .     S
C1283  H1331   1.108   .     S
C1284  C1597   1.342   .     S
C1284  H1644   1.076   .     S
C1286  O1346   1.310   .     A
C1286  O1348   1.313   .     A
C1287  O1347   1.315   .     A
C1287  O1349   1.325   .     A
H1304  C336    1.109   1_556 S
H1306  C1481   1.110   1_455 S
H1308  C545    1.110   1_456 S
H1309  C338    1.105   1_556 S
H1310  C26     1.102   1_556 S
H1319  C1486   1.109   1_455 S
H1320  C1486   1.097   1_455 S
H1327  C1385   1.106   .     S
H1333  C1597   1.087   .     S
N1337  Zn1352  2.077   .     S
N1337  N1442   1.266   .     S
N1337  O1445   1.352   .     S
N1338  Zn1351  2.077   .     S
N1338  N1545   1.266   1_455 S
N1338  O1550   1.349   1_455 S
O1339  Zn1351  1.940   .     S
O1341  N1545   1.352   1_455 S
O1341  C1485   1.400   1_455 S
O1342  C1384   1.405   .     S
O1342  N1442   1.349   .     S
O1343  Zn1352  1.940   .     S
O1344  Zn1352  1.963   .     S
O1345  Zn1351  1.963   .     S
O1346  Zn1351  2.015   .     S
O1347  Zn1352  2.015   .     S
O1348  Zn1352  2.031   .     S
O1349  Zn1351  2.031   .     S
C1353  O1443   1.298   .     A
C1353  O1448   1.317   .     A
C1353  C1388   1.413   .     S
C1354  C1365   1.429   .     A
C1354  C1356   1.412   .     A
C1354  C1371   1.528   .     S
C1355  C1391   1.460   .     S
C1355  C1392   1.432   .     A
C1355  C1357   1.387   .     A
C1356  C1358   1.373   .     A
C1356  C1390   1.428   .     S
C1357  C1359   1.380   .     A
C1357  H1393   1.082   .     S
C1358  C1360   1.370   .     A
C1358  H1404   1.087   .     S
C1359  C1366   1.395   .     A
C1359  C1361   1.403   .     A
C1360  C1362   1.404   .     A
C1360  C1367   1.380   .     A
C1361  C1363   1.431   .     A
C1362  C1365   1.432   .     A
C1362  C425    1.407   1_556 S
C1363  C1386   1.445   .     A
C1363  C1392   1.439   .     A
C1364  C1389   1.420   .     S
C1364  O1447   1.303   .     A
C1364  O1449   1.319   .     A
C1365  C1375   1.425   .     A
C1366  H1415   1.083   .     S
C1367  H1426   1.081   .     S
C1367  C450    1.389   1_556 S
C1368  H1396   1.107   .     S
C1368  C1392   1.525   .     S
C1368  H1397   1.109   .     S
C1368  C1369   1.507   .     S
C1369  H1394   1.102   .     S
C1369  H1395   1.102   .     S
C1370  H1440   1.103   .     S
C1370  H1438   1.101   .     S
C1370  H1439   1.107   .     S
C1370  C1681   1.541   .     S
C1371  C1372   1.527   .     S
C1371  H1405   1.102   .     S
C1371  H1403   1.111   .     S
C1372  H1401   1.104   .     S
C1372  H1402   1.108   .     S
C1372  C1685   1.526   .     S
C1373  H1400   1.110   .     S
C1373  H1398   1.107   .     S
C1373  H1399   1.109   .     S
C1374  O1454   1.419   .     S
C1374  C752    1.525   1_556 S
C1374  H1718   1.110   .     S
C1374  H471    1.105   1_556 S
C1375  O1454   1.392   .     S
C1375  C430    1.402   1_556 S
C1376  H1409   1.104   .     S
C1376  C1377   1.520   .     S
C1377  H1411   1.107   .     S
C1377  H1514   1.110   .     S
C1378  C1379   1.529   .     S
C1378  O1756   1.415   .     S
C1379  H1417   1.107   .     S
C1379  H1416   1.107   .     S
C1379  C1380   1.524   .     S
C1380  H1418   1.105   .     S
C1380  H1420   1.108   .     S
C1380  H1419   1.109   .     S
C1381  H1422   1.102   .     S
C1381  H1421   1.096   .     S
C1381  C1382   1.517   .     S
C1381  O1549   1.400   .     S
C1382  H1527   1.109   .     S
C1382  H1528   1.097   .     S
C1383  H1427   1.109   .     S
C1383  H1428   1.107   .     S
C1383  C1694   1.525   .     S
C1383  H1737   1.108   .     S
C1384  H1429   1.105   .     S
C1384  C1385   1.539   .     S
C1384  H1430   1.097   .     S
C1385  H1432   1.110   .     S
C1385  C1387   1.523   .     S
C1386  O1444   1.393   .     S
C1387  H1433   1.101   .     S
C1387  H1434   1.110   .     S
C1387  H1435   1.108   .     S
C1388  C1701   1.342   .     S
C1388  H1748   1.076   .     S
C1390  O1450   1.310   .     A
C1390  O1452   1.313   .     A
C1391  O1451   1.315   .     A
C1391  O1453   1.325   .     A
H1408  C440    1.109   1_556 S
H1412  C337    1.110   1_556 S
H1413  C442    1.105   1_556 S
H1414  C130    1.102   1_556 S
H1431  C1489   1.106   .     S
H1437  C1701   1.087   .     S
N1441  Zn1456  2.077   .     S
N1441  N1546   1.266   .     S
N1441  O1549   1.352   .     S
N1442  Zn1455  2.077   .     S
O1443  Zn1455  1.940   .     S
O1446  C1488   1.405   .     S
O1446  N1546   1.349   .     S
O1447  Zn1456  1.940   .     S
O1448  Zn1456  1.963   .     S
O1449  Zn1455  1.963   .     S
O1450  Zn1455  2.015   .     S
O1451  Zn1456  2.015   .     S
O1452  Zn1456  2.031   .     S
O1453  Zn1455  2.031   .     S
C1457  O1547   1.298   .     A
C1457  O1552   1.317   .     A
C1457  C1492   1.413   .     S
C1458  C1469   1.429   .     A
C1458  C1460   1.412   .     A
C1458  C1475   1.528   .     S
C1459  C1495   1.460   .     S
C1459  C1496   1.432   .     A
C1459  C1461   1.387   .     A
C1460  C1462   1.373   .     A
C1460  C1494   1.428   .     S
C1461  C1463   1.380   .     A
C1461  H1497   1.082   .     S
C1462  C1464   1.370   .     A
C1462  H1508   1.087   .     S
C1463  C1470   1.395   .     A
C1463  C1465   1.403   .     A
C1464  C1466   1.404   .     A
C1464  C1471   1.380   .     A
C1465  C1467   1.431   .     A
C1466  C1469   1.432   .     A
C1466  C529    1.407   1_556 S
C1467  C1490   1.445   .     A
C1467  C1496   1.439   .     A
C1468  C1493   1.420   .     S
C1468  O1551   1.303   .     A
C1468  O1553   1.319   .     A
C1469  C1479   1.425   .     A
C1470  H1519   1.083   .     S
C1471  H1530   1.081   .     S
C1471  C554    1.389   1_556 S
C1472  H1500   1.107   .     S
C1472  C1496   1.525   .     S
C1472  H1501   1.109   .     S
C1472  C1473   1.507   .     S
C1473  H1498   1.102   .     S
C1473  H1499   1.102   .     S
C1474  H1544   1.103   .     S
C1474  H1542   1.101   .     S
C1474  H1543   1.107   .     S
C1474  C1785   1.541   .     S
C1475  C1476   1.527   .     S
C1475  H1509   1.102   .     S
C1475  H1507   1.111   .     S
C1476  H1505   1.104   .     S
C1476  H1506   1.108   .     S
C1476  C1789   1.526   .     S
C1477  H1504   1.110   .     S
C1477  H1502   1.107   .     S
C1477  H1503   1.109   .     S
C1478  O1558   1.419   .     S
C1478  C856    1.525   1_556 S
C1478  H1822   1.110   .     S
C1478  H575    1.105   1_556 S
C1479  O1558   1.392   .     S
C1479  C534    1.402   1_556 S
C1480  H1513   1.104   .     S
C1480  C1481   1.520   .     S
C1481  H1515   1.107   .     S
C1481  H1306   1.110   1_655 S
C1481  H372    1.110   1_655 S
C1482  C1483   1.529   .     S
C1482  O1860   1.415   .     S
C1483  H1521   1.107   .     S
C1483  H1520   1.107   .     S
C1483  C1484   1.524   .     S
C1484  H1522   1.105   .     S
C1484  H1524   1.108   .     S
C1484  H1523   1.109   .     S
C1485  H1526   1.102   .     S
C1485  H1525   1.096   .     S
C1485  C1486   1.517   .     S
C1485  O1341   1.400   1_655 S
C1486  H1319   1.109   1_655 S
C1486  H1320   1.097   1_655 S
C1487  H1531   1.109   .     S
C1487  H1532   1.107   .     S
C1487  C1798   1.525   .     S
C1487  H1841   1.108   .     S
C1488  H1533   1.105   .     S
C1488  C1489   1.539   .     S
C1488  H1534   1.097   .     S
C1489  H1536   1.110   .     S
C1489  C1491   1.523   .     S
C1490  O1548   1.393   .     S
C1491  H1537   1.101   .     S
C1491  H1538   1.110   .     S
C1491  H1539   1.108   .     S
C1492  C1805   1.342   .     S
C1492  H1852   1.076   .     S
C1494  O1554   1.310   .     A
C1494  O1556   1.313   .     A
C1495  O1555   1.315   .     A
C1495  O1557   1.325   .     A
H1512  C544    1.109   1_556 S
H1516  C441    1.110   1_556 S
H1517  C546    1.105   1_556 S
H1518  C234    1.102   1_556 S
H1535  C1281   1.106   1_655 S
H1541  C1805   1.087   .     S
N1545  Zn1560  2.077   .     S
N1545  N1338   1.266   1_655 S
N1545  O1341   1.352   1_655 S
N1546  Zn1559  2.077   .     S
O1547  Zn1559  1.940   .     S
O1550  C1280   1.405   1_655 S
O1550  N1338   1.349   1_655 S
O1551  Zn1560  1.940   .     S
O1552  Zn1560  1.963   .     S
O1553  Zn1559  1.963   .     S
O1554  Zn1559  2.015   .     S
O1555  Zn1560  2.015   .     S
O1556  Zn1560  2.031   .     S
O1557  Zn1559  2.031   .     S
C1561  O1651   1.298   .     A
C1561  O1656   1.317   .     A
C1561  C1596   1.413   .     S
C1562  C1573   1.429   .     A
C1562  C1564   1.412   .     A
C1562  C1579   1.528   .     S
C1563  C1599   1.460   .     S
C1563  C1600   1.432   .     A
C1563  C1565   1.387   .     A
C1564  C1566   1.373   .     A
C1564  C1598   1.428   .     S
C1565  C1567   1.380   .     A
C1565  H1601   1.082   .     S
C1566  C1568   1.370   .     A
C1566  H1612   1.087   .     S
C1567  C1574   1.395   .     A
C1567  C1569   1.403   .     A
C1568  C1570   1.404   .     A
C1568  C1575   1.380   .     A
C1569  C1571   1.431   .     A
C1570  C1573   1.432   .     A
C1570  C633    1.407   1_556 S
C1571  C1594   1.445   .     A
C1571  C1600   1.439   .     A
C1572  C1597   1.420   .     S
C1572  O1655   1.303   .     A
C1572  O1657   1.319   .     A
C1573  C1583   1.425   .     A
C1574  H1623   1.083   .     S
C1575  H1634   1.081   .     S
C1575  C658    1.389   1_556 S
C1576  H1604   1.107   .     S
C1576  C1600   1.525   .     S
C1576  H1605   1.109   .     S
C1576  C1577   1.507   .     S
C1577  H1602   1.102   .     S
C1577  H1603   1.102   .     S
C1578  H1648   1.103   .     S
C1578  H1646   1.101   .     S
C1578  H1647   1.107   .     S
C1578  C953    1.541   1_565 S
C1579  C1580   1.527   .     S
C1579  H1613   1.102   .     S
C1579  H1611   1.111   .     S
C1580  H1609   1.104   .     S
C1580  H1610   1.108   .     S
C1580  C957    1.526   1_565 S
C1581  H1608   1.110   .     S
C1581  H1606   1.107   .     S
C1581  H1607   1.109   .     S
C1582  O1662   1.419   .     S
C1582  C24     1.525   1_566 S
C1582  H990    1.110   1_565 S
C1582  H679    1.105   1_556 S
C1583  O1662   1.392   .     S
C1583  C638    1.402   1_556 S
C1584  H1617   1.104   .     S
C1584  C1585   1.520   .     S
C1585  H1619   1.107   .     S
C1585  H1722   1.110   .     S
C1586  C1587   1.529   .     S
C1586  H62     1.102   1_565 S
C1586  O1028   1.415   1_565 S
C1587  H1625   1.107   .     S
C1587  H1624   1.107   .     S
C1587  C1588   1.524   .     S
C1588  H1626   1.105   .     S
C1588  H1628   1.108   .     S
C1588  H1627   1.109   .     S
C1589  H1630   1.102   .     S
C1589  H1629   1.096   .     S
C1589  C1590   1.517   .     S
C1589  O1757   1.400   .     S
C1590  H1735   1.109   .     S
C1590  H1736   1.097   .     S
C1591  H1635   1.109   .     S
C1591  H1636   1.107   .     S
C1591  C966    1.525   1_565 S
C1591  H1009   1.108   1_565 S
C1592  H1637   1.105   .     S
C1592  C1593   1.539   .     S
C1592  H1638   1.097   .     S
C1592  O1862   1.405   1_455 S
C1593  H1640   1.110   .     S
C1593  C1595   1.523   .     S
C1593  H1847   1.106   1_455 S
C1594  O1652   1.393   .     S
C1595  H1641   1.101   .     S
C1595  H1642   1.110   .     S
C1595  H1643   1.108   .     S
C1596  C973    1.342   1_565 S
C1596  H1020   1.076   1_565 S
C1598  O1658   1.310   .     A
C1598  O1660   1.313   .     A
C1599  O1659   1.315   .     A
C1599  O1661   1.325   .     A
H1616  C648    1.109   1_556 S
H1618  C1793   1.110   1_455 S
H1620  C857    1.110   1_456 S
H1621  C650    1.105   1_556 S
H1622  C338    1.102   1_556 S
H1631  C1798   1.109   1_455 S
H1632  C1798   1.097   1_455 S
H1639  C1697   1.106   .     S
H1645  C973    1.087   1_565 S
N1649  Zn1664  2.077   .     S
N1649  N1754   1.266   .     S
N1649  O1757   1.352   .     S
N1650  Zn1663  2.077   .     S
N1650  N1857   1.266   1_455 S
N1650  O1862   1.349   1_455 S
O1651  Zn1663  1.940   .     S
O1653  N1857   1.352   1_455 S
O1653  C1797   1.400   1_455 S
O1654  C1696   1.405   .     S
O1654  N1754   1.349   .     S
O1655  Zn1664  1.940   .     S
O1656  Zn1664  1.963   .     S
O1657  Zn1663  1.963   .     S
O1658  Zn1663  2.015   .     S
O1659  Zn1664  2.015   .     S
O1660  Zn1664  2.031   .     S
O1661  Zn1663  2.031   .     S
C1665  O1755   1.298   .     A
C1665  O1760   1.317   .     A
C1665  C1700   1.413   .     S
C1666  C1677   1.429   .     A
C1666  C1668   1.412   .     A
C1666  C1683   1.528   .     S
C1667  C1703   1.460   .     S
C1667  C1704   1.432   .     A
C1667  C1669   1.387   .     A
C1668  C1670   1.373   .     A
C1668  C1702   1.428   .     S
C1669  C1671   1.380   .     A
C1669  H1705   1.082   .     S
C1670  C1672   1.370   .     A
C1670  H1716   1.087   .     S
C1671  C1678   1.395   .     A
C1671  C1673   1.403   .     A
C1672  C1674   1.404   .     A
C1672  C1679   1.380   .     A
C1673  C1675   1.431   .     A
C1674  C1677   1.432   .     A
C1674  C737    1.407   1_556 S
C1675  C1698   1.445   .     A
C1675  C1704   1.439   .     A
C1676  C1701   1.420   .     S
C1676  O1759   1.303   .     A
C1676  O1761   1.319   .     A
C1677  C1687   1.425   .     A
C1678  H1727   1.083   .     S
C1679  H1738   1.081   .     S
C1679  C762    1.389   1_556 S
C1680  H1708   1.107   .     S
C1680  C1704   1.525   .     S
C1680  H1709   1.109   .     S
C1680  C1681   1.507   .     S
C1681  H1706   1.102   .     S
C1681  H1707   1.102   .     S
C1682  H1752   1.103   .     S
C1682  H1750   1.101   .     S
C1682  H1751   1.107   .     S
C1682  C1057   1.541   1_565 S
C1683  C1684   1.527   .     S
C1683  H1717   1.102   .     S
C1683  H1715   1.111   .     S
C1684  H1713   1.104   .     S
C1684  H1714   1.108   .     S
C1684  C1061   1.526   1_565 S
C1685  H1712   1.110   .     S
C1685  H1710   1.107   .     S
C1685  H1711   1.109   .     S
C1686  O1766   1.419   .     S
C1686  C128    1.525   1_566 S
C1686  H1094   1.110   1_565 S
C1686  H783    1.105   1_556 S
C1687  O1766   1.392   .     S
C1687  C742    1.402   1_556 S
C1688  H1721   1.104   .     S
C1688  C1689   1.520   .     S
C1689  H1723   1.107   .     S
C1689  H1826   1.110   .     S
C1690  C1691   1.529   .     S
C1690  H166    1.102   1_565 S
C1690  O1132   1.415   1_565 S
C1691  H1729   1.107   .     S
C1691  H1728   1.107   .     S
C1691  C1692   1.524   .     S
C1692  H1730   1.105   .     S
C1692  H1732   1.108   .     S
C1692  H1731   1.109   .     S
C1693  H1734   1.102   .     S
C1693  H1733   1.096   .     S
C1693  C1694   1.517   .     S
C1693  O1861   1.400   .     S
C1694  H1839   1.109   .     S
C1694  H1840   1.097   .     S
C1695  H1739   1.109   .     S
C1695  H1740   1.107   .     S
C1695  C1070   1.525   1_565 S
C1695  H1113   1.108   1_565 S
C1696  H1741   1.105   .     S
C1696  C1697   1.539   .     S
C1696  H1742   1.097   .     S
C1697  H1744   1.110   .     S
C1697  C1699   1.523   .     S
C1698  O1756   1.393   .     S
C1699  H1745   1.101   .     S
C1699  H1746   1.110   .     S
C1699  H1747   1.108   .     S
C1700  C1077   1.342   1_565 S
C1700  H1124   1.076   1_565 S
C1702  O1762   1.310   .     A
C1702  O1764   1.313   .     A
C1703  O1763   1.315   .     A
C1703  O1765   1.325   .     A
H1720  C752    1.109   1_556 S
H1724  C649    1.110   1_556 S
H1725  C754    1.105   1_556 S
H1726  C442    1.102   1_556 S
H1743  C1801   1.106   .     S
H1749  C1077   1.087   1_565 S
N1753  Zn1768  2.077   .     S
N1753  N1858   1.266   .     S
N1753  O1861   1.352   .     S
N1754  Zn1767  2.077   .     S
O1755  Zn1767  1.940   .     S
O1758  C1800   1.405   .     S
O1758  N1858   1.349   .     S
O1759  Zn1768  1.940   .     S
O1760  Zn1768  1.963   .     S
O1761  Zn1767  1.963   .     S
O1762  Zn1767  2.015   .     S
O1763  Zn1768  2.015   .     S
O1764  Zn1768  2.031   .     S
O1765  Zn1767  2.031   .     S
C1769  O1859   1.298   .     A
C1769  O1864   1.317   .     A
C1769  C1804   1.413   .     S
C1770  C1781   1.429   .     A
C1770  C1772   1.412   .     A
C1770  C1787   1.528   .     S
C1771  C1807   1.460   .     S
C1771  C1808   1.432   .     A
C1771  C1773   1.387   .     A
C1772  C1774   1.373   .     A
C1772  C1806   1.428   .     S
C1773  C1775   1.380   .     A
C1773  H1809   1.082   .     S
C1774  C1776   1.370   .     A
C1774  H1820   1.087   .     S
C1775  C1782   1.395   .     A
C1775  C1777   1.403   .     A
C1776  C1778   1.404   .     A
C1776  C1783   1.380   .     A
C1777  C1779   1.431   .     A
C1778  C1781   1.432   .     A
C1778  C841    1.407   1_556 S
C1779  C1802   1.445   .     A
C1779  C1808   1.439   .     A
C1780  C1805   1.420   .     S
C1780  O1863   1.303   .     A
C1780  O1865   1.319   .     A
C1781  C1791   1.425   .     A
C1782  H1831   1.083   .     S
C1783  H1842   1.081   .     S
C1783  C866    1.389   1_556 S
C1784  H1812   1.107   .     S
C1784  C1808   1.525   .     S
C1784  H1813   1.109   .     S
C1784  C1785   1.507   .     S
C1785  H1810   1.102   .     S
C1785  H1811   1.102   .     S
C1786  H1856   1.103   .     S
C1786  H1854   1.101   .     S
C1786  H1855   1.107   .     S
C1786  C1161   1.541   1_565 S
C1787  C1788   1.527   .     S
C1787  H1821   1.102   .     S
C1787  H1819   1.111   .     S
C1788  H1817   1.104   .     S
C1788  H1818   1.108   .     S
C1788  C1165   1.526   1_565 S
C1789  H1816   1.110   .     S
C1789  H1814   1.107   .     S
C1789  H1815   1.109   .     S
C1790  O1870   1.419   .     S
C1790  C232    1.525   1_566 S
C1790  H1198   1.110   1_565 S
C1790  H887    1.105   1_556 S
C1791  O1870   1.392   .     S
C1791  C846    1.402   1_556 S
C1792  H1825   1.104   .     S
C1792  C1793   1.520   .     S
C1793  H1827   1.107   .     S
C1793  H1618   1.110   1_655 S
C1793  H684    1.110   1_655 S
C1794  C1795   1.529   .     S
C1794  H270    1.102   1_565 S
C1794  O1236   1.415   1_565 S
C1795  H1833   1.107   .     S
C1795  H1832   1.107   .     S
C1795  C1796   1.524   .     S
C1796  H1834   1.105   .     S
C1796  H1836   1.108   .     S
C1796  H1835   1.109   .     S
C1797  H1838   1.102   .     S
C1797  H1837   1.096   .     S
C1797  C1798   1.517   .     S
C1797  O1653   1.400   1_655 S
C1798  H1631   1.109   1_655 S
C1798  H1632   1.097   1_655 S
C1799  H1843   1.109   .     S
C1799  H1844   1.107   .     S
C1799  C1174   1.525   1_565 S
C1799  H1217   1.108   1_565 S
C1800  H1845   1.105   .     S
C1800  C1801   1.539   .     S
C1800  H1846   1.097   .     S
C1801  H1848   1.110   .     S
C1801  C1803   1.523   .     S
C1802  O1860   1.393   .     S
C1803  H1849   1.101   .     S
C1803  H1850   1.110   .     S
C1803  H1851   1.108   .     S
C1804  C1181   1.342   1_565 S
C1804  H1228   1.076   1_565 S
C1806  O1866   1.310   .     A
C1806  O1868   1.313   .     A
C1807  O1867   1.315   .     A
C1807  O1869   1.325   .     A
H1824  C856    1.109   1_556 S
H1828  C753    1.110   1_556 S
H1829  C858    1.105   1_556 S
H1830  C546    1.102   1_556 S
H1847  C1593   1.106   1_655 S
H1853  C1181   1.087   1_565 S
N1857  Zn1872  2.077   .     S
N1857  N1650   1.266   1_655 S
N1857  O1653   1.352   1_655 S
N1858  Zn1871  2.077   .     S
O1859  Zn1871  1.940   .     S
O1862  C1592   1.405   1_655 S
O1862  N1650   1.349   1_655 S
O1863  Zn1872  1.940   .     S
O1864  Zn1872  1.963   .     S
O1865  Zn1871  1.963   .     S
O1866  Zn1871  2.015   .     S
O1867  Zn1872  2.015   .     S
O1868  Zn1872  2.031   .     S
O1869  Zn1871  2.031   .     S
