data_str_m3_o1_o18_pcu_sym.128
_audit_creation_date              2020-01-03
_audit_creation_method            'Materials Studio'
_symmetry_space_group_name_H-M    'P1'
_symmetry_Int_Tables_number       1
_symmetry_cell_setting            triclinic
loop_
_symmetry_equiv_pos_as_xyz
  x,y,z
_cell_length_a                    29.5155
_cell_length_b                    32.1451
_cell_length_c                    30.8652
_cell_angle_alpha                 89.7656
_cell_angle_beta                  67.3338
_cell_angle_gamma                 90.0554
loop_
_atom_site_label
_atom_site_type_symbol
_atom_site_fract_x
_atom_site_fract_y
_atom_site_fract_z
_atom_site_U_iso_or_equiv
_atom_site_adp_type
_atom_site_occupancy
C1     C     0.16665   0.24671   0.25012   0.00000  Uiso   1.00
C2     C     0.16660   0.08662   0.25009   0.00000  Uiso   1.00
C3     C     0.12506   0.21756   0.04277   0.00000  Uiso   1.00
C4     C     0.22944   0.17101   0.44419   0.00000  Uiso   1.00
C5     C     0.09106   0.22378   0.02228   0.00000  Uiso   1.00
C6     C     0.26294   0.16327   0.46466   0.00000  Uiso   1.00
C7     C     0.21068   0.31210   0.24092   0.00000  Uiso   1.00
C8     C     0.12239   0.02121   0.25990   0.00000  Uiso   1.00
C9     C     0.21067   0.02138   0.24087   0.00000  Uiso   1.00
C10    C     0.12241   0.31192   0.25991   0.00000  Uiso   1.00
C11    C     0.16654   0.04247   0.25028   0.00000  Uiso   1.00
C12    C     0.16657   0.29085   0.25035   0.00000  Uiso   1.00
C13    C     0.29857   0.13870   0.27672   0.00000  Uiso   1.00
C14    C     0.03471   0.19473   0.22340   0.00000  Uiso   1.00
C15    C     0.01318   0.13875   0.27677   0.00000  Uiso   1.00
C16    C     0.32004   0.19481   0.22352   0.00000  Uiso   1.00
C17    C     0.13591   0.16741   0.33831   0.00000  Uiso   1.00
C18    C     0.19752   0.16672   0.16173   0.00000  Uiso   1.00
C19    C     0.11739   0.17534   0.38885   0.00000  Uiso   1.00
C20    C     0.21794   0.16896   0.11047   0.00000  Uiso   1.00
C21    C     0.06380   0.21137   0.45860   0.00000  Uiso   1.00
C22    C     0.28042   0.15374   0.03418   0.00000  Uiso   1.00
C23    C     0.07342   0.19694   0.41299   0.00000  Uiso   1.00
C24    C     0.26518   0.15406   0.08316   0.00000  Uiso   1.00
C25    C     0.15027   0.16822   0.41044   0.00000  Uiso   1.00
C26    C     0.18811   0.18548   0.08897   0.00000  Uiso   1.00
C27    C     0.14425   0.18696   0.45293   0.00000  Uiso   1.00
C28    C     0.20246   0.18473   0.04025   0.00000  Uiso   1.00
C29    C     0.09947   0.20748   0.47809   0.00000  Uiso   1.00
C30    C     0.24910   0.16792   0.01284   0.00000  Uiso   1.00
C31    C     0.18122   0.18454   0.47144   0.00000  Uiso   1.00
C32    C     0.16961   0.19614   0.01865   0.00000  Uiso   1.00
H33    H     0.05737   0.24032   0.04172   0.00000  Uiso   1.00
H34    H     0.29892   0.15142   0.44308   0.00000  Uiso   1.00
H35    H     0.15212   0.19618   0.11135   0.00000  Uiso   1.00
H36    H     0.18148   0.14856   0.39256   0.00000  Uiso   1.00
H37    H     0.02916   0.22655   0.47813   0.00000  Uiso   1.00
H38    H     0.31536   0.13982   0.01298   0.00000  Uiso   1.00
H39    H     0.11602   0.23076   0.07716   0.00000  Uiso   1.00
H40    H     0.24243   0.16655   0.40672   0.00000  Uiso   1.00
H41    H     0.24510   0.29594   0.23320   0.00000  Uiso   1.00
H42    H     0.08797   0.03739   0.26759   0.00000  Uiso   1.00
H43    H     0.24508   0.03767   0.23313   0.00000  Uiso   1.00
H44    H     0.08803   0.29561   0.26754   0.00000  Uiso   1.00
H45    H     0.27178   0.11634   0.29809   0.00000  Uiso   1.00
H46    H     0.06151   0.21710   0.20203   0.00000  Uiso   1.00
H47    H     0.02272   0.11645   0.29820   0.00000  Uiso   1.00
H48    H     0.31047   0.21718   0.20218   0.00000  Uiso   1.00
N49    N     0.04759   0.16668   0.25001   0.00000  Uiso   1.00
N50    N     0.28574   0.16666   0.24999   0.00000  Uiso   1.00
O51    O     0.12846   0.22775   0.25000   0.00000  Uiso   1.00
O52    O     0.20488   0.10558   0.24999   0.00000  Uiso   1.00
O53    O     0.20490   0.22774   0.25000   0.00000  Uiso   1.00
O54    O     0.12843   0.10559   0.25000   0.00000  Uiso   1.00
O55    O     0.10661   0.16667   0.31612   0.00000  Uiso   1.00
O56    O     0.22672   0.16666   0.18387   0.00000  Uiso   1.00
O57    O     0.18305   0.16666   0.31612   0.00000  Uiso   1.00
O58    O     0.15028   0.16667   0.18388   0.00000  Uiso   1.00
Zn59   Zn    0.11562   0.16667   0.25000   0.00000  Uiso   1.00
Zn60   Zn    0.21771   0.16666   0.25000   0.00000  Uiso   1.00
O61    O     0.29250   0.13364   0.10446   0.00000  Uiso   1.00
C62    C     0.00289   0.15598   0.09632   0.00000  Uiso   1.00
H63    H     0.32781   0.18788   0.11126   0.00000  Uiso   1.00
H64    H     0.02607   0.15800   0.05822   0.00000  Uiso   1.00
C65    C     0.03247   0.13337   0.12001   0.00000  Uiso   1.00
H66    H     0.04455   0.10266   0.10320   0.00000  Uiso   1.00
H67    H     0.06537   0.15203   0.11660   0.00000  Uiso   1.00
H68    H     0.00974   0.12840   0.15781   0.00000  Uiso   1.00
O69    O     0.03937   0.20235   0.39276   0.00000  Uiso   1.00
C70    C     0.03883   0.24458   0.38025   0.00000  Uiso   1.00
H71    H     0.07641   0.25567   0.35767   0.00000  Uiso   1.00
H72    H     0.02369   0.26441   0.41209   0.00000  Uiso   1.00
C73    C     0.00615   0.24937   0.35264   0.00000  Uiso   1.00
H74    H     0.30163   0.23865   0.37418   0.00000  Uiso   1.00
H75    H     0.00491   0.28255   0.34302   0.00000  Uiso   1.00
H76    H     0.02093   0.23065   0.32005   0.00000  Uiso   1.00
C77    C     0.49998   0.24671   0.25012   0.00000  Uiso   1.00
C78    C     0.49994   0.08662   0.25009   0.00000  Uiso   1.00
C79    C     0.45840   0.21756   0.04277   0.00000  Uiso   1.00
C80    C     0.56277   0.17101   0.44419   0.00000  Uiso   1.00
C81    C     0.42439   0.22378   0.02228   0.00000  Uiso   1.00
C82    C     0.59628   0.16327   0.46466   0.00000  Uiso   1.00
C83    C     0.54401   0.31210   0.24092   0.00000  Uiso   1.00
C84    C     0.45572   0.02121   0.25990   0.00000  Uiso   1.00
C85    C     0.54400   0.02138   0.24087   0.00000  Uiso   1.00
C86    C     0.45574   0.31192   0.25991   0.00000  Uiso   1.00
C87    C     0.49987   0.04247   0.25028   0.00000  Uiso   1.00
C88    C     0.49990   0.29085   0.25035   0.00000  Uiso   1.00
C89    C     0.63191   0.13870   0.27672   0.00000  Uiso   1.00
C90    C     0.36805   0.19473   0.22340   0.00000  Uiso   1.00
C91    C     0.34651   0.13875   0.27677   0.00000  Uiso   1.00
C92    C     0.65337   0.19481   0.22352   0.00000  Uiso   1.00
C93    C     0.46924   0.16741   0.33831   0.00000  Uiso   1.00
C94    C     0.53085   0.16672   0.16173   0.00000  Uiso   1.00
C95    C     0.45072   0.17534   0.38885   0.00000  Uiso   1.00
C96    C     0.55127   0.16896   0.11047   0.00000  Uiso   1.00
C97    C     0.39713   0.21137   0.45860   0.00000  Uiso   1.00
C98    C     0.61376   0.15374   0.03418   0.00000  Uiso   1.00
C99    C     0.40675   0.19694   0.41299   0.00000  Uiso   1.00
C100   C     0.59852   0.15406   0.08316   0.00000  Uiso   1.00
C101   C     0.48360   0.16822   0.41044   0.00000  Uiso   1.00
C102   C     0.52144   0.18548   0.08897   0.00000  Uiso   1.00
C103   C     0.47758   0.18696   0.45293   0.00000  Uiso   1.00
C104   C     0.53579   0.18473   0.04025   0.00000  Uiso   1.00
C105   C     0.43281   0.20748   0.47809   0.00000  Uiso   1.00
C106   C     0.58244   0.16792   0.01284   0.00000  Uiso   1.00
C107   C     0.51455   0.18454   0.47144   0.00000  Uiso   1.00
C108   C     0.50294   0.19614   0.01865   0.00000  Uiso   1.00
H109   H     0.39070   0.24032   0.04172   0.00000  Uiso   1.00
H110   H     0.63225   0.15142   0.44308   0.00000  Uiso   1.00
H111   H     0.48545   0.19618   0.11135   0.00000  Uiso   1.00
H112   H     0.51481   0.14856   0.39256   0.00000  Uiso   1.00
H113   H     0.36250   0.22655   0.47813   0.00000  Uiso   1.00
H114   H     0.64870   0.13982   0.01298   0.00000  Uiso   1.00
H115   H     0.44936   0.23076   0.07716   0.00000  Uiso   1.00
H116   H     0.57577   0.16655   0.40672   0.00000  Uiso   1.00
H117   H     0.57843   0.29594   0.23320   0.00000  Uiso   1.00
H118   H     0.42131   0.03739   0.26759   0.00000  Uiso   1.00
H119   H     0.57842   0.03767   0.23313   0.00000  Uiso   1.00
H120   H     0.42136   0.29561   0.26754   0.00000  Uiso   1.00
H121   H     0.60511   0.11634   0.29809   0.00000  Uiso   1.00
H122   H     0.39484   0.21710   0.20203   0.00000  Uiso   1.00
H123   H     0.35605   0.11645   0.29820   0.00000  Uiso   1.00
H124   H     0.64380   0.21718   0.20218   0.00000  Uiso   1.00
N125   N     0.38093   0.16668   0.25001   0.00000  Uiso   1.00
N126   N     0.61907   0.16666   0.24999   0.00000  Uiso   1.00
O127   O     0.46179   0.22775   0.25000   0.00000  Uiso   1.00
O128   O     0.53821   0.10558   0.24999   0.00000  Uiso   1.00
O129   O     0.53823   0.22774   0.25000   0.00000  Uiso   1.00
O130   O     0.46177   0.10559   0.25000   0.00000  Uiso   1.00
O131   O     0.43994   0.16667   0.31612   0.00000  Uiso   1.00
O132   O     0.56006   0.16666   0.18387   0.00000  Uiso   1.00
O133   O     0.51639   0.16666   0.31612   0.00000  Uiso   1.00
O134   O     0.48361   0.16667   0.18388   0.00000  Uiso   1.00
Zn135  Zn    0.44896   0.16667   0.25000   0.00000  Uiso   1.00
Zn136  Zn    0.55104   0.16666   0.25000   0.00000  Uiso   1.00
O137   O     0.62583   0.13364   0.10446   0.00000  Uiso   1.00
C138   C     0.33622   0.15598   0.09632   0.00000  Uiso   1.00
H139   H     0.66114   0.18788   0.11126   0.00000  Uiso   1.00
H140   H     0.35940   0.15800   0.05822   0.00000  Uiso   1.00
C141   C     0.36580   0.13337   0.12001   0.00000  Uiso   1.00
H142   H     0.37789   0.10266   0.10320   0.00000  Uiso   1.00
H143   H     0.39870   0.15203   0.11660   0.00000  Uiso   1.00
H144   H     0.34307   0.12840   0.15781   0.00000  Uiso   1.00
O145   O     0.37270   0.20235   0.39276   0.00000  Uiso   1.00
C146   C     0.37216   0.24458   0.38025   0.00000  Uiso   1.00
H147   H     0.40974   0.25567   0.35767   0.00000  Uiso   1.00
H148   H     0.35702   0.26441   0.41209   0.00000  Uiso   1.00
C149   C     0.33949   0.24937   0.35264   0.00000  Uiso   1.00
H150   H     0.63497   0.23865   0.37418   0.00000  Uiso   1.00
H151   H     0.33825   0.28255   0.34302   0.00000  Uiso   1.00
H152   H     0.35426   0.23065   0.32005   0.00000  Uiso   1.00
C153   C     0.83331   0.24671   0.25012   0.00000  Uiso   1.00
C154   C     0.83327   0.08662   0.25009   0.00000  Uiso   1.00
C155   C     0.79173   0.21756   0.04277   0.00000  Uiso   1.00
C156   C     0.89610   0.17101   0.44419   0.00000  Uiso   1.00
C157   C     0.75773   0.22378   0.02228   0.00000  Uiso   1.00
C158   C     0.92961   0.16327   0.46466   0.00000  Uiso   1.00
C159   C     0.87734   0.31210   0.24092   0.00000  Uiso   1.00
C160   C     0.78905   0.02121   0.25990   0.00000  Uiso   1.00
C161   C     0.87733   0.02138   0.24087   0.00000  Uiso   1.00
C162   C     0.78907   0.31192   0.25991   0.00000  Uiso   1.00
C163   C     0.83320   0.04247   0.25028   0.00000  Uiso   1.00
C164   C     0.83323   0.29085   0.25035   0.00000  Uiso   1.00
C165   C     0.96524   0.13870   0.27672   0.00000  Uiso   1.00
C166   C     0.70138   0.19473   0.22340   0.00000  Uiso   1.00
C167   C     0.67985   0.13875   0.27677   0.00000  Uiso   1.00
C168   C     0.98670   0.19481   0.22352   0.00000  Uiso   1.00
C169   C     0.80258   0.16741   0.33831   0.00000  Uiso   1.00
C170   C     0.86419   0.16672   0.16173   0.00000  Uiso   1.00
C171   C     0.78405   0.17534   0.38885   0.00000  Uiso   1.00
C172   C     0.88460   0.16896   0.11047   0.00000  Uiso   1.00
C173   C     0.73046   0.21137   0.45860   0.00000  Uiso   1.00
C174   C     0.94709   0.15374   0.03418   0.00000  Uiso   1.00
C175   C     0.74008   0.19694   0.41299   0.00000  Uiso   1.00
C176   C     0.93185   0.15406   0.08316   0.00000  Uiso   1.00
C177   C     0.81694   0.16822   0.41044   0.00000  Uiso   1.00
C178   C     0.85478   0.18548   0.08897   0.00000  Uiso   1.00
C179   C     0.81091   0.18696   0.45293   0.00000  Uiso   1.00
C180   C     0.86912   0.18473   0.04025   0.00000  Uiso   1.00
C181   C     0.76614   0.20748   0.47809   0.00000  Uiso   1.00
C182   C     0.91577   0.16792   0.01284   0.00000  Uiso   1.00
C183   C     0.84789   0.18454   0.47144   0.00000  Uiso   1.00
C184   C     0.83627   0.19614   0.01865   0.00000  Uiso   1.00
H185   H     0.72404   0.24032   0.04172   0.00000  Uiso   1.00
H186   H     0.96558   0.15142   0.44308   0.00000  Uiso   1.00
H187   H     0.81879   0.19618   0.11135   0.00000  Uiso   1.00
H188   H     0.84815   0.14856   0.39256   0.00000  Uiso   1.00
H189   H     0.69583   0.22655   0.47813   0.00000  Uiso   1.00
H190   H     0.98203   0.13982   0.01298   0.00000  Uiso   1.00
H191   H     0.78269   0.23076   0.07716   0.00000  Uiso   1.00
H192   H     0.90910   0.16655   0.40672   0.00000  Uiso   1.00
H193   H     0.91177   0.29594   0.23320   0.00000  Uiso   1.00
H194   H     0.75464   0.03739   0.26759   0.00000  Uiso   1.00
H195   H     0.91175   0.03767   0.23313   0.00000  Uiso   1.00
H196   H     0.75469   0.29561   0.26754   0.00000  Uiso   1.00
H197   H     0.93845   0.11634   0.29809   0.00000  Uiso   1.00
H198   H     0.72817   0.21710   0.20203   0.00000  Uiso   1.00
H199   H     0.68939   0.11645   0.29820   0.00000  Uiso   1.00
H200   H     0.97713   0.21718   0.20218   0.00000  Uiso   1.00
N201   N     0.71426   0.16668   0.25001   0.00000  Uiso   1.00
N202   N     0.95241   0.16666   0.24999   0.00000  Uiso   1.00
O203   O     0.79512   0.22775   0.25000   0.00000  Uiso   1.00
O204   O     0.87154   0.10558   0.24999   0.00000  Uiso   1.00
O205   O     0.87157   0.22774   0.25000   0.00000  Uiso   1.00
O206   O     0.79510   0.10559   0.25000   0.00000  Uiso   1.00
O207   O     0.77328   0.16667   0.31612   0.00000  Uiso   1.00
O208   O     0.89339   0.16666   0.18387   0.00000  Uiso   1.00
O209   O     0.84972   0.16666   0.31612   0.00000  Uiso   1.00
O210   O     0.81695   0.16667   0.18388   0.00000  Uiso   1.00
Zn211  Zn    0.78229   0.16667   0.25000   0.00000  Uiso   1.00
Zn212  Zn    0.88438   0.16666   0.25000   0.00000  Uiso   1.00
O213   O     0.95916   0.13364   0.10446   0.00000  Uiso   1.00
C214   C     0.66955   0.15598   0.09632   0.00000  Uiso   1.00
H215   H     0.99448   0.18788   0.11126   0.00000  Uiso   1.00
H216   H     0.69274   0.15800   0.05822   0.00000  Uiso   1.00
C217   C     0.69913   0.13337   0.12001   0.00000  Uiso   1.00
H218   H     0.71122   0.10266   0.10320   0.00000  Uiso   1.00
H219   H     0.73204   0.15203   0.11660   0.00000  Uiso   1.00
H220   H     0.67640   0.12840   0.15781   0.00000  Uiso   1.00
O221   O     0.70603   0.20235   0.39276   0.00000  Uiso   1.00
C222   C     0.70550   0.24458   0.38025   0.00000  Uiso   1.00
H223   H     0.74308   0.25567   0.35767   0.00000  Uiso   1.00
H224   H     0.69035   0.26441   0.41209   0.00000  Uiso   1.00
C225   C     0.67282   0.24937   0.35264   0.00000  Uiso   1.00
H226   H     0.96830   0.23865   0.37418   0.00000  Uiso   1.00
H227   H     0.67158   0.28255   0.34302   0.00000  Uiso   1.00
H228   H     0.68760   0.23065   0.32005   0.00000  Uiso   1.00
C229   C     0.16665   0.58004   0.25012   0.00000  Uiso   1.00
C230   C     0.16660   0.41995   0.25009   0.00000  Uiso   1.00
C231   C     0.12506   0.55089   0.04277   0.00000  Uiso   1.00
C232   C     0.22944   0.50434   0.44419   0.00000  Uiso   1.00
C233   C     0.09106   0.55712   0.02228   0.00000  Uiso   1.00
C234   C     0.26294   0.49661   0.46466   0.00000  Uiso   1.00
C235   C     0.21068   0.64543   0.24092   0.00000  Uiso   1.00
C236   C     0.12239   0.35455   0.25990   0.00000  Uiso   1.00
C237   C     0.21067   0.35471   0.24087   0.00000  Uiso   1.00
C238   C     0.12241   0.64526   0.25991   0.00000  Uiso   1.00
C239   C     0.16654   0.37580   0.25028   0.00000  Uiso   1.00
C240   C     0.16657   0.62418   0.25035   0.00000  Uiso   1.00
C241   C     0.29857   0.47203   0.27672   0.00000  Uiso   1.00
C242   C     0.03471   0.52807   0.22340   0.00000  Uiso   1.00
C243   C     0.01318   0.47208   0.27677   0.00000  Uiso   1.00
C244   C     0.32004   0.52815   0.22352   0.00000  Uiso   1.00
C245   C     0.13591   0.50075   0.33831   0.00000  Uiso   1.00
C246   C     0.19752   0.50006   0.16173   0.00000  Uiso   1.00
C247   C     0.11739   0.50868   0.38885   0.00000  Uiso   1.00
C248   C     0.21794   0.50229   0.11047   0.00000  Uiso   1.00
C249   C     0.06380   0.54470   0.45860   0.00000  Uiso   1.00
C250   C     0.28042   0.48708   0.03418   0.00000  Uiso   1.00
C251   C     0.07342   0.53027   0.41299   0.00000  Uiso   1.00
C252   C     0.26518   0.48739   0.08316   0.00000  Uiso   1.00
C253   C     0.15027   0.50156   0.41044   0.00000  Uiso   1.00
C254   C     0.18811   0.51882   0.08897   0.00000  Uiso   1.00
C255   C     0.14425   0.52029   0.45293   0.00000  Uiso   1.00
C256   C     0.20246   0.51806   0.04025   0.00000  Uiso   1.00
C257   C     0.09947   0.54081   0.47809   0.00000  Uiso   1.00
C258   C     0.24910   0.50125   0.01284   0.00000  Uiso   1.00
C259   C     0.18122   0.51788   0.47144   0.00000  Uiso   1.00
C260   C     0.16961   0.52948   0.01865   0.00000  Uiso   1.00
H261   H     0.05737   0.57365   0.04172   0.00000  Uiso   1.00
H262   H     0.29892   0.48475   0.44308   0.00000  Uiso   1.00
H263   H     0.15212   0.52952   0.11135   0.00000  Uiso   1.00
H264   H     0.18148   0.48189   0.39256   0.00000  Uiso   1.00
H265   H     0.02916   0.55989   0.47813   0.00000  Uiso   1.00
H266   H     0.31536   0.47316   0.01298   0.00000  Uiso   1.00
H267   H     0.11602   0.56409   0.07716   0.00000  Uiso   1.00
H268   H     0.24243   0.49988   0.40672   0.00000  Uiso   1.00
H269   H     0.24510   0.62927   0.23320   0.00000  Uiso   1.00
H270   H     0.08797   0.37072   0.26759   0.00000  Uiso   1.00
H271   H     0.24508   0.37101   0.23313   0.00000  Uiso   1.00
H272   H     0.08803   0.62895   0.26754   0.00000  Uiso   1.00
H273   H     0.27178   0.44967   0.29809   0.00000  Uiso   1.00
H274   H     0.06151   0.55043   0.20203   0.00000  Uiso   1.00
H275   H     0.02272   0.44978   0.29820   0.00000  Uiso   1.00
H276   H     0.31047   0.55052   0.20218   0.00000  Uiso   1.00
N277   N     0.04759   0.50001   0.25001   0.00000  Uiso   1.00
N278   N     0.28574   0.49999   0.24999   0.00000  Uiso   1.00
O279   O     0.12846   0.56108   0.25000   0.00000  Uiso   1.00
O280   O     0.20488   0.43892   0.24999   0.00000  Uiso   1.00
O281   O     0.20490   0.56107   0.25000   0.00000  Uiso   1.00
O282   O     0.12843   0.43893   0.25000   0.00000  Uiso   1.00
O283   O     0.10661   0.50001   0.31612   0.00000  Uiso   1.00
O284   O     0.22672   0.49999   0.18387   0.00000  Uiso   1.00
O285   O     0.18305   0.50000   0.31612   0.00000  Uiso   1.00
O286   O     0.15028   0.50000   0.18388   0.00000  Uiso   1.00
Zn287  Zn    0.11562   0.50001   0.25000   0.00000  Uiso   1.00
Zn288  Zn    0.21771   0.49999   0.25000   0.00000  Uiso   1.00
O289   O     0.29250   0.46697   0.10446   0.00000  Uiso   1.00
C290   C     0.00289   0.48932   0.09632   0.00000  Uiso   1.00
H291   H     0.32781   0.52122   0.11126   0.00000  Uiso   1.00
H292   H     0.02607   0.49133   0.05822   0.00000  Uiso   1.00
C293   C     0.03247   0.46670   0.12001   0.00000  Uiso   1.00
H294   H     0.04455   0.43599   0.10320   0.00000  Uiso   1.00
H295   H     0.06537   0.48537   0.11660   0.00000  Uiso   1.00
H296   H     0.00974   0.46173   0.15781   0.00000  Uiso   1.00
O297   O     0.03937   0.53568   0.39276   0.00000  Uiso   1.00
C298   C     0.03883   0.57791   0.38025   0.00000  Uiso   1.00
H299   H     0.07641   0.58900   0.35767   0.00000  Uiso   1.00
H300   H     0.02369   0.59774   0.41209   0.00000  Uiso   1.00
C301   C     0.00615   0.58270   0.35264   0.00000  Uiso   1.00
H302   H     0.30163   0.57198   0.37418   0.00000  Uiso   1.00
H303   H     0.00491   0.61588   0.34302   0.00000  Uiso   1.00
H304   H     0.02093   0.56398   0.32005   0.00000  Uiso   1.00
C305   C     0.49998   0.58004   0.25012   0.00000  Uiso   1.00
C306   C     0.49994   0.41995   0.25009   0.00000  Uiso   1.00
C307   C     0.45840   0.55089   0.04277   0.00000  Uiso   1.00
C308   C     0.56277   0.50434   0.44419   0.00000  Uiso   1.00
C309   C     0.42439   0.55712   0.02228   0.00000  Uiso   1.00
C310   C     0.59628   0.49661   0.46466   0.00000  Uiso   1.00
C311   C     0.54401   0.64543   0.24092   0.00000  Uiso   1.00
C312   C     0.45572   0.35455   0.25990   0.00000  Uiso   1.00
C313   C     0.54400   0.35471   0.24087   0.00000  Uiso   1.00
C314   C     0.45574   0.64526   0.25991   0.00000  Uiso   1.00
C315   C     0.49987   0.37580   0.25028   0.00000  Uiso   1.00
C316   C     0.49990   0.62418   0.25035   0.00000  Uiso   1.00
C317   C     0.63191   0.47203   0.27672   0.00000  Uiso   1.00
C318   C     0.36805   0.52807   0.22340   0.00000  Uiso   1.00
C319   C     0.34651   0.47208   0.27677   0.00000  Uiso   1.00
C320   C     0.65337   0.52815   0.22352   0.00000  Uiso   1.00
C321   C     0.46924   0.50075   0.33831   0.00000  Uiso   1.00
C322   C     0.53085   0.50006   0.16173   0.00000  Uiso   1.00
C323   C     0.45072   0.50868   0.38885   0.00000  Uiso   1.00
C324   C     0.55127   0.50229   0.11047   0.00000  Uiso   1.00
C325   C     0.39713   0.54470   0.45860   0.00000  Uiso   1.00
C326   C     0.61376   0.48708   0.03418   0.00000  Uiso   1.00
C327   C     0.40675   0.53027   0.41299   0.00000  Uiso   1.00
C328   C     0.59852   0.48739   0.08316   0.00000  Uiso   1.00
C329   C     0.48360   0.50156   0.41044   0.00000  Uiso   1.00
C330   C     0.52144   0.51882   0.08897   0.00000  Uiso   1.00
C331   C     0.47758   0.52029   0.45293   0.00000  Uiso   1.00
C332   C     0.53579   0.51806   0.04025   0.00000  Uiso   1.00
C333   C     0.43281   0.54081   0.47809   0.00000  Uiso   1.00
C334   C     0.58244   0.50125   0.01284   0.00000  Uiso   1.00
C335   C     0.51455   0.51788   0.47144   0.00000  Uiso   1.00
C336   C     0.50294   0.52948   0.01865   0.00000  Uiso   1.00
H337   H     0.39070   0.57365   0.04172   0.00000  Uiso   1.00
H338   H     0.63225   0.48475   0.44308   0.00000  Uiso   1.00
H339   H     0.48545   0.52952   0.11135   0.00000  Uiso   1.00
H340   H     0.51481   0.48189   0.39256   0.00000  Uiso   1.00
H341   H     0.36250   0.55989   0.47813   0.00000  Uiso   1.00
H342   H     0.64870   0.47316   0.01298   0.00000  Uiso   1.00
H343   H     0.44936   0.56409   0.07716   0.00000  Uiso   1.00
H344   H     0.57577   0.49988   0.40672   0.00000  Uiso   1.00
H345   H     0.57843   0.62927   0.23320   0.00000  Uiso   1.00
H346   H     0.42131   0.37072   0.26759   0.00000  Uiso   1.00
H347   H     0.57842   0.37101   0.23313   0.00000  Uiso   1.00
H348   H     0.42136   0.62895   0.26754   0.00000  Uiso   1.00
H349   H     0.60511   0.44967   0.29809   0.00000  Uiso   1.00
H350   H     0.39484   0.55043   0.20203   0.00000  Uiso   1.00
H351   H     0.35605   0.44978   0.29820   0.00000  Uiso   1.00
H352   H     0.64380   0.55052   0.20218   0.00000  Uiso   1.00
N353   N     0.38093   0.50001   0.25001   0.00000  Uiso   1.00
N354   N     0.61907   0.49999   0.24999   0.00000  Uiso   1.00
O355   O     0.46179   0.56108   0.25000   0.00000  Uiso   1.00
O356   O     0.53821   0.43892   0.24999   0.00000  Uiso   1.00
O357   O     0.53823   0.56107   0.25000   0.00000  Uiso   1.00
O358   O     0.46177   0.43893   0.25000   0.00000  Uiso   1.00
O359   O     0.43994   0.50001   0.31612   0.00000  Uiso   1.00
O360   O     0.56006   0.49999   0.18387   0.00000  Uiso   1.00
O361   O     0.51639   0.50000   0.31612   0.00000  Uiso   1.00
O362   O     0.48361   0.50000   0.18388   0.00000  Uiso   1.00
Zn363  Zn    0.44896   0.50001   0.25000   0.00000  Uiso   1.00
Zn364  Zn    0.55104   0.49999   0.25000   0.00000  Uiso   1.00
O365   O     0.62583   0.46697   0.10446   0.00000  Uiso   1.00
C366   C     0.33622   0.48932   0.09632   0.00000  Uiso   1.00
H367   H     0.66114   0.52122   0.11126   0.00000  Uiso   1.00
H368   H     0.35940   0.49133   0.05822   0.00000  Uiso   1.00
C369   C     0.36580   0.46670   0.12001   0.00000  Uiso   1.00
H370   H     0.37789   0.43599   0.10320   0.00000  Uiso   1.00
H371   H     0.39870   0.48537   0.11660   0.00000  Uiso   1.00
H372   H     0.34307   0.46173   0.15781   0.00000  Uiso   1.00
O373   O     0.37270   0.53568   0.39276   0.00000  Uiso   1.00
C374   C     0.37216   0.57791   0.38025   0.00000  Uiso   1.00
H375   H     0.40974   0.58900   0.35767   0.00000  Uiso   1.00
H376   H     0.35702   0.59774   0.41209   0.00000  Uiso   1.00
C377   C     0.33949   0.58270   0.35264   0.00000  Uiso   1.00
H378   H     0.63497   0.57198   0.37418   0.00000  Uiso   1.00
H379   H     0.33825   0.61588   0.34302   0.00000  Uiso   1.00
H380   H     0.35426   0.56398   0.32005   0.00000  Uiso   1.00
C381   C     0.83331   0.58004   0.25012   0.00000  Uiso   1.00
C382   C     0.83327   0.41995   0.25009   0.00000  Uiso   1.00
C383   C     0.79173   0.55089   0.04277   0.00000  Uiso   1.00
C384   C     0.89610   0.50434   0.44419   0.00000  Uiso   1.00
C385   C     0.75773   0.55712   0.02228   0.00000  Uiso   1.00
C386   C     0.92961   0.49661   0.46466   0.00000  Uiso   1.00
C387   C     0.87734   0.64543   0.24092   0.00000  Uiso   1.00
C388   C     0.78905   0.35455   0.25990   0.00000  Uiso   1.00
C389   C     0.87733   0.35471   0.24087   0.00000  Uiso   1.00
C390   C     0.78907   0.64526   0.25991   0.00000  Uiso   1.00
C391   C     0.83320   0.37580   0.25028   0.00000  Uiso   1.00
C392   C     0.83323   0.62418   0.25035   0.00000  Uiso   1.00
C393   C     0.96524   0.47203   0.27672   0.00000  Uiso   1.00
C394   C     0.70138   0.52807   0.22340   0.00000  Uiso   1.00
C395   C     0.67985   0.47208   0.27677   0.00000  Uiso   1.00
C396   C     0.98670   0.52815   0.22352   0.00000  Uiso   1.00
C397   C     0.80258   0.50075   0.33831   0.00000  Uiso   1.00
C398   C     0.86419   0.50006   0.16173   0.00000  Uiso   1.00
C399   C     0.78405   0.50868   0.38885   0.00000  Uiso   1.00
C400   C     0.88460   0.50229   0.11047   0.00000  Uiso   1.00
C401   C     0.73046   0.54470   0.45860   0.00000  Uiso   1.00
C402   C     0.94709   0.48708   0.03418   0.00000  Uiso   1.00
C403   C     0.74008   0.53027   0.41299   0.00000  Uiso   1.00
C404   C     0.93185   0.48739   0.08316   0.00000  Uiso   1.00
C405   C     0.81694   0.50156   0.41044   0.00000  Uiso   1.00
C406   C     0.85478   0.51882   0.08897   0.00000  Uiso   1.00
C407   C     0.81091   0.52029   0.45293   0.00000  Uiso   1.00
C408   C     0.86912   0.51806   0.04025   0.00000  Uiso   1.00
C409   C     0.76614   0.54081   0.47809   0.00000  Uiso   1.00
C410   C     0.91577   0.50125   0.01284   0.00000  Uiso   1.00
C411   C     0.84789   0.51788   0.47144   0.00000  Uiso   1.00
C412   C     0.83627   0.52948   0.01865   0.00000  Uiso   1.00
H413   H     0.72404   0.57365   0.04172   0.00000  Uiso   1.00
H414   H     0.96558   0.48475   0.44308   0.00000  Uiso   1.00
H415   H     0.81879   0.52952   0.11135   0.00000  Uiso   1.00
H416   H     0.84815   0.48189   0.39256   0.00000  Uiso   1.00
H417   H     0.69583   0.55989   0.47813   0.00000  Uiso   1.00
H418   H     0.98203   0.47316   0.01298   0.00000  Uiso   1.00
H419   H     0.78269   0.56409   0.07716   0.00000  Uiso   1.00
H420   H     0.90910   0.49988   0.40672   0.00000  Uiso   1.00
H421   H     0.91177   0.62927   0.23320   0.00000  Uiso   1.00
H422   H     0.75464   0.37072   0.26759   0.00000  Uiso   1.00
H423   H     0.91175   0.37101   0.23313   0.00000  Uiso   1.00
H424   H     0.75469   0.62895   0.26754   0.00000  Uiso   1.00
H425   H     0.93845   0.44967   0.29809   0.00000  Uiso   1.00
H426   H     0.72817   0.55043   0.20203   0.00000  Uiso   1.00
H427   H     0.68939   0.44978   0.29820   0.00000  Uiso   1.00
H428   H     0.97713   0.55052   0.20218   0.00000  Uiso   1.00
N429   N     0.71426   0.50001   0.25001   0.00000  Uiso   1.00
N430   N     0.95241   0.49999   0.24999   0.00000  Uiso   1.00
O431   O     0.79512   0.56108   0.25000   0.00000  Uiso   1.00
O432   O     0.87154   0.43892   0.24999   0.00000  Uiso   1.00
O433   O     0.87157   0.56107   0.25000   0.00000  Uiso   1.00
O434   O     0.79510   0.43893   0.25000   0.00000  Uiso   1.00
O435   O     0.77328   0.50001   0.31612   0.00000  Uiso   1.00
O436   O     0.89339   0.49999   0.18387   0.00000  Uiso   1.00
O437   O     0.84972   0.50000   0.31612   0.00000  Uiso   1.00
O438   O     0.81695   0.50000   0.18388   0.00000  Uiso   1.00
Zn439  Zn    0.78229   0.50001   0.25000   0.00000  Uiso   1.00
Zn440  Zn    0.88438   0.49999   0.25000   0.00000  Uiso   1.00
O441   O     0.95916   0.46697   0.10446   0.00000  Uiso   1.00
C442   C     0.66955   0.48932   0.09632   0.00000  Uiso   1.00
H443   H     0.99448   0.52122   0.11126   0.00000  Uiso   1.00
H444   H     0.69274   0.49133   0.05822   0.00000  Uiso   1.00
C445   C     0.69913   0.46670   0.12001   0.00000  Uiso   1.00
H446   H     0.71122   0.43599   0.10320   0.00000  Uiso   1.00
H447   H     0.73204   0.48537   0.11660   0.00000  Uiso   1.00
H448   H     0.67640   0.46173   0.15781   0.00000  Uiso   1.00
O449   O     0.70603   0.53568   0.39276   0.00000  Uiso   1.00
C450   C     0.70550   0.57791   0.38025   0.00000  Uiso   1.00
H451   H     0.74308   0.58900   0.35767   0.00000  Uiso   1.00
H452   H     0.69035   0.59774   0.41209   0.00000  Uiso   1.00
C453   C     0.67282   0.58270   0.35264   0.00000  Uiso   1.00
H454   H     0.96830   0.57198   0.37418   0.00000  Uiso   1.00
H455   H     0.67158   0.61588   0.34302   0.00000  Uiso   1.00
H456   H     0.68760   0.56398   0.32005   0.00000  Uiso   1.00
C457   C     0.16665   0.91338   0.25012   0.00000  Uiso   1.00
C458   C     0.16660   0.75328   0.25009   0.00000  Uiso   1.00
C459   C     0.12506   0.88423   0.04277   0.00000  Uiso   1.00
C460   C     0.22944   0.83768   0.44419   0.00000  Uiso   1.00
C461   C     0.09106   0.89045   0.02228   0.00000  Uiso   1.00
C462   C     0.26294   0.82994   0.46466   0.00000  Uiso   1.00
C463   C     0.21068   0.97877   0.24092   0.00000  Uiso   1.00
C464   C     0.12239   0.68788   0.25990   0.00000  Uiso   1.00
C465   C     0.21067   0.68804   0.24087   0.00000  Uiso   1.00
C466   C     0.12241   0.97859   0.25991   0.00000  Uiso   1.00
C467   C     0.16654   0.70913   0.25028   0.00000  Uiso   1.00
C468   C     0.16657   0.95751   0.25035   0.00000  Uiso   1.00
C469   C     0.29857   0.80537   0.27672   0.00000  Uiso   1.00
C470   C     0.03471   0.86140   0.22340   0.00000  Uiso   1.00
C471   C     0.01318   0.80541   0.27677   0.00000  Uiso   1.00
C472   C     0.32004   0.86148   0.22352   0.00000  Uiso   1.00
C473   C     0.13591   0.83408   0.33831   0.00000  Uiso   1.00
C474   C     0.19752   0.83339   0.16173   0.00000  Uiso   1.00
C475   C     0.11739   0.84201   0.38885   0.00000  Uiso   1.00
C476   C     0.21794   0.83562   0.11047   0.00000  Uiso   1.00
C477   C     0.06380   0.87803   0.45860   0.00000  Uiso   1.00
C478   C     0.28042   0.82041   0.03418   0.00000  Uiso   1.00
C479   C     0.07342   0.86360   0.41299   0.00000  Uiso   1.00
C480   C     0.26518   0.82073   0.08316   0.00000  Uiso   1.00
C481   C     0.15027   0.83489   0.41044   0.00000  Uiso   1.00
C482   C     0.18811   0.85215   0.08897   0.00000  Uiso   1.00
C483   C     0.14425   0.85362   0.45293   0.00000  Uiso   1.00
C484   C     0.20246   0.85140   0.04025   0.00000  Uiso   1.00
C485   C     0.09947   0.87414   0.47809   0.00000  Uiso   1.00
C486   C     0.24910   0.83458   0.01284   0.00000  Uiso   1.00
C487   C     0.18122   0.85121   0.47144   0.00000  Uiso   1.00
C488   C     0.16961   0.86281   0.01865   0.00000  Uiso   1.00
H489   H     0.05737   0.90699   0.04172   0.00000  Uiso   1.00
H490   H     0.29892   0.81809   0.44308   0.00000  Uiso   1.00
H491   H     0.15212   0.86285   0.11135   0.00000  Uiso   1.00
H492   H     0.18148   0.81522   0.39256   0.00000  Uiso   1.00
H493   H     0.02916   0.89322   0.47813   0.00000  Uiso   1.00
H494   H     0.31536   0.80649   0.01298   0.00000  Uiso   1.00
H495   H     0.11602   0.89742   0.07716   0.00000  Uiso   1.00
H496   H     0.24243   0.83321   0.40672   0.00000  Uiso   1.00
H497   H     0.24510   0.96260   0.23320   0.00000  Uiso   1.00
H498   H     0.08797   0.70405   0.26759   0.00000  Uiso   1.00
H499   H     0.24508   0.70434   0.23313   0.00000  Uiso   1.00
H500   H     0.08803   0.96228   0.26754   0.00000  Uiso   1.00
H501   H     0.27178   0.78301   0.29809   0.00000  Uiso   1.00
H502   H     0.06151   0.88376   0.20203   0.00000  Uiso   1.00
H503   H     0.02272   0.78312   0.29820   0.00000  Uiso   1.00
H504   H     0.31047   0.88385   0.20218   0.00000  Uiso   1.00
N505   N     0.04759   0.83334   0.25001   0.00000  Uiso   1.00
N506   N     0.28574   0.83332   0.24999   0.00000  Uiso   1.00
O507   O     0.12846   0.89442   0.25000   0.00000  Uiso   1.00
O508   O     0.20488   0.77225   0.24999   0.00000  Uiso   1.00
O509   O     0.20490   0.89441   0.25000   0.00000  Uiso   1.00
O510   O     0.12843   0.77226   0.25000   0.00000  Uiso   1.00
O511   O     0.10661   0.83334   0.31612   0.00000  Uiso   1.00
O512   O     0.22672   0.83333   0.18387   0.00000  Uiso   1.00
O513   O     0.18305   0.83333   0.31612   0.00000  Uiso   1.00
O514   O     0.15028   0.83334   0.18388   0.00000  Uiso   1.00
Zn515  Zn    0.11562   0.83334   0.25000   0.00000  Uiso   1.00
Zn516  Zn    0.21771   0.83333   0.25000   0.00000  Uiso   1.00
O517   O     0.29250   0.80031   0.10446   0.00000  Uiso   1.00
C518   C     0.00289   0.82265   0.09632   0.00000  Uiso   1.00
H519   H     0.32781   0.85455   0.11126   0.00000  Uiso   1.00
H520   H     0.02607   0.82466   0.05822   0.00000  Uiso   1.00
C521   C     0.03247   0.80003   0.12001   0.00000  Uiso   1.00
H522   H     0.04455   0.76933   0.10320   0.00000  Uiso   1.00
H523   H     0.06537   0.81870   0.11660   0.00000  Uiso   1.00
H524   H     0.00974   0.79507   0.15781   0.00000  Uiso   1.00
O525   O     0.03937   0.86901   0.39276   0.00000  Uiso   1.00
C526   C     0.03883   0.91125   0.38025   0.00000  Uiso   1.00
H527   H     0.07641   0.92233   0.35767   0.00000  Uiso   1.00
H528   H     0.02369   0.93108   0.41209   0.00000  Uiso   1.00
C529   C     0.00615   0.91604   0.35264   0.00000  Uiso   1.00
H530   H     0.30163   0.90532   0.37418   0.00000  Uiso   1.00
H531   H     0.00491   0.94922   0.34302   0.00000  Uiso   1.00
H532   H     0.02093   0.89732   0.32005   0.00000  Uiso   1.00
C533   C     0.49998   0.91338   0.25012   0.00000  Uiso   1.00
C534   C     0.49994   0.75328   0.25009   0.00000  Uiso   1.00
C535   C     0.45840   0.88423   0.04277   0.00000  Uiso   1.00
C536   C     0.56277   0.83768   0.44419   0.00000  Uiso   1.00
C537   C     0.42439   0.89045   0.02228   0.00000  Uiso   1.00
C538   C     0.59628   0.82994   0.46466   0.00000  Uiso   1.00
C539   C     0.54401   0.97877   0.24092   0.00000  Uiso   1.00
C540   C     0.45572   0.68788   0.25990   0.00000  Uiso   1.00
C541   C     0.54400   0.68804   0.24087   0.00000  Uiso   1.00
C542   C     0.45574   0.97859   0.25991   0.00000  Uiso   1.00
C543   C     0.49987   0.70913   0.25028   0.00000  Uiso   1.00
C544   C     0.49990   0.95751   0.25035   0.00000  Uiso   1.00
C545   C     0.63191   0.80537   0.27672   0.00000  Uiso   1.00
C546   C     0.36805   0.86140   0.22340   0.00000  Uiso   1.00
C547   C     0.34651   0.80541   0.27677   0.00000  Uiso   1.00
C548   C     0.65337   0.86148   0.22352   0.00000  Uiso   1.00
C549   C     0.46924   0.83408   0.33831   0.00000  Uiso   1.00
C550   C     0.53085   0.83339   0.16173   0.00000  Uiso   1.00
C551   C     0.45072   0.84201   0.38885   0.00000  Uiso   1.00
C552   C     0.55127   0.83562   0.11047   0.00000  Uiso   1.00
C553   C     0.39713   0.87803   0.45860   0.00000  Uiso   1.00
C554   C     0.61376   0.82041   0.03418   0.00000  Uiso   1.00
C555   C     0.40675   0.86360   0.41299   0.00000  Uiso   1.00
C556   C     0.59852   0.82073   0.08316   0.00000  Uiso   1.00
C557   C     0.48360   0.83489   0.41044   0.00000  Uiso   1.00
C558   C     0.52144   0.85215   0.08897   0.00000  Uiso   1.00
C559   C     0.47758   0.85362   0.45293   0.00000  Uiso   1.00
C560   C     0.53579   0.85140   0.04025   0.00000  Uiso   1.00
C561   C     0.43281   0.87414   0.47809   0.00000  Uiso   1.00
C562   C     0.58244   0.83458   0.01284   0.00000  Uiso   1.00
C563   C     0.51455   0.85121   0.47144   0.00000  Uiso   1.00
C564   C     0.50294   0.86281   0.01865   0.00000  Uiso   1.00
H565   H     0.39070   0.90699   0.04172   0.00000  Uiso   1.00
H566   H     0.63225   0.81809   0.44308   0.00000  Uiso   1.00
H567   H     0.48545   0.86285   0.11135   0.00000  Uiso   1.00
H568   H     0.51481   0.81522   0.39256   0.00000  Uiso   1.00
H569   H     0.36250   0.89322   0.47813   0.00000  Uiso   1.00
H570   H     0.64870   0.80649   0.01298   0.00000  Uiso   1.00
H571   H     0.44936   0.89742   0.07716   0.00000  Uiso   1.00
H572   H     0.57577   0.83321   0.40672   0.00000  Uiso   1.00
H573   H     0.57843   0.96260   0.23320   0.00000  Uiso   1.00
H574   H     0.42131   0.70405   0.26759   0.00000  Uiso   1.00
H575   H     0.57842   0.70434   0.23313   0.00000  Uiso   1.00
H576   H     0.42136   0.96228   0.26754   0.00000  Uiso   1.00
H577   H     0.60511   0.78301   0.29809   0.00000  Uiso   1.00
H578   H     0.39484   0.88376   0.20203   0.00000  Uiso   1.00
H579   H     0.35605   0.78312   0.29820   0.00000  Uiso   1.00
H580   H     0.64380   0.88385   0.20218   0.00000  Uiso   1.00
N581   N     0.38093   0.83334   0.25001   0.00000  Uiso   1.00
N582   N     0.61907   0.83332   0.24999   0.00000  Uiso   1.00
O583   O     0.46179   0.89442   0.25000   0.00000  Uiso   1.00
O584   O     0.53821   0.77225   0.24999   0.00000  Uiso   1.00
O585   O     0.53823   0.89441   0.25000   0.00000  Uiso   1.00
O586   O     0.46177   0.77226   0.25000   0.00000  Uiso   1.00
O587   O     0.43994   0.83334   0.31612   0.00000  Uiso   1.00
O588   O     0.56006   0.83333   0.18387   0.00000  Uiso   1.00
O589   O     0.51639   0.83333   0.31612   0.00000  Uiso   1.00
O590   O     0.48361   0.83334   0.18388   0.00000  Uiso   1.00
Zn591  Zn    0.44896   0.83334   0.25000   0.00000  Uiso   1.00
Zn592  Zn    0.55104   0.83333   0.25000   0.00000  Uiso   1.00
O593   O     0.62583   0.80031   0.10446   0.00000  Uiso   1.00
C594   C     0.33622   0.82265   0.09632   0.00000  Uiso   1.00
H595   H     0.66114   0.85455   0.11126   0.00000  Uiso   1.00
H596   H     0.35940   0.82466   0.05822   0.00000  Uiso   1.00
C597   C     0.36580   0.80003   0.12001   0.00000  Uiso   1.00
H598   H     0.37789   0.76933   0.10320   0.00000  Uiso   1.00
H599   H     0.39870   0.81870   0.11660   0.00000  Uiso   1.00
H600   H     0.34307   0.79507   0.15781   0.00000  Uiso   1.00
O601   O     0.37270   0.86901   0.39276   0.00000  Uiso   1.00
C602   C     0.37216   0.91125   0.38025   0.00000  Uiso   1.00
H603   H     0.40974   0.92233   0.35767   0.00000  Uiso   1.00
H604   H     0.35702   0.93108   0.41209   0.00000  Uiso   1.00
C605   C     0.33949   0.91604   0.35264   0.00000  Uiso   1.00
H606   H     0.63497   0.90532   0.37418   0.00000  Uiso   1.00
H607   H     0.33825   0.94922   0.34302   0.00000  Uiso   1.00
H608   H     0.35426   0.89732   0.32005   0.00000  Uiso   1.00
C609   C     0.83331   0.91338   0.25012   0.00000  Uiso   1.00
C610   C     0.83327   0.75328   0.25009   0.00000  Uiso   1.00
C611   C     0.79173   0.88423   0.04277   0.00000  Uiso   1.00
C612   C     0.89610   0.83768   0.44419   0.00000  Uiso   1.00
C613   C     0.75773   0.89045   0.02228   0.00000  Uiso   1.00
C614   C     0.92961   0.82994   0.46466   0.00000  Uiso   1.00
C615   C     0.87734   0.97877   0.24092   0.00000  Uiso   1.00
C616   C     0.78905   0.68788   0.25990   0.00000  Uiso   1.00
C617   C     0.87733   0.68804   0.24087   0.00000  Uiso   1.00
C618   C     0.78907   0.97859   0.25991   0.00000  Uiso   1.00
C619   C     0.83320   0.70913   0.25028   0.00000  Uiso   1.00
C620   C     0.83323   0.95751   0.25035   0.00000  Uiso   1.00
C621   C     0.96524   0.80537   0.27672   0.00000  Uiso   1.00
C622   C     0.70138   0.86140   0.22340   0.00000  Uiso   1.00
C623   C     0.67985   0.80541   0.27677   0.00000  Uiso   1.00
C624   C     0.98670   0.86148   0.22352   0.00000  Uiso   1.00
C625   C     0.80258   0.83408   0.33831   0.00000  Uiso   1.00
C626   C     0.86419   0.83339   0.16173   0.00000  Uiso   1.00
C627   C     0.78405   0.84201   0.38885   0.00000  Uiso   1.00
C628   C     0.88460   0.83562   0.11047   0.00000  Uiso   1.00
C629   C     0.73046   0.87803   0.45860   0.00000  Uiso   1.00
C630   C     0.94709   0.82041   0.03418   0.00000  Uiso   1.00
C631   C     0.74008   0.86360   0.41299   0.00000  Uiso   1.00
C632   C     0.93185   0.82073   0.08316   0.00000  Uiso   1.00
C633   C     0.81694   0.83489   0.41044   0.00000  Uiso   1.00
C634   C     0.85478   0.85215   0.08897   0.00000  Uiso   1.00
C635   C     0.81091   0.85362   0.45293   0.00000  Uiso   1.00
C636   C     0.86912   0.85140   0.04025   0.00000  Uiso   1.00
C637   C     0.76614   0.87414   0.47809   0.00000  Uiso   1.00
C638   C     0.91577   0.83458   0.01284   0.00000  Uiso   1.00
C639   C     0.84789   0.85121   0.47144   0.00000  Uiso   1.00
C640   C     0.83627   0.86281   0.01865   0.00000  Uiso   1.00
H641   H     0.72404   0.90699   0.04172   0.00000  Uiso   1.00
H642   H     0.96558   0.81809   0.44308   0.00000  Uiso   1.00
H643   H     0.81879   0.86285   0.11135   0.00000  Uiso   1.00
H644   H     0.84815   0.81522   0.39256   0.00000  Uiso   1.00
H645   H     0.69583   0.89322   0.47813   0.00000  Uiso   1.00
H646   H     0.98203   0.80649   0.01298   0.00000  Uiso   1.00
H647   H     0.78269   0.89742   0.07716   0.00000  Uiso   1.00
H648   H     0.90910   0.83321   0.40672   0.00000  Uiso   1.00
H649   H     0.91177   0.96260   0.23320   0.00000  Uiso   1.00
H650   H     0.75464   0.70405   0.26759   0.00000  Uiso   1.00
H651   H     0.91175   0.70434   0.23313   0.00000  Uiso   1.00
H652   H     0.75469   0.96228   0.26754   0.00000  Uiso   1.00
H653   H     0.93845   0.78301   0.29809   0.00000  Uiso   1.00
H654   H     0.72817   0.88376   0.20203   0.00000  Uiso   1.00
H655   H     0.68939   0.78312   0.29820   0.00000  Uiso   1.00
H656   H     0.97713   0.88385   0.20218   0.00000  Uiso   1.00
N657   N     0.71426   0.83334   0.25001   0.00000  Uiso   1.00
N658   N     0.95241   0.83332   0.24999   0.00000  Uiso   1.00
O659   O     0.79512   0.89442   0.25000   0.00000  Uiso   1.00
O660   O     0.87154   0.77225   0.24999   0.00000  Uiso   1.00
O661   O     0.87157   0.89441   0.25000   0.00000  Uiso   1.00
O662   O     0.79510   0.77226   0.25000   0.00000  Uiso   1.00
O663   O     0.77328   0.83334   0.31612   0.00000  Uiso   1.00
O664   O     0.89339   0.83333   0.18387   0.00000  Uiso   1.00
O665   O     0.84972   0.83333   0.31612   0.00000  Uiso   1.00
O666   O     0.81695   0.83334   0.18388   0.00000  Uiso   1.00
Zn667  Zn    0.78229   0.83334   0.25000   0.00000  Uiso   1.00
Zn668  Zn    0.88438   0.83333   0.25000   0.00000  Uiso   1.00
O669   O     0.95916   0.80031   0.10446   0.00000  Uiso   1.00
C670   C     0.66955   0.82265   0.09632   0.00000  Uiso   1.00
H671   H     0.99448   0.85455   0.11126   0.00000  Uiso   1.00
H672   H     0.69274   0.82466   0.05822   0.00000  Uiso   1.00
C673   C     0.69913   0.80003   0.12001   0.00000  Uiso   1.00
H674   H     0.71122   0.76933   0.10320   0.00000  Uiso   1.00
H675   H     0.73204   0.81870   0.11660   0.00000  Uiso   1.00
H676   H     0.67640   0.79507   0.15781   0.00000  Uiso   1.00
O677   O     0.70603   0.86901   0.39276   0.00000  Uiso   1.00
C678   C     0.70550   0.91125   0.38025   0.00000  Uiso   1.00
H679   H     0.74308   0.92233   0.35767   0.00000  Uiso   1.00
H680   H     0.69035   0.93108   0.41209   0.00000  Uiso   1.00
C681   C     0.67282   0.91604   0.35264   0.00000  Uiso   1.00
H682   H     0.96830   0.90532   0.37418   0.00000  Uiso   1.00
H683   H     0.67158   0.94922   0.34302   0.00000  Uiso   1.00
H684   H     0.68760   0.89732   0.32005   0.00000  Uiso   1.00
C685   C     0.16665   0.24671   0.75012   0.00000  Uiso   1.00
C686   C     0.16660   0.08662   0.75009   0.00000  Uiso   1.00
C687   C     0.12506   0.21756   0.54277   0.00000  Uiso   1.00
C688   C     0.22944   0.17101   0.94419   0.00000  Uiso   1.00
C689   C     0.09106   0.22378   0.52228   0.00000  Uiso   1.00
C690   C     0.26294   0.16327   0.96466   0.00000  Uiso   1.00
C691   C     0.21068   0.31210   0.74092   0.00000  Uiso   1.00
C692   C     0.12239   0.02121   0.75990   0.00000  Uiso   1.00
C693   C     0.21067   0.02138   0.74087   0.00000  Uiso   1.00
C694   C     0.12241   0.31192   0.75991   0.00000  Uiso   1.00
C695   C     0.16654   0.04247   0.75028   0.00000  Uiso   1.00
C696   C     0.16657   0.29085   0.75035   0.00000  Uiso   1.00
C697   C     0.29857   0.13870   0.77672   0.00000  Uiso   1.00
C698   C     0.03471   0.19473   0.72340   0.00000  Uiso   1.00
C699   C     0.01318   0.13875   0.77677   0.00000  Uiso   1.00
C700   C     0.32004   0.19481   0.72352   0.00000  Uiso   1.00
C701   C     0.13591   0.16741   0.83831   0.00000  Uiso   1.00
C702   C     0.19752   0.16672   0.66173   0.00000  Uiso   1.00
C703   C     0.11739   0.17534   0.88885   0.00000  Uiso   1.00
C704   C     0.21794   0.16896   0.61047   0.00000  Uiso   1.00
C705   C     0.06380   0.21137   0.95860   0.00000  Uiso   1.00
C706   C     0.28042   0.15374   0.53418   0.00000  Uiso   1.00
C707   C     0.07342   0.19694   0.91299   0.00000  Uiso   1.00
C708   C     0.26518   0.15406   0.58316   0.00000  Uiso   1.00
C709   C     0.15027   0.16822   0.91044   0.00000  Uiso   1.00
C710   C     0.18811   0.18548   0.58897   0.00000  Uiso   1.00
C711   C     0.14425   0.18696   0.95293   0.00000  Uiso   1.00
C712   C     0.20246   0.18473   0.54025   0.00000  Uiso   1.00
C713   C     0.09947   0.20748   0.97809   0.00000  Uiso   1.00
C714   C     0.24910   0.16792   0.51284   0.00000  Uiso   1.00
C715   C     0.18122   0.18454   0.97144   0.00000  Uiso   1.00
C716   C     0.16961   0.19614   0.51865   0.00000  Uiso   1.00
H717   H     0.05737   0.24032   0.54172   0.00000  Uiso   1.00
H718   H     0.29892   0.15142   0.94308   0.00000  Uiso   1.00
H719   H     0.15212   0.19618   0.61135   0.00000  Uiso   1.00
H720   H     0.18148   0.14856   0.89256   0.00000  Uiso   1.00
H721   H     0.02916   0.22655   0.97813   0.00000  Uiso   1.00
H722   H     0.31536   0.13982   0.51298   0.00000  Uiso   1.00
H723   H     0.11602   0.23076   0.57716   0.00000  Uiso   1.00
H724   H     0.24243   0.16655   0.90672   0.00000  Uiso   1.00
H725   H     0.24510   0.29594   0.73320   0.00000  Uiso   1.00
H726   H     0.08797   0.03739   0.76759   0.00000  Uiso   1.00
H727   H     0.24508   0.03767   0.73313   0.00000  Uiso   1.00
H728   H     0.08803   0.29561   0.76754   0.00000  Uiso   1.00
H729   H     0.27178   0.11634   0.79809   0.00000  Uiso   1.00
H730   H     0.06151   0.21710   0.70203   0.00000  Uiso   1.00
H731   H     0.02272   0.11645   0.79820   0.00000  Uiso   1.00
H732   H     0.31047   0.21718   0.70218   0.00000  Uiso   1.00
N733   N     0.04759   0.16668   0.75001   0.00000  Uiso   1.00
N734   N     0.28574   0.16666   0.74999   0.00000  Uiso   1.00
O735   O     0.12846   0.22775   0.75000   0.00000  Uiso   1.00
O736   O     0.20488   0.10558   0.74999   0.00000  Uiso   1.00
O737   O     0.20490   0.22774   0.75000   0.00000  Uiso   1.00
O738   O     0.12843   0.10559   0.75000   0.00000  Uiso   1.00
O739   O     0.10661   0.16667   0.81612   0.00000  Uiso   1.00
O740   O     0.22672   0.16666   0.68387   0.00000  Uiso   1.00
O741   O     0.18305   0.16666   0.81612   0.00000  Uiso   1.00
O742   O     0.15028   0.16667   0.68388   0.00000  Uiso   1.00
Zn743  Zn    0.11562   0.16667   0.75000   0.00000  Uiso   1.00
Zn744  Zn    0.21771   0.16666   0.75000   0.00000  Uiso   1.00
O745   O     0.29250   0.13364   0.60446   0.00000  Uiso   1.00
C746   C     0.00289   0.15598   0.59632   0.00000  Uiso   1.00
H747   H     0.32781   0.18788   0.61126   0.00000  Uiso   1.00
H748   H     0.02607   0.15800   0.55822   0.00000  Uiso   1.00
C749   C     0.03247   0.13337   0.62001   0.00000  Uiso   1.00
H750   H     0.04455   0.10266   0.60320   0.00000  Uiso   1.00
H751   H     0.06537   0.15203   0.61660   0.00000  Uiso   1.00
H752   H     0.00974   0.12840   0.65781   0.00000  Uiso   1.00
O753   O     0.03937   0.20235   0.89276   0.00000  Uiso   1.00
C754   C     0.03883   0.24458   0.88025   0.00000  Uiso   1.00
H755   H     0.07641   0.25567   0.85767   0.00000  Uiso   1.00
H756   H     0.02369   0.26441   0.91209   0.00000  Uiso   1.00
C757   C     0.00615   0.24937   0.85264   0.00000  Uiso   1.00
H758   H     0.30163   0.23865   0.87418   0.00000  Uiso   1.00
H759   H     0.00491   0.28255   0.84302   0.00000  Uiso   1.00
H760   H     0.02093   0.23065   0.82005   0.00000  Uiso   1.00
C761   C     0.49998   0.24671   0.75012   0.00000  Uiso   1.00
C762   C     0.49994   0.08662   0.75009   0.00000  Uiso   1.00
C763   C     0.45840   0.21756   0.54277   0.00000  Uiso   1.00
C764   C     0.56277   0.17101   0.94419   0.00000  Uiso   1.00
C765   C     0.42439   0.22378   0.52228   0.00000  Uiso   1.00
C766   C     0.59628   0.16327   0.96466   0.00000  Uiso   1.00
C767   C     0.54401   0.31210   0.74092   0.00000  Uiso   1.00
C768   C     0.45572   0.02121   0.75990   0.00000  Uiso   1.00
C769   C     0.54400   0.02138   0.74087   0.00000  Uiso   1.00
C770   C     0.45574   0.31192   0.75991   0.00000  Uiso   1.00
C771   C     0.49987   0.04247   0.75028   0.00000  Uiso   1.00
C772   C     0.49990   0.29085   0.75035   0.00000  Uiso   1.00
C773   C     0.63191   0.13870   0.77672   0.00000  Uiso   1.00
C774   C     0.36805   0.19473   0.72340   0.00000  Uiso   1.00
C775   C     0.34651   0.13875   0.77677   0.00000  Uiso   1.00
C776   C     0.65337   0.19481   0.72352   0.00000  Uiso   1.00
C777   C     0.46924   0.16741   0.83831   0.00000  Uiso   1.00
C778   C     0.53085   0.16672   0.66173   0.00000  Uiso   1.00
C779   C     0.45072   0.17534   0.88885   0.00000  Uiso   1.00
C780   C     0.55127   0.16896   0.61047   0.00000  Uiso   1.00
C781   C     0.39713   0.21137   0.95860   0.00000  Uiso   1.00
C782   C     0.61376   0.15374   0.53418   0.00000  Uiso   1.00
C783   C     0.40675   0.19694   0.91299   0.00000  Uiso   1.00
C784   C     0.59852   0.15406   0.58316   0.00000  Uiso   1.00
C785   C     0.48360   0.16822   0.91044   0.00000  Uiso   1.00
C786   C     0.52144   0.18548   0.58897   0.00000  Uiso   1.00
C787   C     0.47758   0.18696   0.95293   0.00000  Uiso   1.00
C788   C     0.53579   0.18473   0.54025   0.00000  Uiso   1.00
C789   C     0.43281   0.20748   0.97809   0.00000  Uiso   1.00
C790   C     0.58244   0.16792   0.51284   0.00000  Uiso   1.00
C791   C     0.51455   0.18454   0.97144   0.00000  Uiso   1.00
C792   C     0.50294   0.19614   0.51865   0.00000  Uiso   1.00
H793   H     0.39070   0.24032   0.54172   0.00000  Uiso   1.00
H794   H     0.63225   0.15142   0.94308   0.00000  Uiso   1.00
H795   H     0.48545   0.19618   0.61135   0.00000  Uiso   1.00
H796   H     0.51481   0.14856   0.89256   0.00000  Uiso   1.00
H797   H     0.36250   0.22655   0.97813   0.00000  Uiso   1.00
H798   H     0.64870   0.13982   0.51298   0.00000  Uiso   1.00
H799   H     0.44936   0.23076   0.57716   0.00000  Uiso   1.00
H800   H     0.57577   0.16655   0.90672   0.00000  Uiso   1.00
H801   H     0.57843   0.29594   0.73320   0.00000  Uiso   1.00
H802   H     0.42131   0.03739   0.76759   0.00000  Uiso   1.00
H803   H     0.57842   0.03767   0.73313   0.00000  Uiso   1.00
H804   H     0.42136   0.29561   0.76754   0.00000  Uiso   1.00
H805   H     0.60511   0.11634   0.79809   0.00000  Uiso   1.00
H806   H     0.39484   0.21710   0.70203   0.00000  Uiso   1.00
H807   H     0.35605   0.11645   0.79820   0.00000  Uiso   1.00
H808   H     0.64380   0.21718   0.70218   0.00000  Uiso   1.00
N809   N     0.38093   0.16668   0.75001   0.00000  Uiso   1.00
N810   N     0.61907   0.16666   0.74999   0.00000  Uiso   1.00
O811   O     0.46179   0.22775   0.75000   0.00000  Uiso   1.00
O812   O     0.53821   0.10558   0.74999   0.00000  Uiso   1.00
O813   O     0.53823   0.22774   0.75000   0.00000  Uiso   1.00
O814   O     0.46177   0.10559   0.75000   0.00000  Uiso   1.00
O815   O     0.43994   0.16667   0.81612   0.00000  Uiso   1.00
O816   O     0.56006   0.16666   0.68387   0.00000  Uiso   1.00
O817   O     0.51639   0.16666   0.81612   0.00000  Uiso   1.00
O818   O     0.48361   0.16667   0.68388   0.00000  Uiso   1.00
Zn819  Zn    0.44896   0.16667   0.75000   0.00000  Uiso   1.00
Zn820  Zn    0.55104   0.16666   0.75000   0.00000  Uiso   1.00
O821   O     0.62583   0.13364   0.60446   0.00000  Uiso   1.00
C822   C     0.33622   0.15598   0.59632   0.00000  Uiso   1.00
H823   H     0.66114   0.18788   0.61126   0.00000  Uiso   1.00
H824   H     0.35940   0.15800   0.55822   0.00000  Uiso   1.00
C825   C     0.36580   0.13337   0.62001   0.00000  Uiso   1.00
H826   H     0.37789   0.10266   0.60320   0.00000  Uiso   1.00
H827   H     0.39870   0.15203   0.61660   0.00000  Uiso   1.00
H828   H     0.34307   0.12840   0.65781   0.00000  Uiso   1.00
O829   O     0.37270   0.20235   0.89276   0.00000  Uiso   1.00
C830   C     0.37216   0.24458   0.88025   0.00000  Uiso   1.00
H831   H     0.40974   0.25567   0.85767   0.00000  Uiso   1.00
H832   H     0.35702   0.26441   0.91209   0.00000  Uiso   1.00
C833   C     0.33949   0.24937   0.85264   0.00000  Uiso   1.00
H834   H     0.63497   0.23865   0.87418   0.00000  Uiso   1.00
H835   H     0.33825   0.28255   0.84302   0.00000  Uiso   1.00
H836   H     0.35426   0.23065   0.82005   0.00000  Uiso   1.00
C837   C     0.83331   0.24671   0.75012   0.00000  Uiso   1.00
C838   C     0.83327   0.08662   0.75009   0.00000  Uiso   1.00
C839   C     0.79173   0.21756   0.54277   0.00000  Uiso   1.00
C840   C     0.89610   0.17101   0.94419   0.00000  Uiso   1.00
C841   C     0.75773   0.22378   0.52228   0.00000  Uiso   1.00
C842   C     0.92961   0.16327   0.96466   0.00000  Uiso   1.00
C843   C     0.87734   0.31210   0.74092   0.00000  Uiso   1.00
C844   C     0.78905   0.02121   0.75990   0.00000  Uiso   1.00
C845   C     0.87733   0.02138   0.74087   0.00000  Uiso   1.00
C846   C     0.78907   0.31192   0.75991   0.00000  Uiso   1.00
C847   C     0.83320   0.04247   0.75028   0.00000  Uiso   1.00
C848   C     0.83323   0.29085   0.75035   0.00000  Uiso   1.00
C849   C     0.96524   0.13870   0.77672   0.00000  Uiso   1.00
C850   C     0.70138   0.19473   0.72340   0.00000  Uiso   1.00
C851   C     0.67985   0.13875   0.77677   0.00000  Uiso   1.00
C852   C     0.98670   0.19481   0.72352   0.00000  Uiso   1.00
C853   C     0.80258   0.16741   0.83831   0.00000  Uiso   1.00
C854   C     0.86419   0.16672   0.66173   0.00000  Uiso   1.00
C855   C     0.78405   0.17534   0.88885   0.00000  Uiso   1.00
C856   C     0.88460   0.16896   0.61047   0.00000  Uiso   1.00
C857   C     0.73046   0.21137   0.95860   0.00000  Uiso   1.00
C858   C     0.94709   0.15374   0.53418   0.00000  Uiso   1.00
C859   C     0.74008   0.19694   0.91299   0.00000  Uiso   1.00
C860   C     0.93185   0.15406   0.58316   0.00000  Uiso   1.00
C861   C     0.81694   0.16822   0.91044   0.00000  Uiso   1.00
C862   C     0.85478   0.18548   0.58897   0.00000  Uiso   1.00
C863   C     0.81091   0.18696   0.95293   0.00000  Uiso   1.00
C864   C     0.86912   0.18473   0.54025   0.00000  Uiso   1.00
C865   C     0.76614   0.20748   0.97809   0.00000  Uiso   1.00
C866   C     0.91577   0.16792   0.51284   0.00000  Uiso   1.00
C867   C     0.84789   0.18454   0.97144   0.00000  Uiso   1.00
C868   C     0.83627   0.19614   0.51865   0.00000  Uiso   1.00
H869   H     0.72404   0.24032   0.54172   0.00000  Uiso   1.00
H870   H     0.96558   0.15142   0.94308   0.00000  Uiso   1.00
H871   H     0.81879   0.19618   0.61135   0.00000  Uiso   1.00
H872   H     0.84815   0.14856   0.89256   0.00000  Uiso   1.00
H873   H     0.69583   0.22655   0.97813   0.00000  Uiso   1.00
H874   H     0.98203   0.13982   0.51298   0.00000  Uiso   1.00
H875   H     0.78269   0.23076   0.57716   0.00000  Uiso   1.00
H876   H     0.90910   0.16655   0.90672   0.00000  Uiso   1.00
H877   H     0.91177   0.29594   0.73320   0.00000  Uiso   1.00
H878   H     0.75464   0.03739   0.76759   0.00000  Uiso   1.00
H879   H     0.91175   0.03767   0.73313   0.00000  Uiso   1.00
H880   H     0.75469   0.29561   0.76754   0.00000  Uiso   1.00
H881   H     0.93845   0.11634   0.79809   0.00000  Uiso   1.00
H882   H     0.72817   0.21710   0.70203   0.00000  Uiso   1.00
H883   H     0.68939   0.11645   0.79820   0.00000  Uiso   1.00
H884   H     0.97713   0.21718   0.70218   0.00000  Uiso   1.00
N885   N     0.71426   0.16668   0.75001   0.00000  Uiso   1.00
N886   N     0.95241   0.16666   0.74999   0.00000  Uiso   1.00
O887   O     0.79512   0.22775   0.75000   0.00000  Uiso   1.00
O888   O     0.87154   0.10558   0.74999   0.00000  Uiso   1.00
O889   O     0.87157   0.22774   0.75000   0.00000  Uiso   1.00
O890   O     0.79510   0.10559   0.75000   0.00000  Uiso   1.00
O891   O     0.77328   0.16667   0.81612   0.00000  Uiso   1.00
O892   O     0.89339   0.16666   0.68387   0.00000  Uiso   1.00
O893   O     0.84972   0.16666   0.81612   0.00000  Uiso   1.00
O894   O     0.81695   0.16667   0.68388   0.00000  Uiso   1.00
Zn895  Zn    0.78229   0.16667   0.75000   0.00000  Uiso   1.00
Zn896  Zn    0.88438   0.16666   0.75000   0.00000  Uiso   1.00
O897   O     0.95916   0.13364   0.60446   0.00000  Uiso   1.00
C898   C     0.66955   0.15598   0.59632   0.00000  Uiso   1.00
H899   H     0.99448   0.18788   0.61126   0.00000  Uiso   1.00
H900   H     0.69274   0.15800   0.55822   0.00000  Uiso   1.00
C901   C     0.69913   0.13337   0.62001   0.00000  Uiso   1.00
H902   H     0.71122   0.10266   0.60320   0.00000  Uiso   1.00
H903   H     0.73204   0.15203   0.61660   0.00000  Uiso   1.00
H904   H     0.67640   0.12840   0.65781   0.00000  Uiso   1.00
O905   O     0.70603   0.20235   0.89276   0.00000  Uiso   1.00
C906   C     0.70550   0.24458   0.88025   0.00000  Uiso   1.00
H907   H     0.74308   0.25567   0.85767   0.00000  Uiso   1.00
H908   H     0.69035   0.26441   0.91209   0.00000  Uiso   1.00
C909   C     0.67282   0.24937   0.85264   0.00000  Uiso   1.00
H910   H     0.96830   0.23865   0.87418   0.00000  Uiso   1.00
H911   H     0.67158   0.28255   0.84302   0.00000  Uiso   1.00
H912   H     0.68760   0.23065   0.82005   0.00000  Uiso   1.00
C913   C     0.16665   0.58004   0.75012   0.00000  Uiso   1.00
C914   C     0.16660   0.41995   0.75009   0.00000  Uiso   1.00
C915   C     0.12506   0.55089   0.54277   0.00000  Uiso   1.00
C916   C     0.22944   0.50434   0.94419   0.00000  Uiso   1.00
C917   C     0.09106   0.55712   0.52228   0.00000  Uiso   1.00
C918   C     0.26294   0.49661   0.96466   0.00000  Uiso   1.00
C919   C     0.21068   0.64543   0.74092   0.00000  Uiso   1.00
C920   C     0.12239   0.35455   0.75990   0.00000  Uiso   1.00
C921   C     0.21067   0.35471   0.74087   0.00000  Uiso   1.00
C922   C     0.12241   0.64526   0.75991   0.00000  Uiso   1.00
C923   C     0.16654   0.37580   0.75028   0.00000  Uiso   1.00
C924   C     0.16657   0.62418   0.75035   0.00000  Uiso   1.00
C925   C     0.29857   0.47203   0.77672   0.00000  Uiso   1.00
C926   C     0.03471   0.52807   0.72340   0.00000  Uiso   1.00
C927   C     0.01318   0.47208   0.77677   0.00000  Uiso   1.00
C928   C     0.32004   0.52815   0.72352   0.00000  Uiso   1.00
C929   C     0.13591   0.50075   0.83831   0.00000  Uiso   1.00
C930   C     0.19752   0.50006   0.66173   0.00000  Uiso   1.00
C931   C     0.11739   0.50868   0.88885   0.00000  Uiso   1.00
C932   C     0.21794   0.50229   0.61047   0.00000  Uiso   1.00
C933   C     0.06380   0.54470   0.95860   0.00000  Uiso   1.00
C934   C     0.28042   0.48708   0.53418   0.00000  Uiso   1.00
C935   C     0.07342   0.53027   0.91299   0.00000  Uiso   1.00
C936   C     0.26518   0.48739   0.58316   0.00000  Uiso   1.00
C937   C     0.15027   0.50156   0.91044   0.00000  Uiso   1.00
C938   C     0.18811   0.51882   0.58897   0.00000  Uiso   1.00
C939   C     0.14425   0.52029   0.95293   0.00000  Uiso   1.00
C940   C     0.20246   0.51806   0.54025   0.00000  Uiso   1.00
C941   C     0.09947   0.54081   0.97809   0.00000  Uiso   1.00
C942   C     0.24910   0.50125   0.51284   0.00000  Uiso   1.00
C943   C     0.18122   0.51788   0.97144   0.00000  Uiso   1.00
C944   C     0.16961   0.52948   0.51865   0.00000  Uiso   1.00
H945   H     0.05737   0.57365   0.54172   0.00000  Uiso   1.00
H946   H     0.29892   0.48475   0.94308   0.00000  Uiso   1.00
H947   H     0.15212   0.52952   0.61135   0.00000  Uiso   1.00
H948   H     0.18148   0.48189   0.89256   0.00000  Uiso   1.00
H949   H     0.02916   0.55989   0.97813   0.00000  Uiso   1.00
H950   H     0.31536   0.47316   0.51298   0.00000  Uiso   1.00
H951   H     0.11602   0.56409   0.57716   0.00000  Uiso   1.00
H952   H     0.24243   0.49988   0.90672   0.00000  Uiso   1.00
H953   H     0.24510   0.62927   0.73320   0.00000  Uiso   1.00
H954   H     0.08797   0.37072   0.76759   0.00000  Uiso   1.00
H955   H     0.24508   0.37101   0.73313   0.00000  Uiso   1.00
H956   H     0.08803   0.62895   0.76754   0.00000  Uiso   1.00
H957   H     0.27178   0.44967   0.79809   0.00000  Uiso   1.00
H958   H     0.06151   0.55043   0.70203   0.00000  Uiso   1.00
H959   H     0.02272   0.44978   0.79820   0.00000  Uiso   1.00
H960   H     0.31047   0.55052   0.70218   0.00000  Uiso   1.00
N961   N     0.04759   0.50001   0.75001   0.00000  Uiso   1.00
N962   N     0.28574   0.49999   0.74999   0.00000  Uiso   1.00
O963   O     0.12846   0.56108   0.75000   0.00000  Uiso   1.00
O964   O     0.20488   0.43892   0.74999   0.00000  Uiso   1.00
O965   O     0.20490   0.56107   0.75000   0.00000  Uiso   1.00
O966   O     0.12843   0.43893   0.75000   0.00000  Uiso   1.00
O967   O     0.10661   0.50001   0.81612   0.00000  Uiso   1.00
O968   O     0.22672   0.49999   0.68387   0.00000  Uiso   1.00
O969   O     0.18305   0.50000   0.81612   0.00000  Uiso   1.00
O970   O     0.15028   0.50000   0.68388   0.00000  Uiso   1.00
Zn971  Zn    0.11562   0.50001   0.75000   0.00000  Uiso   1.00
Zn972  Zn    0.21771   0.49999   0.75000   0.00000  Uiso   1.00
O973   O     0.29250   0.46697   0.60446   0.00000  Uiso   1.00
C974   C     0.00289   0.48932   0.59632   0.00000  Uiso   1.00
H975   H     0.32781   0.52122   0.61126   0.00000  Uiso   1.00
H976   H     0.02607   0.49133   0.55822   0.00000  Uiso   1.00
C977   C     0.03247   0.46670   0.62001   0.00000  Uiso   1.00
H978   H     0.04455   0.43599   0.60320   0.00000  Uiso   1.00
H979   H     0.06537   0.48537   0.61660   0.00000  Uiso   1.00
H980   H     0.00974   0.46173   0.65781   0.00000  Uiso   1.00
O981   O     0.03937   0.53568   0.89276   0.00000  Uiso   1.00
C982   C     0.03883   0.57791   0.88025   0.00000  Uiso   1.00
H983   H     0.07641   0.58900   0.85767   0.00000  Uiso   1.00
H984   H     0.02369   0.59774   0.91209   0.00000  Uiso   1.00
C985   C     0.00615   0.58270   0.85264   0.00000  Uiso   1.00
H986   H     0.30163   0.57198   0.87418   0.00000  Uiso   1.00
H987   H     0.00491   0.61588   0.84302   0.00000  Uiso   1.00
H988   H     0.02093   0.56398   0.82005   0.00000  Uiso   1.00
C989   C     0.49998   0.58004   0.75012   0.00000  Uiso   1.00
C990   C     0.49994   0.41995   0.75009   0.00000  Uiso   1.00
C991   C     0.45840   0.55089   0.54277   0.00000  Uiso   1.00
C992   C     0.56277   0.50434   0.94419   0.00000  Uiso   1.00
C993   C     0.42439   0.55712   0.52228   0.00000  Uiso   1.00
C994   C     0.59628   0.49661   0.96466   0.00000  Uiso   1.00
C995   C     0.54401   0.64543   0.74092   0.00000  Uiso   1.00
C996   C     0.45572   0.35455   0.75990   0.00000  Uiso   1.00
C997   C     0.54400   0.35471   0.74087   0.00000  Uiso   1.00
C998   C     0.45574   0.64526   0.75991   0.00000  Uiso   1.00
C999   C     0.49987   0.37580   0.75028   0.00000  Uiso   1.00
C1000  C     0.49990   0.62418   0.75035   0.00000  Uiso   1.00
C1001  C     0.63191   0.47203   0.77672   0.00000  Uiso   1.00
C1002  C     0.36805   0.52807   0.72340   0.00000  Uiso   1.00
C1003  C     0.34651   0.47208   0.77677   0.00000  Uiso   1.00
C1004  C     0.65337   0.52815   0.72352   0.00000  Uiso   1.00
C1005  C     0.46924   0.50075   0.83831   0.00000  Uiso   1.00
C1006  C     0.53085   0.50006   0.66173   0.00000  Uiso   1.00
C1007  C     0.45072   0.50868   0.88885   0.00000  Uiso   1.00
C1008  C     0.55127   0.50229   0.61047   0.00000  Uiso   1.00
C1009  C     0.39713   0.54470   0.95860   0.00000  Uiso   1.00
C1010  C     0.61376   0.48708   0.53418   0.00000  Uiso   1.00
C1011  C     0.40675   0.53027   0.91299   0.00000  Uiso   1.00
C1012  C     0.59852   0.48739   0.58316   0.00000  Uiso   1.00
C1013  C     0.48360   0.50156   0.91044   0.00000  Uiso   1.00
C1014  C     0.52144   0.51882   0.58897   0.00000  Uiso   1.00
C1015  C     0.47758   0.52029   0.95293   0.00000  Uiso   1.00
C1016  C     0.53579   0.51806   0.54025   0.00000  Uiso   1.00
C1017  C     0.43281   0.54081   0.97809   0.00000  Uiso   1.00
C1018  C     0.58244   0.50125   0.51284   0.00000  Uiso   1.00
C1019  C     0.51455   0.51788   0.97144   0.00000  Uiso   1.00
C1020  C     0.50294   0.52948   0.51865   0.00000  Uiso   1.00
H1021  H     0.39070   0.57365   0.54172   0.00000  Uiso   1.00
H1022  H     0.63225   0.48475   0.94308   0.00000  Uiso   1.00
H1023  H     0.48545   0.52952   0.61135   0.00000  Uiso   1.00
H1024  H     0.51481   0.48189   0.89256   0.00000  Uiso   1.00
H1025  H     0.36250   0.55989   0.97813   0.00000  Uiso   1.00
H1026  H     0.64870   0.47316   0.51298   0.00000  Uiso   1.00
H1027  H     0.44936   0.56409   0.57716   0.00000  Uiso   1.00
H1028  H     0.57577   0.49988   0.90672   0.00000  Uiso   1.00
H1029  H     0.57843   0.62927   0.73320   0.00000  Uiso   1.00
H1030  H     0.42131   0.37072   0.76759   0.00000  Uiso   1.00
H1031  H     0.57842   0.37101   0.73313   0.00000  Uiso   1.00
H1032  H     0.42136   0.62895   0.76754   0.00000  Uiso   1.00
H1033  H     0.60511   0.44967   0.79809   0.00000  Uiso   1.00
H1034  H     0.39484   0.55043   0.70203   0.00000  Uiso   1.00
H1035  H     0.35605   0.44978   0.79820   0.00000  Uiso   1.00
H1036  H     0.64380   0.55052   0.70218   0.00000  Uiso   1.00
N1037  N     0.38093   0.50001   0.75001   0.00000  Uiso   1.00
N1038  N     0.61907   0.49999   0.74999   0.00000  Uiso   1.00
O1039  O     0.46179   0.56108   0.75000   0.00000  Uiso   1.00
O1040  O     0.53821   0.43892   0.74999   0.00000  Uiso   1.00
O1041  O     0.53823   0.56107   0.75000   0.00000  Uiso   1.00
O1042  O     0.46177   0.43893   0.75000   0.00000  Uiso   1.00
O1043  O     0.43994   0.50001   0.81612   0.00000  Uiso   1.00
O1044  O     0.56006   0.49999   0.68387   0.00000  Uiso   1.00
O1045  O     0.51639   0.50000   0.81612   0.00000  Uiso   1.00
O1046  O     0.48361   0.50000   0.68388   0.00000  Uiso   1.00
Zn1047 Zn    0.44896   0.50001   0.75000   0.00000  Uiso   1.00
Zn1048 Zn    0.55104   0.49999   0.75000   0.00000  Uiso   1.00
O1049  O     0.62583   0.46697   0.60446   0.00000  Uiso   1.00
C1050  C     0.33622   0.48932   0.59632   0.00000  Uiso   1.00
H1051  H     0.66114   0.52122   0.61126   0.00000  Uiso   1.00
H1052  H     0.35940   0.49133   0.55822   0.00000  Uiso   1.00
C1053  C     0.36580   0.46670   0.62001   0.00000  Uiso   1.00
H1054  H     0.37789   0.43599   0.60320   0.00000  Uiso   1.00
H1055  H     0.39870   0.48537   0.61660   0.00000  Uiso   1.00
H1056  H     0.34307   0.46173   0.65781   0.00000  Uiso   1.00
O1057  O     0.37270   0.53568   0.89276   0.00000  Uiso   1.00
C1058  C     0.37216   0.57791   0.88025   0.00000  Uiso   1.00
H1059  H     0.40974   0.58900   0.85767   0.00000  Uiso   1.00
H1060  H     0.35702   0.59774   0.91209   0.00000  Uiso   1.00
C1061  C     0.33949   0.58270   0.85264   0.00000  Uiso   1.00
H1062  H     0.63497   0.57198   0.87418   0.00000  Uiso   1.00
H1063  H     0.33825   0.61588   0.84302   0.00000  Uiso   1.00
H1064  H     0.35426   0.56398   0.82005   0.00000  Uiso   1.00
C1065  C     0.83331   0.58004   0.75012   0.00000  Uiso   1.00
C1066  C     0.83327   0.41995   0.75009   0.00000  Uiso   1.00
C1067  C     0.79173   0.55089   0.54277   0.00000  Uiso   1.00
C1068  C     0.89610   0.50434   0.94419   0.00000  Uiso   1.00
C1069  C     0.75773   0.55712   0.52228   0.00000  Uiso   1.00
C1070  C     0.92961   0.49661   0.96466   0.00000  Uiso   1.00
C1071  C     0.87734   0.64543   0.74092   0.00000  Uiso   1.00
C1072  C     0.78905   0.35455   0.75990   0.00000  Uiso   1.00
C1073  C     0.87733   0.35471   0.74087   0.00000  Uiso   1.00
C1074  C     0.78907   0.64526   0.75991   0.00000  Uiso   1.00
C1075  C     0.83320   0.37580   0.75028   0.00000  Uiso   1.00
C1076  C     0.83323   0.62418   0.75035   0.00000  Uiso   1.00
C1077  C     0.96524   0.47203   0.77672   0.00000  Uiso   1.00
C1078  C     0.70138   0.52807   0.72340   0.00000  Uiso   1.00
C1079  C     0.67985   0.47208   0.77677   0.00000  Uiso   1.00
C1080  C     0.98670   0.52815   0.72352   0.00000  Uiso   1.00
C1081  C     0.80258   0.50075   0.83831   0.00000  Uiso   1.00
C1082  C     0.86419   0.50006   0.66173   0.00000  Uiso   1.00
C1083  C     0.78405   0.50868   0.88885   0.00000  Uiso   1.00
C1084  C     0.88460   0.50229   0.61047   0.00000  Uiso   1.00
C1085  C     0.73046   0.54470   0.95860   0.00000  Uiso   1.00
C1086  C     0.94709   0.48708   0.53418   0.00000  Uiso   1.00
C1087  C     0.74008   0.53027   0.91299   0.00000  Uiso   1.00
C1088  C     0.93185   0.48739   0.58316   0.00000  Uiso   1.00
C1089  C     0.81694   0.50156   0.91044   0.00000  Uiso   1.00
C1090  C     0.85478   0.51882   0.58897   0.00000  Uiso   1.00
C1091  C     0.81091   0.52029   0.95293   0.00000  Uiso   1.00
C1092  C     0.86912   0.51806   0.54025   0.00000  Uiso   1.00
C1093  C     0.76614   0.54081   0.97809   0.00000  Uiso   1.00
C1094  C     0.91577   0.50125   0.51284   0.00000  Uiso   1.00
C1095  C     0.84789   0.51788   0.97144   0.00000  Uiso   1.00
C1096  C     0.83627   0.52948   0.51865   0.00000  Uiso   1.00
H1097  H     0.72404   0.57365   0.54172   0.00000  Uiso   1.00
H1098  H     0.96558   0.48475   0.94308   0.00000  Uiso   1.00
H1099  H     0.81879   0.52952   0.61135   0.00000  Uiso   1.00
H1100  H     0.84815   0.48189   0.89256   0.00000  Uiso   1.00
H1101  H     0.69583   0.55989   0.97813   0.00000  Uiso   1.00
H1102  H     0.98203   0.47316   0.51298   0.00000  Uiso   1.00
H1103  H     0.78269   0.56409   0.57716   0.00000  Uiso   1.00
H1104  H     0.90910   0.49988   0.90672   0.00000  Uiso   1.00
H1105  H     0.91177   0.62927   0.73320   0.00000  Uiso   1.00
H1106  H     0.75464   0.37072   0.76759   0.00000  Uiso   1.00
H1107  H     0.91175   0.37101   0.73313   0.00000  Uiso   1.00
H1108  H     0.75469   0.62895   0.76754   0.00000  Uiso   1.00
H1109  H     0.93845   0.44967   0.79809   0.00000  Uiso   1.00
H1110  H     0.72817   0.55043   0.70203   0.00000  Uiso   1.00
H1111  H     0.68939   0.44978   0.79820   0.00000  Uiso   1.00
H1112  H     0.97713   0.55052   0.70218   0.00000  Uiso   1.00
N1113  N     0.71426   0.50001   0.75001   0.00000  Uiso   1.00
N1114  N     0.95241   0.49999   0.74999   0.00000  Uiso   1.00
O1115  O     0.79512   0.56108   0.75000   0.00000  Uiso   1.00
O1116  O     0.87154   0.43892   0.74999   0.00000  Uiso   1.00
O1117  O     0.87157   0.56107   0.75000   0.00000  Uiso   1.00
O1118  O     0.79510   0.43893   0.75000   0.00000  Uiso   1.00
O1119  O     0.77328   0.50001   0.81612   0.00000  Uiso   1.00
O1120  O     0.89339   0.49999   0.68387   0.00000  Uiso   1.00
O1121  O     0.84972   0.50000   0.81612   0.00000  Uiso   1.00
O1122  O     0.81695   0.50000   0.68388   0.00000  Uiso   1.00
Zn1123 Zn    0.78229   0.50001   0.75000   0.00000  Uiso   1.00
Zn1124 Zn    0.88438   0.49999   0.75000   0.00000  Uiso   1.00
O1125  O     0.95916   0.46697   0.60446   0.00000  Uiso   1.00
C1126  C     0.66955   0.48932   0.59632   0.00000  Uiso   1.00
H1127  H     0.99448   0.52122   0.61126   0.00000  Uiso   1.00
H1128  H     0.69274   0.49133   0.55822   0.00000  Uiso   1.00
C1129  C     0.69913   0.46670   0.62001   0.00000  Uiso   1.00
H1130  H     0.71122   0.43599   0.60320   0.00000  Uiso   1.00
H1131  H     0.73204   0.48537   0.61660   0.00000  Uiso   1.00
H1132  H     0.67640   0.46173   0.65781   0.00000  Uiso   1.00
O1133  O     0.70603   0.53568   0.89276   0.00000  Uiso   1.00
C1134  C     0.70550   0.57791   0.88025   0.00000  Uiso   1.00
H1135  H     0.74308   0.58900   0.85767   0.00000  Uiso   1.00
H1136  H     0.69035   0.59774   0.91209   0.00000  Uiso   1.00
C1137  C     0.67282   0.58270   0.85264   0.00000  Uiso   1.00
H1138  H     0.96830   0.57198   0.87418   0.00000  Uiso   1.00
H1139  H     0.67158   0.61588   0.84302   0.00000  Uiso   1.00
H1140  H     0.68760   0.56398   0.82005   0.00000  Uiso   1.00
C1141  C     0.16665   0.91338   0.75012   0.00000  Uiso   1.00
C1142  C     0.16660   0.75328   0.75009   0.00000  Uiso   1.00
C1143  C     0.12506   0.88423   0.54277   0.00000  Uiso   1.00
C1144  C     0.22944   0.83768   0.94419   0.00000  Uiso   1.00
C1145  C     0.09106   0.89045   0.52228   0.00000  Uiso   1.00
C1146  C     0.26294   0.82994   0.96466   0.00000  Uiso   1.00
C1147  C     0.21068   0.97877   0.74092   0.00000  Uiso   1.00
C1148  C     0.12239   0.68788   0.75990   0.00000  Uiso   1.00
C1149  C     0.21067   0.68804   0.74087   0.00000  Uiso   1.00
C1150  C     0.12241   0.97859   0.75991   0.00000  Uiso   1.00
C1151  C     0.16654   0.70913   0.75028   0.00000  Uiso   1.00
C1152  C     0.16657   0.95751   0.75035   0.00000  Uiso   1.00
C1153  C     0.29857   0.80537   0.77672   0.00000  Uiso   1.00
C1154  C     0.03471   0.86140   0.72340   0.00000  Uiso   1.00
C1155  C     0.01318   0.80541   0.77677   0.00000  Uiso   1.00
C1156  C     0.32004   0.86148   0.72352   0.00000  Uiso   1.00
C1157  C     0.13591   0.83408   0.83831   0.00000  Uiso   1.00
C1158  C     0.19752   0.83339   0.66173   0.00000  Uiso   1.00
C1159  C     0.11739   0.84201   0.88885   0.00000  Uiso   1.00
C1160  C     0.21794   0.83562   0.61047   0.00000  Uiso   1.00
C1161  C     0.06380   0.87803   0.95860   0.00000  Uiso   1.00
C1162  C     0.28042   0.82041   0.53418   0.00000  Uiso   1.00
C1163  C     0.07342   0.86360   0.91299   0.00000  Uiso   1.00
C1164  C     0.26518   0.82073   0.58316   0.00000  Uiso   1.00
C1165  C     0.15027   0.83489   0.91044   0.00000  Uiso   1.00
C1166  C     0.18811   0.85215   0.58897   0.00000  Uiso   1.00
C1167  C     0.14425   0.85362   0.95293   0.00000  Uiso   1.00
C1168  C     0.20246   0.85140   0.54025   0.00000  Uiso   1.00
C1169  C     0.09947   0.87414   0.97809   0.00000  Uiso   1.00
C1170  C     0.24910   0.83458   0.51284   0.00000  Uiso   1.00
C1171  C     0.18122   0.85121   0.97144   0.00000  Uiso   1.00
C1172  C     0.16961   0.86281   0.51865   0.00000  Uiso   1.00
H1173  H     0.05737   0.90699   0.54172   0.00000  Uiso   1.00
H1174  H     0.29892   0.81809   0.94308   0.00000  Uiso   1.00
H1175  H     0.15212   0.86285   0.61135   0.00000  Uiso   1.00
H1176  H     0.18148   0.81522   0.89256   0.00000  Uiso   1.00
H1177  H     0.02916   0.89322   0.97813   0.00000  Uiso   1.00
H1178  H     0.31536   0.80649   0.51298   0.00000  Uiso   1.00
H1179  H     0.11602   0.89742   0.57716   0.00000  Uiso   1.00
H1180  H     0.24243   0.83321   0.90672   0.00000  Uiso   1.00
H1181  H     0.24510   0.96260   0.73320   0.00000  Uiso   1.00
H1182  H     0.08797   0.70405   0.76759   0.00000  Uiso   1.00
H1183  H     0.24508   0.70434   0.73313   0.00000  Uiso   1.00
H1184  H     0.08803   0.96228   0.76754   0.00000  Uiso   1.00
H1185  H     0.27178   0.78301   0.79809   0.00000  Uiso   1.00
H1186  H     0.06151   0.88376   0.70203   0.00000  Uiso   1.00
H1187  H     0.02272   0.78312   0.79820   0.00000  Uiso   1.00
H1188  H     0.31047   0.88385   0.70218   0.00000  Uiso   1.00
N1189  N     0.04759   0.83334   0.75001   0.00000  Uiso   1.00
N1190  N     0.28574   0.83332   0.74999   0.00000  Uiso   1.00
O1191  O     0.12846   0.89442   0.75000   0.00000  Uiso   1.00
O1192  O     0.20488   0.77225   0.74999   0.00000  Uiso   1.00
O1193  O     0.20490   0.89441   0.75000   0.00000  Uiso   1.00
O1194  O     0.12843   0.77226   0.75000   0.00000  Uiso   1.00
O1195  O     0.10661   0.83334   0.81612   0.00000  Uiso   1.00
O1196  O     0.22672   0.83333   0.68387   0.00000  Uiso   1.00
O1197  O     0.18305   0.83333   0.81612   0.00000  Uiso   1.00
O1198  O     0.15028   0.83334   0.68388   0.00000  Uiso   1.00
Zn1199 Zn    0.11562   0.83334   0.75000   0.00000  Uiso   1.00
Zn1200 Zn    0.21771   0.83333   0.75000   0.00000  Uiso   1.00
O1201  O     0.29250   0.80031   0.60446   0.00000  Uiso   1.00
C1202  C     0.00289   0.82265   0.59632   0.00000  Uiso   1.00
H1203  H     0.32781   0.85455   0.61126   0.00000  Uiso   1.00
H1204  H     0.02607   0.82466   0.55822   0.00000  Uiso   1.00
C1205  C     0.03247   0.80003   0.62001   0.00000  Uiso   1.00
H1206  H     0.04455   0.76933   0.60320   0.00000  Uiso   1.00
H1207  H     0.06537   0.81870   0.61660   0.00000  Uiso   1.00
H1208  H     0.00974   0.79507   0.65781   0.00000  Uiso   1.00
O1209  O     0.03937   0.86901   0.89276   0.00000  Uiso   1.00
C1210  C     0.03883   0.91125   0.88025   0.00000  Uiso   1.00
H1211  H     0.07641   0.92233   0.85767   0.00000  Uiso   1.00
H1212  H     0.02369   0.93108   0.91209   0.00000  Uiso   1.00
C1213  C     0.00615   0.91604   0.85264   0.00000  Uiso   1.00
H1214  H     0.30163   0.90532   0.87418   0.00000  Uiso   1.00
H1215  H     0.00491   0.94922   0.84302   0.00000  Uiso   1.00
H1216  H     0.02093   0.89732   0.82005   0.00000  Uiso   1.00
C1217  C     0.49998   0.91338   0.75012   0.00000  Uiso   1.00
C1218  C     0.49994   0.75328   0.75009   0.00000  Uiso   1.00
C1219  C     0.45840   0.88423   0.54277   0.00000  Uiso   1.00
C1220  C     0.56277   0.83768   0.94419   0.00000  Uiso   1.00
C1221  C     0.42439   0.89045   0.52228   0.00000  Uiso   1.00
C1222  C     0.59628   0.82994   0.96466   0.00000  Uiso   1.00
C1223  C     0.54401   0.97877   0.74092   0.00000  Uiso   1.00
C1224  C     0.45572   0.68788   0.75990   0.00000  Uiso   1.00
C1225  C     0.54400   0.68804   0.74087   0.00000  Uiso   1.00
C1226  C     0.45574   0.97859   0.75991   0.00000  Uiso   1.00
C1227  C     0.49987   0.70913   0.75028   0.00000  Uiso   1.00
C1228  C     0.49990   0.95751   0.75035   0.00000  Uiso   1.00
C1229  C     0.63191   0.80537   0.77672   0.00000  Uiso   1.00
C1230  C     0.36805   0.86140   0.72340   0.00000  Uiso   1.00
C1231  C     0.34651   0.80541   0.77677   0.00000  Uiso   1.00
C1232  C     0.65337   0.86148   0.72352   0.00000  Uiso   1.00
C1233  C     0.46924   0.83408   0.83831   0.00000  Uiso   1.00
C1234  C     0.53085   0.83339   0.66173   0.00000  Uiso   1.00
C1235  C     0.45072   0.84201   0.88885   0.00000  Uiso   1.00
C1236  C     0.55127   0.83562   0.61047   0.00000  Uiso   1.00
C1237  C     0.39713   0.87803   0.95860   0.00000  Uiso   1.00
C1238  C     0.61376   0.82041   0.53418   0.00000  Uiso   1.00
C1239  C     0.40675   0.86360   0.91299   0.00000  Uiso   1.00
C1240  C     0.59852   0.82073   0.58316   0.00000  Uiso   1.00
C1241  C     0.48360   0.83489   0.91044   0.00000  Uiso   1.00
C1242  C     0.52144   0.85215   0.58897   0.00000  Uiso   1.00
C1243  C     0.47758   0.85362   0.95293   0.00000  Uiso   1.00
C1244  C     0.53579   0.85140   0.54025   0.00000  Uiso   1.00
C1245  C     0.43281   0.87414   0.97809   0.00000  Uiso   1.00
C1246  C     0.58244   0.83458   0.51284   0.00000  Uiso   1.00
C1247  C     0.51455   0.85121   0.97144   0.00000  Uiso   1.00
C1248  C     0.50294   0.86281   0.51865   0.00000  Uiso   1.00
H1249  H     0.39070   0.90699   0.54172   0.00000  Uiso   1.00
H1250  H     0.63225   0.81809   0.94308   0.00000  Uiso   1.00
H1251  H     0.48545   0.86285   0.61135   0.00000  Uiso   1.00
H1252  H     0.51481   0.81522   0.89256   0.00000  Uiso   1.00
H1253  H     0.36250   0.89322   0.97813   0.00000  Uiso   1.00
H1254  H     0.64870   0.80649   0.51298   0.00000  Uiso   1.00
H1255  H     0.44936   0.89742   0.57716   0.00000  Uiso   1.00
H1256  H     0.57577   0.83321   0.90672   0.00000  Uiso   1.00
H1257  H     0.57843   0.96260   0.73320   0.00000  Uiso   1.00
H1258  H     0.42131   0.70405   0.76759   0.00000  Uiso   1.00
H1259  H     0.57842   0.70434   0.73313   0.00000  Uiso   1.00
H1260  H     0.42136   0.96228   0.76754   0.00000  Uiso   1.00
H1261  H     0.60511   0.78301   0.79809   0.00000  Uiso   1.00
H1262  H     0.39484   0.88376   0.70203   0.00000  Uiso   1.00
H1263  H     0.35605   0.78312   0.79820   0.00000  Uiso   1.00
H1264  H     0.64380   0.88385   0.70218   0.00000  Uiso   1.00
N1265  N     0.38093   0.83334   0.75001   0.00000  Uiso   1.00
N1266  N     0.61907   0.83332   0.74999   0.00000  Uiso   1.00
O1267  O     0.46179   0.89442   0.75000   0.00000  Uiso   1.00
O1268  O     0.53821   0.77225   0.74999   0.00000  Uiso   1.00
O1269  O     0.53823   0.89441   0.75000   0.00000  Uiso   1.00
O1270  O     0.46177   0.77226   0.75000   0.00000  Uiso   1.00
O1271  O     0.43994   0.83334   0.81612   0.00000  Uiso   1.00
O1272  O     0.56006   0.83333   0.68387   0.00000  Uiso   1.00
O1273  O     0.51639   0.83333   0.81612   0.00000  Uiso   1.00
O1274  O     0.48361   0.83334   0.68388   0.00000  Uiso   1.00
Zn1275 Zn    0.44896   0.83334   0.75000   0.00000  Uiso   1.00
Zn1276 Zn    0.55104   0.83333   0.75000   0.00000  Uiso   1.00
O1277  O     0.62583   0.80031   0.60446   0.00000  Uiso   1.00
C1278  C     0.33622   0.82265   0.59632   0.00000  Uiso   1.00
H1279  H     0.66114   0.85455   0.61126   0.00000  Uiso   1.00
H1280  H     0.35940   0.82466   0.55822   0.00000  Uiso   1.00
C1281  C     0.36580   0.80003   0.62001   0.00000  Uiso   1.00
H1282  H     0.37789   0.76933   0.60320   0.00000  Uiso   1.00
H1283  H     0.39870   0.81870   0.61660   0.00000  Uiso   1.00
H1284  H     0.34307   0.79507   0.65781   0.00000  Uiso   1.00
O1285  O     0.37270   0.86901   0.89276   0.00000  Uiso   1.00
C1286  C     0.37216   0.91125   0.88025   0.00000  Uiso   1.00
H1287  H     0.40974   0.92233   0.85767   0.00000  Uiso   1.00
H1288  H     0.35702   0.93108   0.91209   0.00000  Uiso   1.00
C1289  C     0.33949   0.91604   0.85264   0.00000  Uiso   1.00
H1290  H     0.63497   0.90532   0.87418   0.00000  Uiso   1.00
H1291  H     0.33825   0.94922   0.84302   0.00000  Uiso   1.00
H1292  H     0.35426   0.89732   0.82005   0.00000  Uiso   1.00
C1293  C     0.83331   0.91338   0.75012   0.00000  Uiso   1.00
C1294  C     0.83327   0.75328   0.75009   0.00000  Uiso   1.00
C1295  C     0.79173   0.88423   0.54277   0.00000  Uiso   1.00
C1296  C     0.89610   0.83768   0.94419   0.00000  Uiso   1.00
C1297  C     0.75773   0.89045   0.52228   0.00000  Uiso   1.00
C1298  C     0.92961   0.82994   0.96466   0.00000  Uiso   1.00
C1299  C     0.87734   0.97877   0.74092   0.00000  Uiso   1.00
C1300  C     0.78905   0.68788   0.75990   0.00000  Uiso   1.00
C1301  C     0.87733   0.68804   0.74087   0.00000  Uiso   1.00
C1302  C     0.78907   0.97859   0.75991   0.00000  Uiso   1.00
C1303  C     0.83320   0.70913   0.75028   0.00000  Uiso   1.00
C1304  C     0.83323   0.95751   0.75035   0.00000  Uiso   1.00
C1305  C     0.96524   0.80537   0.77672   0.00000  Uiso   1.00
C1306  C     0.70138   0.86140   0.72340   0.00000  Uiso   1.00
C1307  C     0.67985   0.80541   0.77677   0.00000  Uiso   1.00
C1308  C     0.98670   0.86148   0.72352   0.00000  Uiso   1.00
C1309  C     0.80258   0.83408   0.83831   0.00000  Uiso   1.00
C1310  C     0.86419   0.83339   0.66173   0.00000  Uiso   1.00
C1311  C     0.78405   0.84201   0.88885   0.00000  Uiso   1.00
C1312  C     0.88460   0.83562   0.61047   0.00000  Uiso   1.00
C1313  C     0.73046   0.87803   0.95860   0.00000  Uiso   1.00
C1314  C     0.94709   0.82041   0.53418   0.00000  Uiso   1.00
C1315  C     0.74008   0.86360   0.91299   0.00000  Uiso   1.00
C1316  C     0.93185   0.82073   0.58316   0.00000  Uiso   1.00
C1317  C     0.81694   0.83489   0.91044   0.00000  Uiso   1.00
C1318  C     0.85478   0.85215   0.58897   0.00000  Uiso   1.00
C1319  C     0.81091   0.85362   0.95293   0.00000  Uiso   1.00
C1320  C     0.86912   0.85140   0.54025   0.00000  Uiso   1.00
C1321  C     0.76614   0.87414   0.97809   0.00000  Uiso   1.00
C1322  C     0.91577   0.83458   0.51284   0.00000  Uiso   1.00
C1323  C     0.84789   0.85121   0.97144   0.00000  Uiso   1.00
C1324  C     0.83627   0.86281   0.51865   0.00000  Uiso   1.00
H1325  H     0.72404   0.90699   0.54172   0.00000  Uiso   1.00
H1326  H     0.96558   0.81809   0.94308   0.00000  Uiso   1.00
H1327  H     0.81879   0.86285   0.61135   0.00000  Uiso   1.00
H1328  H     0.84815   0.81522   0.89256   0.00000  Uiso   1.00
H1329  H     0.69583   0.89322   0.97813   0.00000  Uiso   1.00
H1330  H     0.98203   0.80649   0.51298   0.00000  Uiso   1.00
H1331  H     0.78269   0.89742   0.57716   0.00000  Uiso   1.00
H1332  H     0.90910   0.83321   0.90672   0.00000  Uiso   1.00
H1333  H     0.91177   0.96260   0.73320   0.00000  Uiso   1.00
H1334  H     0.75464   0.70405   0.76759   0.00000  Uiso   1.00
H1335  H     0.91175   0.70434   0.73313   0.00000  Uiso   1.00
H1336  H     0.75469   0.96228   0.76754   0.00000  Uiso   1.00
H1337  H     0.93845   0.78301   0.79809   0.00000  Uiso   1.00
H1338  H     0.72817   0.88376   0.70203   0.00000  Uiso   1.00
H1339  H     0.68939   0.78312   0.79820   0.00000  Uiso   1.00
H1340  H     0.97713   0.88385   0.70218   0.00000  Uiso   1.00
N1341  N     0.71426   0.83334   0.75001   0.00000  Uiso   1.00
N1342  N     0.95241   0.83332   0.74999   0.00000  Uiso   1.00
O1343  O     0.79512   0.89442   0.75000   0.00000  Uiso   1.00
O1344  O     0.87154   0.77225   0.74999   0.00000  Uiso   1.00
O1345  O     0.87157   0.89441   0.75000   0.00000  Uiso   1.00
O1346  O     0.79510   0.77226   0.75000   0.00000  Uiso   1.00
O1347  O     0.77328   0.83334   0.81612   0.00000  Uiso   1.00
O1348  O     0.89339   0.83333   0.68387   0.00000  Uiso   1.00
O1349  O     0.84972   0.83333   0.81612   0.00000  Uiso   1.00
O1350  O     0.81695   0.83334   0.68388   0.00000  Uiso   1.00
Zn1351 Zn    0.78229   0.83334   0.75000   0.00000  Uiso   1.00
Zn1352 Zn    0.88438   0.83333   0.75000   0.00000  Uiso   1.00
O1353  O     0.95916   0.80031   0.60446   0.00000  Uiso   1.00
C1354  C     0.66955   0.82265   0.59632   0.00000  Uiso   1.00
H1355  H     0.99448   0.85455   0.61126   0.00000  Uiso   1.00
H1356  H     0.69274   0.82466   0.55822   0.00000  Uiso   1.00
C1357  C     0.69913   0.80003   0.62001   0.00000  Uiso   1.00
H1358  H     0.71122   0.76933   0.60320   0.00000  Uiso   1.00
H1359  H     0.73204   0.81870   0.61660   0.00000  Uiso   1.00
H1360  H     0.67640   0.79507   0.65781   0.00000  Uiso   1.00
O1361  O     0.70603   0.86901   0.89276   0.00000  Uiso   1.00
C1362  C     0.70550   0.91125   0.88025   0.00000  Uiso   1.00
H1363  H     0.74308   0.92233   0.85767   0.00000  Uiso   1.00
H1364  H     0.69035   0.93108   0.91209   0.00000  Uiso   1.00
C1365  C     0.67282   0.91604   0.85264   0.00000  Uiso   1.00
H1366  H     0.96830   0.90532   0.87418   0.00000  Uiso   1.00
H1367  H     0.67158   0.94922   0.84302   0.00000  Uiso   1.00
H1368  H     0.68760   0.89732   0.82005   0.00000  Uiso   1.00
loop_
_geom_bond_atom_site_label_1
_geom_bond_atom_site_label_2
_geom_bond_distance
_geom_bond_site_symmetry_2
_ccdc_geom_bond_type
C1     O53     1.283   .     A
C1     C12     1.419   .     S
C1     O51     1.282   .     A
C2     C11     1.419   .     S
C2     O54     1.283   .     A
C2     O52     1.282   .     A
C3     H39     1.079   .     S
C3     C5      1.391   .     A
C3     C32     1.417   .     A
C4     H40     1.079   .     S
C4     C6      1.386   .     A
C4     C31     1.416   .     A
C5     H33     1.084   .     S
C5     C713    1.393   1_554 S
C6     H34     1.084   .     S
C6     C714    1.391   .     S
C7     H41     1.084   .     S
C7     C12     1.397   .     A
C7     C237    1.370   .     S
C8     H42     1.084   .     S
C8     C11     1.397   .     A
C8     C466    1.370   1_545 S
C9     H43     1.084   .     S
C9     C11     1.397   .     A
C9     C463    1.370   1_545 S
C10    C12     1.397   .     A
C10    H44     1.083   .     S
C10    C236    1.370   .     S
C13    H45     1.082   .     S
C13    N50     1.366   .     A
C13    C91     1.416   .     S
C14    H46     1.082   .     S
C14    N49     1.367   .     A
C14    C168    1.416   1_455 S
C15    H47     1.082   .     S
C15    N49     1.366   .     A
C15    C165    1.416   1_455 S
C16    H48     1.082   .     S
C16    N50     1.366   .     A
C16    C90     1.416   .     S
C17    O55     1.294   .     A
C17    C19     1.464   .     S
C17    O57     1.293   .     A
C18    O58     1.295   .     A
C18    C20     1.461   .     S
C18    O56     1.290   .     A
C19    C23     1.408   .     A
C19    C25     1.392   .     A
C20    C24     1.408   .     A
C20    C26     1.395   .     A
C21    C29     1.405   .     A
C21    C23     1.405   .     A
C21    H37     1.084   .     S
C22    H38     1.084   .     S
C22    C30     1.401   .     A
C22    C24     1.401   .     A
C23    O69     1.383   .     S
C24    O61     1.385   .     S
C25    C27     1.393   .     A
C25    H36     1.079   .     S
C26    C28     1.397   .     A
C26    H35     1.078   .     S
C27    C29     1.414   .     A
C27    C31     1.415   .     A
C28    C32     1.420   .     A
C28    C30     1.418   .     A
C29    C689    1.393   .     S
C30    C690    1.391   1_554 S
C31    C716    1.414   .     S
C32    C715    1.414   1_554 S
N49    Zn59    2.008   .     S
N50    Zn60    2.008   .     S
O51    Zn59    1.999   .     S
O52    Zn60    1.999   .     S
O53    Zn60    2.000   .     S
O54    Zn59    2.000   .     S
O55    Zn59    1.954   .     S
O56    Zn60    1.954   .     S
O57    Zn60    1.898   .     S
O58    Zn59    1.898   .     S
O61    C138    1.411   .     S
C62    H64     1.111   .     S
C62    C65     1.521   .     S
C62    O213    1.411   1_455 S
C62    H215    1.114   1_455 S
H63    C138    1.114   .     S
C65    H67     1.111   .     S
C65    H68     1.110   .     S
C65    H66     1.111   .     S
O69    C70     1.412   .     S
C70    H71     1.116   .     S
C70    C73     1.521   .     S
C70    H72     1.113   .     S
C73    H75     1.110   .     S
C73    H76     1.110   .     S
C73    H226    1.111   1_455 S
H74    C149    1.111   .     S
C77    O129    1.283   .     A
C77    C88     1.419   .     S
C77    O127    1.282   .     A
C78    C87     1.419   .     S
C78    O130    1.283   .     A
C78    O128    1.282   .     A
C79    H115    1.079   .     S
C79    C81     1.391   .     A
C79    C108    1.417   .     A
C80    H116    1.079   .     S
C80    C82     1.386   .     A
C80    C107    1.416   .     A
C81    H109    1.084   .     S
C81    C789    1.393   1_554 S
C82    H110    1.084   .     S
C82    C790    1.391   .     S
C83    H117    1.084   .     S
C83    C88     1.397   .     A
C83    C313    1.370   .     S
C84    H118    1.084   .     S
C84    C87     1.397   .     A
C84    C542    1.370   1_545 S
C85    H119    1.084   .     S
C85    C87     1.397   .     A
C85    C539    1.370   1_545 S
C86    C88     1.397   .     A
C86    H120    1.083   .     S
C86    C312    1.370   .     S
C89    H121    1.082   .     S
C89    N126    1.366   .     A
C89    C167    1.416   .     S
C90    H122    1.082   .     S
C90    N125    1.367   .     A
C91    H123    1.082   .     S
C91    N125    1.366   .     A
C92    H124    1.082   .     S
C92    N126    1.366   .     A
C92    C166    1.416   .     S
C93    O131    1.294   .     A
C93    C95     1.464   .     S
C93    O133    1.293   .     A
C94    O134    1.295   .     A
C94    C96     1.461   .     S
C94    O132    1.290   .     A
C95    C99     1.408   .     A
C95    C101    1.392   .     A
C96    C100    1.408   .     A
C96    C102    1.395   .     A
C97    C105    1.405   .     A
C97    C99     1.405   .     A
C97    H113    1.084   .     S
C98    H114    1.084   .     S
C98    C106    1.401   .     A
C98    C100    1.401   .     A
C99    O145    1.383   .     S
C100   O137    1.385   .     S
C101   C103    1.393   .     A
C101   H112    1.079   .     S
C102   C104    1.397   .     A
C102   H111    1.078   .     S
C103   C105    1.414   .     A
C103   C107    1.415   .     A
C104   C108    1.420   .     A
C104   C106    1.418   .     A
C105   C765    1.393   .     S
C106   C766    1.391   1_554 S
C107   C792    1.414   .     S
C108   C791    1.414   1_554 S
N125   Zn135   2.008   .     S
N126   Zn136   2.008   .     S
O127   Zn135   1.999   .     S
O128   Zn136   1.999   .     S
O129   Zn136   2.000   .     S
O130   Zn135   2.000   .     S
O131   Zn135   1.954   .     S
O132   Zn136   1.954   .     S
O133   Zn136   1.898   .     S
O134   Zn135   1.898   .     S
O137   C214    1.411   .     S
C138   H140    1.111   .     S
C138   C141    1.521   .     S
H139   C214    1.114   .     S
C141   H143    1.111   .     S
C141   H144    1.110   .     S
C141   H142    1.111   .     S
O145   C146    1.412   .     S
C146   H147    1.116   .     S
C146   C149    1.521   .     S
C146   H148    1.113   .     S
C149   H151    1.110   .     S
C149   H152    1.110   .     S
H150   C225    1.111   .     S
C153   O205    1.283   .     A
C153   C164    1.419   .     S
C153   O203    1.282   .     A
C154   C163    1.419   .     S
C154   O206    1.283   .     A
C154   O204    1.282   .     A
C155   H191    1.079   .     S
C155   C157    1.391   .     A
C155   C184    1.417   .     A
C156   H192    1.079   .     S
C156   C158    1.386   .     A
C156   C183    1.416   .     A
C157   H185    1.084   .     S
C157   C865    1.393   1_554 S
C158   H186    1.084   .     S
C158   C866    1.391   .     S
C159   H193    1.084   .     S
C159   C164    1.397   .     A
C159   C389    1.370   .     S
C160   H194    1.084   .     S
C160   C163    1.397   .     A
C160   C618    1.370   1_545 S
C161   H195    1.084   .     S
C161   C163    1.397   .     A
C161   C615    1.370   1_545 S
C162   C164    1.397   .     A
C162   H196    1.083   .     S
C162   C388    1.370   .     S
C165   H197    1.082   .     S
C165   N202    1.366   .     A
C165   C15     1.416   1_655 S
C166   H198    1.082   .     S
C166   N201    1.367   .     A
C167   H199    1.082   .     S
C167   N201    1.366   .     A
C168   H200    1.082   .     S
C168   N202    1.366   .     A
C168   C14     1.416   1_655 S
C169   O207    1.294   .     A
C169   C171    1.464   .     S
C169   O209    1.293   .     A
C170   O210    1.295   .     A
C170   C172    1.461   .     S
C170   O208    1.290   .     A
C171   C175    1.408   .     A
C171   C177    1.392   .     A
C172   C176    1.408   .     A
C172   C178    1.395   .     A
C173   C181    1.405   .     A
C173   C175    1.405   .     A
C173   H189    1.084   .     S
C174   H190    1.084   .     S
C174   C182    1.401   .     A
C174   C176    1.401   .     A
C175   O221    1.383   .     S
C176   O213    1.385   .     S
C177   C179    1.393   .     A
C177   H188    1.079   .     S
C178   C180    1.397   .     A
C178   H187    1.078   .     S
C179   C181    1.414   .     A
C179   C183    1.415   .     A
C180   C184    1.420   .     A
C180   C182    1.418   .     A
C181   C841    1.393   .     S
C182   C842    1.391   1_554 S
C183   C868    1.414   .     S
C184   C867    1.414   1_554 S
N201   Zn211   2.008   .     S
N202   Zn212   2.008   .     S
O203   Zn211   1.999   .     S
O204   Zn212   1.999   .     S
O205   Zn212   2.000   .     S
O206   Zn211   2.000   .     S
O207   Zn211   1.954   .     S
O208   Zn212   1.954   .     S
O209   Zn212   1.898   .     S
O210   Zn211   1.898   .     S
O213   C62     1.411   1_655 S
C214   H216    1.111   .     S
C214   C217    1.521   .     S
H215   C62     1.114   1_655 S
C217   H219    1.111   .     S
C217   H220    1.110   .     S
C217   H218    1.111   .     S
O221   C222    1.412   .     S
C222   H223    1.116   .     S
C222   C225    1.521   .     S
C222   H224    1.113   .     S
C225   H227    1.110   .     S
C225   H228    1.110   .     S
H226   C73     1.111   1_655 S
C229   O281    1.283   .     A
C229   C240    1.419   .     S
C229   O279    1.282   .     A
C230   C239    1.419   .     S
C230   O282    1.283   .     A
C230   O280    1.282   .     A
C231   H267    1.079   .     S
C231   C233    1.391   .     A
C231   C260    1.417   .     A
C232   H268    1.079   .     S
C232   C234    1.386   .     A
C232   C259    1.416   .     A
C233   H261    1.084   .     S
C233   C941    1.393   1_554 S
C234   H262    1.084   .     S
C234   C942    1.391   .     S
C235   H269    1.084   .     S
C235   C240    1.397   .     A
C235   C465    1.370   .     S
C236   H270    1.084   .     S
C236   C239    1.397   .     A
C237   H271    1.084   .     S
C237   C239    1.397   .     A
C238   C240    1.397   .     A
C238   H272    1.083   .     S
C238   C464    1.370   .     S
C241   H273    1.082   .     S
C241   N278    1.366   .     A
C241   C319    1.416   .     S
C242   H274    1.082   .     S
C242   N277    1.367   .     A
C242   C396    1.416   1_455 S
C243   H275    1.082   .     S
C243   N277    1.366   .     A
C243   C393    1.416   1_455 S
C244   H276    1.082   .     S
C244   N278    1.366   .     A
C244   C318    1.416   .     S
C245   O283    1.294   .     A
C245   C247    1.464   .     S
C245   O285    1.293   .     A
C246   O286    1.295   .     A
C246   C248    1.461   .     S
C246   O284    1.290   .     A
C247   C251    1.408   .     A
C247   C253    1.392   .     A
C248   C252    1.408   .     A
C248   C254    1.395   .     A
C249   C257    1.405   .     A
C249   C251    1.405   .     A
C249   H265    1.084   .     S
C250   H266    1.084   .     S
C250   C258    1.401   .     A
C250   C252    1.401   .     A
C251   O297    1.383   .     S
C252   O289    1.385   .     S
C253   C255    1.393   .     A
C253   H264    1.079   .     S
C254   C256    1.397   .     A
C254   H263    1.078   .     S
C255   C257    1.414   .     A
C255   C259    1.415   .     A
C256   C260    1.420   .     A
C256   C258    1.418   .     A
C257   C917    1.393   .     S
C258   C918    1.391   1_554 S
C259   C944    1.414   .     S
C260   C943    1.414   1_554 S
N277   Zn287   2.008   .     S
N278   Zn288   2.008   .     S
O279   Zn287   1.999   .     S
O280   Zn288   1.999   .     S
O281   Zn288   2.000   .     S
O282   Zn287   2.000   .     S
O283   Zn287   1.954   .     S
O284   Zn288   1.954   .     S
O285   Zn288   1.898   .     S
O286   Zn287   1.898   .     S
O289   C366    1.411   .     S
C290   H292    1.111   .     S
C290   C293    1.521   .     S
C290   O441    1.411   1_455 S
C290   H443    1.114   1_455 S
H291   C366    1.114   .     S
C293   H295    1.111   .     S
C293   H296    1.110   .     S
C293   H294    1.111   .     S
O297   C298    1.412   .     S
C298   H299    1.116   .     S
C298   C301    1.521   .     S
C298   H300    1.113   .     S
C301   H303    1.110   .     S
C301   H304    1.110   .     S
C301   H454    1.111   1_455 S
H302   C377    1.111   .     S
C305   O357    1.283   .     A
C305   C316    1.419   .     S
C305   O355    1.282   .     A
C306   C315    1.419   .     S
C306   O358    1.283   .     A
C306   O356    1.282   .     A
C307   H343    1.079   .     S
C307   C309    1.391   .     A
C307   C336    1.417   .     A
C308   H344    1.079   .     S
C308   C310    1.386   .     A
C308   C335    1.416   .     A
C309   H337    1.084   .     S
C309   C1017   1.393   1_554 S
C310   H338    1.084   .     S
C310   C1018   1.391   .     S
C311   H345    1.084   .     S
C311   C316    1.397   .     A
C311   C541    1.370   .     S
C312   H346    1.084   .     S
C312   C315    1.397   .     A
C313   H347    1.084   .     S
C313   C315    1.397   .     A
C314   C316    1.397   .     A
C314   H348    1.083   .     S
C314   C540    1.370   .     S
C317   H349    1.082   .     S
C317   N354    1.366   .     A
C317   C395    1.416   .     S
C318   H350    1.082   .     S
C318   N353    1.367   .     A
C319   H351    1.082   .     S
C319   N353    1.366   .     A
C320   H352    1.082   .     S
C320   N354    1.366   .     A
C320   C394    1.416   .     S
C321   O359    1.294   .     A
C321   C323    1.464   .     S
C321   O361    1.293   .     A
C322   O362    1.295   .     A
C322   C324    1.461   .     S
C322   O360    1.290   .     A
C323   C327    1.408   .     A
C323   C329    1.392   .     A
C324   C328    1.408   .     A
C324   C330    1.395   .     A
C325   C333    1.405   .     A
C325   C327    1.405   .     A
C325   H341    1.084   .     S
C326   H342    1.084   .     S
C326   C334    1.401   .     A
C326   C328    1.401   .     A
C327   O373    1.383   .     S
C328   O365    1.385   .     S
C329   C331    1.393   .     A
C329   H340    1.079   .     S
C330   C332    1.397   .     A
C330   H339    1.078   .     S
C331   C333    1.414   .     A
C331   C335    1.415   .     A
C332   C336    1.420   .     A
C332   C334    1.418   .     A
C333   C993    1.393   .     S
C334   C994    1.391   1_554 S
C335   C1020   1.414   .     S
C336   C1019   1.414   1_554 S
N353   Zn363   2.008   .     S
N354   Zn364   2.008   .     S
O355   Zn363   1.999   .     S
O356   Zn364   1.999   .     S
O357   Zn364   2.000   .     S
O358   Zn363   2.000   .     S
O359   Zn363   1.954   .     S
O360   Zn364   1.954   .     S
O361   Zn364   1.898   .     S
O362   Zn363   1.898   .     S
O365   C442    1.411   .     S
C366   H368    1.111   .     S
C366   C369    1.521   .     S
H367   C442    1.114   .     S
C369   H371    1.111   .     S
C369   H372    1.110   .     S
C369   H370    1.111   .     S
O373   C374    1.412   .     S
C374   H375    1.116   .     S
C374   C377    1.521   .     S
C374   H376    1.113   .     S
C377   H379    1.110   .     S
C377   H380    1.110   .     S
H378   C453    1.111   .     S
C381   O433    1.283   .     A
C381   C392    1.419   .     S
C381   O431    1.282   .     A
C382   C391    1.419   .     S
C382   O434    1.283   .     A
C382   O432    1.282   .     A
C383   H419    1.079   .     S
C383   C385    1.391   .     A
C383   C412    1.417   .     A
C384   H420    1.079   .     S
C384   C386    1.386   .     A
C384   C411    1.416   .     A
C385   H413    1.084   .     S
C385   C1093   1.393   1_554 S
C386   H414    1.084   .     S
C386   C1094   1.391   .     S
C387   H421    1.084   .     S
C387   C392    1.397   .     A
C387   C617    1.370   .     S
C388   H422    1.084   .     S
C388   C391    1.397   .     A
C389   H423    1.084   .     S
C389   C391    1.397   .     A
C390   C392    1.397   .     A
C390   H424    1.083   .     S
C390   C616    1.370   .     S
C393   H425    1.082   .     S
C393   N430    1.366   .     A
C393   C243    1.416   1_655 S
C394   H426    1.082   .     S
C394   N429    1.367   .     A
C395   H427    1.082   .     S
C395   N429    1.366   .     A
C396   H428    1.082   .     S
C396   N430    1.366   .     A
C396   C242    1.416   1_655 S
C397   O435    1.294   .     A
C397   C399    1.464   .     S
C397   O437    1.293   .     A
C398   O438    1.295   .     A
C398   C400    1.461   .     S
C398   O436    1.290   .     A
C399   C403    1.408   .     A
C399   C405    1.392   .     A
C400   C404    1.408   .     A
C400   C406    1.395   .     A
C401   C409    1.405   .     A
C401   C403    1.405   .     A
C401   H417    1.084   .     S
C402   H418    1.084   .     S
C402   C410    1.401   .     A
C402   C404    1.401   .     A
C403   O449    1.383   .     S
C404   O441    1.385   .     S
C405   C407    1.393   .     A
C405   H416    1.079   .     S
C406   C408    1.397   .     A
C406   H415    1.078   .     S
C407   C409    1.414   .     A
C407   C411    1.415   .     A
C408   C412    1.420   .     A
C408   C410    1.418   .     A
C409   C1069   1.393   .     S
C410   C1070   1.391   1_554 S
C411   C1096   1.414   .     S
C412   C1095   1.414   1_554 S
N429   Zn439   2.008   .     S
N430   Zn440   2.008   .     S
O431   Zn439   1.999   .     S
O432   Zn440   1.999   .     S
O433   Zn440   2.000   .     S
O434   Zn439   2.000   .     S
O435   Zn439   1.954   .     S
O436   Zn440   1.954   .     S
O437   Zn440   1.898   .     S
O438   Zn439   1.898   .     S
O441   C290    1.411   1_655 S
C442   H444    1.111   .     S
C442   C445    1.521   .     S
H443   C290    1.114   1_655 S
C445   H447    1.111   .     S
C445   H448    1.110   .     S
C445   H446    1.111   .     S
O449   C450    1.412   .     S
C450   H451    1.116   .     S
C450   C453    1.521   .     S
C450   H452    1.113   .     S
C453   H455    1.110   .     S
C453   H456    1.110   .     S
H454   C301    1.111   1_655 S
C457   O509    1.283   .     A
C457   C468    1.419   .     S
C457   O507    1.282   .     A
C458   C467    1.419   .     S
C458   O510    1.283   .     A
C458   O508    1.282   .     A
C459   H495    1.079   .     S
C459   C461    1.391   .     A
C459   C488    1.417   .     A
C460   H496    1.079   .     S
C460   C462    1.386   .     A
C460   C487    1.416   .     A
C461   H489    1.084   .     S
C461   C1169   1.393   1_554 S
C462   H490    1.084   .     S
C462   C1170   1.391   .     S
C463   H497    1.084   .     S
C463   C468    1.397   .     A
C463   C9      1.370   1_565 S
C464   H498    1.084   .     S
C464   C467    1.397   .     A
C465   H499    1.084   .     S
C465   C467    1.397   .     A
C466   C468    1.397   .     A
C466   H500    1.083   .     S
C466   C8      1.370   1_565 S
C469   H501    1.082   .     S
C469   N506    1.366   .     A
C469   C547    1.416   .     S
C470   H502    1.082   .     S
C470   N505    1.367   .     A
C470   C624    1.416   1_455 S
C471   H503    1.082   .     S
C471   N505    1.366   .     A
C471   C621    1.416   1_455 S
C472   H504    1.082   .     S
C472   N506    1.366   .     A
C472   C546    1.416   .     S
C473   O511    1.294   .     A
C473   C475    1.464   .     S
C473   O513    1.293   .     A
C474   O514    1.295   .     A
C474   C476    1.461   .     S
C474   O512    1.290   .     A
C475   C479    1.408   .     A
C475   C481    1.392   .     A
C476   C480    1.408   .     A
C476   C482    1.395   .     A
C477   C485    1.405   .     A
C477   C479    1.405   .     A
C477   H493    1.084   .     S
C478   H494    1.084   .     S
C478   C486    1.401   .     A
C478   C480    1.401   .     A
C479   O525    1.383   .     S
C480   O517    1.385   .     S
C481   C483    1.393   .     A
C481   H492    1.079   .     S
C482   C484    1.397   .     A
C482   H491    1.078   .     S
C483   C485    1.414   .     A
C483   C487    1.415   .     A
C484   C488    1.420   .     A
C484   C486    1.418   .     A
C485   C1145   1.393   .     S
C486   C1146   1.391   1_554 S
C487   C1172   1.414   .     S
C488   C1171   1.414   1_554 S
N505   Zn515   2.008   .     S
N506   Zn516   2.008   .     S
O507   Zn515   1.999   .     S
O508   Zn516   1.999   .     S
O509   Zn516   2.000   .     S
O510   Zn515   2.000   .     S
O511   Zn515   1.954   .     S
O512   Zn516   1.954   .     S
O513   Zn516   1.898   .     S
O514   Zn515   1.898   .     S
O517   C594    1.411   .     S
C518   H520    1.111   .     S
C518   C521    1.521   .     S
C518   O669    1.411   1_455 S
C518   H671    1.114   1_455 S
H519   C594    1.114   .     S
C521   H523    1.111   .     S
C521   H524    1.110   .     S
C521   H522    1.111   .     S
O525   C526    1.412   .     S
C526   H527    1.116   .     S
C526   C529    1.521   .     S
C526   H528    1.113   .     S
C529   H531    1.110   .     S
C529   H532    1.110   .     S
C529   H682    1.111   1_455 S
H530   C605    1.111   .     S
C533   O585    1.283   .     A
C533   C544    1.419   .     S
C533   O583    1.282   .     A
C534   C543    1.419   .     S
C534   O586    1.283   .     A
C534   O584    1.282   .     A
C535   H571    1.079   .     S
C535   C537    1.391   .     A
C535   C564    1.417   .     A
C536   H572    1.079   .     S
C536   C538    1.386   .     A
C536   C563    1.416   .     A
C537   H565    1.084   .     S
C537   C1245   1.393   1_554 S
C538   H566    1.084   .     S
C538   C1246   1.391   .     S
C539   H573    1.084   .     S
C539   C544    1.397   .     A
C539   C85     1.370   1_565 S
C540   H574    1.084   .     S
C540   C543    1.397   .     A
C541   H575    1.084   .     S
C541   C543    1.397   .     A
C542   C544    1.397   .     A
C542   H576    1.083   .     S
C542   C84     1.370   1_565 S
C545   H577    1.082   .     S
C545   N582    1.366   .     A
C545   C623    1.416   .     S
C546   H578    1.082   .     S
C546   N581    1.367   .     A
C547   H579    1.082   .     S
C547   N581    1.366   .     A
C548   H580    1.082   .     S
C548   N582    1.366   .     A
C548   C622    1.416   .     S
C549   O587    1.294   .     A
C549   C551    1.464   .     S
C549   O589    1.293   .     A
C550   O590    1.295   .     A
C550   C552    1.461   .     S
C550   O588    1.290   .     A
C551   C555    1.408   .     A
C551   C557    1.392   .     A
C552   C556    1.408   .     A
C552   C558    1.395   .     A
C553   C561    1.405   .     A
C553   C555    1.405   .     A
C553   H569    1.084   .     S
C554   H570    1.084   .     S
C554   C562    1.401   .     A
C554   C556    1.401   .     A
C555   O601    1.383   .     S
C556   O593    1.385   .     S
C557   C559    1.393   .     A
C557   H568    1.079   .     S
C558   C560    1.397   .     A
C558   H567    1.078   .     S
C559   C561    1.414   .     A
C559   C563    1.415   .     A
C560   C564    1.420   .     A
C560   C562    1.418   .     A
C561   C1221   1.393   .     S
C562   C1222   1.391   1_554 S
C563   C1248   1.414   .     S
C564   C1247   1.414   1_554 S
N581   Zn591   2.008   .     S
N582   Zn592   2.008   .     S
O583   Zn591   1.999   .     S
O584   Zn592   1.999   .     S
O585   Zn592   2.000   .     S
O586   Zn591   2.000   .     S
O587   Zn591   1.954   .     S
O588   Zn592   1.954   .     S
O589   Zn592   1.898   .     S
O590   Zn591   1.898   .     S
O593   C670    1.411   .     S
C594   H596    1.111   .     S
C594   C597    1.521   .     S
H595   C670    1.114   .     S
C597   H599    1.111   .     S
C597   H600    1.110   .     S
C597   H598    1.111   .     S
O601   C602    1.412   .     S
C602   H603    1.116   .     S
C602   C605    1.521   .     S
C602   H604    1.113   .     S
C605   H607    1.110   .     S
C605   H608    1.110   .     S
H606   C681    1.111   .     S
C609   O661    1.283   .     A
C609   C620    1.419   .     S
C609   O659    1.282   .     A
C610   C619    1.419   .     S
C610   O662    1.283   .     A
C610   O660    1.282   .     A
C611   H647    1.079   .     S
C611   C613    1.391   .     A
C611   C640    1.417   .     A
C612   H648    1.079   .     S
C612   C614    1.386   .     A
C612   C639    1.416   .     A
C613   H641    1.084   .     S
C613   C1321   1.393   1_554 S
C614   H642    1.084   .     S
C614   C1322   1.391   .     S
C615   H649    1.084   .     S
C615   C620    1.397   .     A
C615   C161    1.370   1_565 S
C616   H650    1.084   .     S
C616   C619    1.397   .     A
C617   H651    1.084   .     S
C617   C619    1.397   .     A
C618   C620    1.397   .     A
C618   H652    1.083   .     S
C618   C160    1.370   1_565 S
C621   H653    1.082   .     S
C621   N658    1.366   .     A
C621   C471    1.416   1_655 S
C622   H654    1.082   .     S
C622   N657    1.367   .     A
C623   H655    1.082   .     S
C623   N657    1.366   .     A
C624   H656    1.082   .     S
C624   N658    1.366   .     A
C624   C470    1.416   1_655 S
C625   O663    1.294   .     A
C625   C627    1.464   .     S
C625   O665    1.293   .     A
C626   O666    1.295   .     A
C626   C628    1.461   .     S
C626   O664    1.290   .     A
C627   C631    1.408   .     A
C627   C633    1.392   .     A
C628   C632    1.408   .     A
C628   C634    1.395   .     A
C629   C637    1.405   .     A
C629   C631    1.405   .     A
C629   H645    1.084   .     S
C630   H646    1.084   .     S
C630   C638    1.401   .     A
C630   C632    1.401   .     A
C631   O677    1.383   .     S
C632   O669    1.385   .     S
C633   C635    1.393   .     A
C633   H644    1.079   .     S
C634   C636    1.397   .     A
C634   H643    1.078   .     S
C635   C637    1.414   .     A
C635   C639    1.415   .     A
C636   C640    1.420   .     A
C636   C638    1.418   .     A
C637   C1297   1.393   .     S
C638   C1298   1.391   1_554 S
C639   C1324   1.414   .     S
C640   C1323   1.414   1_554 S
N657   Zn667   2.008   .     S
N658   Zn668   2.008   .     S
O659   Zn667   1.999   .     S
O660   Zn668   1.999   .     S
O661   Zn668   2.000   .     S
O662   Zn667   2.000   .     S
O663   Zn667   1.954   .     S
O664   Zn668   1.954   .     S
O665   Zn668   1.898   .     S
O666   Zn667   1.898   .     S
O669   C518    1.411   1_655 S
C670   H672    1.111   .     S
C670   C673    1.521   .     S
H671   C518    1.114   1_655 S
C673   H675    1.111   .     S
C673   H676    1.110   .     S
C673   H674    1.111   .     S
O677   C678    1.412   .     S
C678   H679    1.116   .     S
C678   C681    1.521   .     S
C678   H680    1.113   .     S
C681   H683    1.110   .     S
C681   H684    1.110   .     S
H682   C529    1.111   1_655 S
C685   O737    1.283   .     A
C685   C696    1.419   .     S
C685   O735    1.282   .     A
C686   C695    1.419   .     S
C686   O738    1.283   .     A
C686   O736    1.282   .     A
C687   H723    1.079   .     S
C687   C689    1.391   .     A
C687   C716    1.417   .     A
C688   H724    1.079   .     S
C688   C690    1.386   .     A
C688   C715    1.416   .     A
C689   H717    1.084   .     S
C690   H718    1.084   .     S
C690   C30     1.391   1_556 S
C691   H725    1.084   .     S
C691   C696    1.397   .     A
C691   C921    1.370   .     S
C692   H726    1.084   .     S
C692   C695    1.397   .     A
C692   C1150   1.370   1_545 S
C693   H727    1.084   .     S
C693   C695    1.397   .     A
C693   C1147   1.370   1_545 S
C694   C696    1.397   .     A
C694   H728    1.083   .     S
C694   C920    1.370   .     S
C697   H729    1.082   .     S
C697   N734    1.366   .     A
C697   C775    1.416   .     S
C698   H730    1.082   .     S
C698   N733    1.367   .     A
C698   C852    1.416   1_455 S
C699   H731    1.082   .     S
C699   N733    1.366   .     A
C699   C849    1.416   1_455 S
C700   H732    1.082   .     S
C700   N734    1.366   .     A
C700   C774    1.416   .     S
C701   O739    1.294   .     A
C701   C703    1.464   .     S
C701   O741    1.293   .     A
C702   O742    1.295   .     A
C702   C704    1.461   .     S
C702   O740    1.290   .     A
C703   C707    1.408   .     A
C703   C709    1.392   .     A
C704   C708    1.408   .     A
C704   C710    1.395   .     A
C705   C713    1.405   .     A
C705   C707    1.405   .     A
C705   H721    1.084   .     S
C706   H722    1.084   .     S
C706   C714    1.401   .     A
C706   C708    1.401   .     A
C707   O753    1.383   .     S
C708   O745    1.385   .     S
C709   C711    1.393   .     A
C709   H720    1.079   .     S
C710   C712    1.397   .     A
C710   H719    1.078   .     S
C711   C713    1.414   .     A
C711   C715    1.415   .     A
C712   C716    1.420   .     A
C712   C714    1.418   .     A
C713   C5      1.393   1_556 S
C715   C32     1.414   1_556 S
N733   Zn743   2.008   .     S
N734   Zn744   2.008   .     S
O735   Zn743   1.999   .     S
O736   Zn744   1.999   .     S
O737   Zn744   2.000   .     S
O738   Zn743   2.000   .     S
O739   Zn743   1.954   .     S
O740   Zn744   1.954   .     S
O741   Zn744   1.898   .     S
O742   Zn743   1.898   .     S
O745   C822    1.411   .     S
C746   H748    1.111   .     S
C746   C749    1.521   .     S
C746   O897    1.411   1_455 S
C746   H899    1.114   1_455 S
H747   C822    1.114   .     S
C749   H751    1.111   .     S
C749   H752    1.110   .     S
C749   H750    1.111   .     S
O753   C754    1.412   .     S
C754   H755    1.116   .     S
C754   C757    1.521   .     S
C754   H756    1.113   .     S
C757   H759    1.110   .     S
C757   H760    1.110   .     S
C757   H910    1.111   1_455 S
H758   C833    1.111   .     S
C761   O813    1.283   .     A
C761   C772    1.419   .     S
C761   O811    1.282   .     A
C762   C771    1.419   .     S
C762   O814    1.283   .     A
C762   O812    1.282   .     A
C763   H799    1.079   .     S
C763   C765    1.391   .     A
C763   C792    1.417   .     A
C764   H800    1.079   .     S
C764   C766    1.386   .     A
C764   C791    1.416   .     A
C765   H793    1.084   .     S
C766   H794    1.084   .     S
C766   C106    1.391   1_556 S
C767   H801    1.084   .     S
C767   C772    1.397   .     A
C767   C997    1.370   .     S
C768   H802    1.084   .     S
C768   C771    1.397   .     A
C768   C1226   1.370   1_545 S
C769   H803    1.084   .     S
C769   C771    1.397   .     A
C769   C1223   1.370   1_545 S
C770   C772    1.397   .     A
C770   H804    1.083   .     S
C770   C996    1.370   .     S
C773   H805    1.082   .     S
C773   N810    1.366   .     A
C773   C851    1.416   .     S
C774   H806    1.082   .     S
C774   N809    1.367   .     A
C775   H807    1.082   .     S
C775   N809    1.366   .     A
C776   H808    1.082   .     S
C776   N810    1.366   .     A
C776   C850    1.416   .     S
C777   O815    1.294   .     A
C777   C779    1.464   .     S
C777   O817    1.293   .     A
C778   O818    1.295   .     A
C778   C780    1.461   .     S
C778   O816    1.290   .     A
C779   C783    1.408   .     A
C779   C785    1.392   .     A
C780   C784    1.408   .     A
C780   C786    1.395   .     A
C781   C789    1.405   .     A
C781   C783    1.405   .     A
C781   H797    1.084   .     S
C782   H798    1.084   .     S
C782   C790    1.401   .     A
C782   C784    1.401   .     A
C783   O829    1.383   .     S
C784   O821    1.385   .     S
C785   C787    1.393   .     A
C785   H796    1.079   .     S
C786   C788    1.397   .     A
C786   H795    1.078   .     S
C787   C789    1.414   .     A
C787   C791    1.415   .     A
C788   C792    1.420   .     A
C788   C790    1.418   .     A
C789   C81     1.393   1_556 S
C791   C108    1.414   1_556 S
N809   Zn819   2.008   .     S
N810   Zn820   2.008   .     S
O811   Zn819   1.999   .     S
O812   Zn820   1.999   .     S
O813   Zn820   2.000   .     S
O814   Zn819   2.000   .     S
O815   Zn819   1.954   .     S
O816   Zn820   1.954   .     S
O817   Zn820   1.898   .     S
O818   Zn819   1.898   .     S
O821   C898    1.411   .     S
C822   H824    1.111   .     S
C822   C825    1.521   .     S
H823   C898    1.114   .     S
C825   H827    1.111   .     S
C825   H828    1.110   .     S
C825   H826    1.111   .     S
O829   C830    1.412   .     S
C830   H831    1.116   .     S
C830   C833    1.521   .     S
C830   H832    1.113   .     S
C833   H835    1.110   .     S
C833   H836    1.110   .     S
H834   C909    1.111   .     S
C837   O889    1.283   .     A
C837   C848    1.419   .     S
C837   O887    1.282   .     A
C838   C847    1.419   .     S
C838   O890    1.283   .     A
C838   O888    1.282   .     A
C839   H875    1.079   .     S
C839   C841    1.391   .     A
C839   C868    1.417   .     A
C840   H876    1.079   .     S
C840   C842    1.386   .     A
C840   C867    1.416   .     A
C841   H869    1.084   .     S
C842   H870    1.084   .     S
C842   C182    1.391   1_556 S
C843   H877    1.084   .     S
C843   C848    1.397   .     A
C843   C1073   1.370   .     S
C844   H878    1.084   .     S
C844   C847    1.397   .     A
C844   C1302   1.370   1_545 S
C845   H879    1.084   .     S
C845   C847    1.397   .     A
C845   C1299   1.370   1_545 S
C846   C848    1.397   .     A
C846   H880    1.083   .     S
C846   C1072   1.370   .     S
C849   H881    1.082   .     S
C849   N886    1.366   .     A
C849   C699    1.416   1_655 S
C850   H882    1.082   .     S
C850   N885    1.367   .     A
C851   H883    1.082   .     S
C851   N885    1.366   .     A
C852   H884    1.082   .     S
C852   N886    1.366   .     A
C852   C698    1.416   1_655 S
C853   O891    1.294   .     A
C853   C855    1.464   .     S
C853   O893    1.293   .     A
C854   O894    1.295   .     A
C854   C856    1.461   .     S
C854   O892    1.290   .     A
C855   C859    1.408   .     A
C855   C861    1.392   .     A
C856   C860    1.408   .     A
C856   C862    1.395   .     A
C857   C865    1.405   .     A
C857   C859    1.405   .     A
C857   H873    1.084   .     S
C858   H874    1.084   .     S
C858   C866    1.401   .     A
C858   C860    1.401   .     A
C859   O905    1.383   .     S
C860   O897    1.385   .     S
C861   C863    1.393   .     A
C861   H872    1.079   .     S
C862   C864    1.397   .     A
C862   H871    1.078   .     S
C863   C865    1.414   .     A
C863   C867    1.415   .     A
C864   C868    1.420   .     A
C864   C866    1.418   .     A
C865   C157    1.393   1_556 S
C867   C184    1.414   1_556 S
N885   Zn895   2.008   .     S
N886   Zn896   2.008   .     S
O887   Zn895   1.999   .     S
O888   Zn896   1.999   .     S
O889   Zn896   2.000   .     S
O890   Zn895   2.000   .     S
O891   Zn895   1.954   .     S
O892   Zn896   1.954   .     S
O893   Zn896   1.898   .     S
O894   Zn895   1.898   .     S
O897   C746    1.411   1_655 S
C898   H900    1.111   .     S
C898   C901    1.521   .     S
H899   C746    1.114   1_655 S
C901   H903    1.111   .     S
C901   H904    1.110   .     S
C901   H902    1.111   .     S
O905   C906    1.412   .     S
C906   H907    1.116   .     S
C906   C909    1.521   .     S
C906   H908    1.113   .     S
C909   H911    1.110   .     S
C909   H912    1.110   .     S
H910   C757    1.111   1_655 S
C913   O965    1.283   .     A
C913   C924    1.419   .     S
C913   O963    1.282   .     A
C914   C923    1.419   .     S
C914   O966    1.283   .     A
C914   O964    1.282   .     A
C915   H951    1.079   .     S
C915   C917    1.391   .     A
C915   C944    1.417   .     A
C916   H952    1.079   .     S
C916   C918    1.386   .     A
C916   C943    1.416   .     A
C917   H945    1.084   .     S
C918   H946    1.084   .     S
C918   C258    1.391   1_556 S
C919   H953    1.084   .     S
C919   C924    1.397   .     A
C919   C1149   1.370   .     S
C920   H954    1.084   .     S
C920   C923    1.397   .     A
C921   H955    1.084   .     S
C921   C923    1.397   .     A
C922   C924    1.397   .     A
C922   H956    1.083   .     S
C922   C1148   1.370   .     S
C925   H957    1.082   .     S
C925   N962    1.366   .     A
C925   C1003   1.416   .     S
C926   H958    1.082   .     S
C926   N961    1.367   .     A
C926   C1080   1.416   1_455 S
C927   H959    1.082   .     S
C927   N961    1.366   .     A
C927   C1077   1.416   1_455 S
C928   H960    1.082   .     S
C928   N962    1.366   .     A
C928   C1002   1.416   .     S
C929   O967    1.294   .     A
C929   C931    1.464   .     S
C929   O969    1.293   .     A
C930   O970    1.295   .     A
C930   C932    1.461   .     S
C930   O968    1.290   .     A
C931   C935    1.408   .     A
C931   C937    1.392   .     A
C932   C936    1.408   .     A
C932   C938    1.395   .     A
C933   C941    1.405   .     A
C933   C935    1.405   .     A
C933   H949    1.084   .     S
C934   H950    1.084   .     S
C934   C942    1.401   .     A
C934   C936    1.401   .     A
C935   O981    1.383   .     S
C936   O973    1.385   .     S
C937   C939    1.393   .     A
C937   H948    1.079   .     S
C938   C940    1.397   .     A
C938   H947    1.078   .     S
C939   C941    1.414   .     A
C939   C943    1.415   .     A
C940   C944    1.420   .     A
C940   C942    1.418   .     A
C941   C233    1.393   1_556 S
C943   C260    1.414   1_556 S
N961   Zn971   2.008   .     S
N962   Zn972   2.008   .     S
O963   Zn971   1.999   .     S
O964   Zn972   1.999   .     S
O965   Zn972   2.000   .     S
O966   Zn971   2.000   .     S
O967   Zn971   1.954   .     S
O968   Zn972   1.954   .     S
O969   Zn972   1.898   .     S
O970   Zn971   1.898   .     S
O973   C1050   1.411   .     S
C974   H976    1.111   .     S
C974   C977    1.521   .     S
C974   O1125   1.411   1_455 S
C974   H1127   1.114   1_455 S
H975   C1050   1.114   .     S
C977   H979    1.111   .     S
C977   H980    1.110   .     S
C977   H978    1.111   .     S
O981   C982    1.412   .     S
C982   H983    1.116   .     S
C982   C985    1.521   .     S
C982   H984    1.113   .     S
C985   H987    1.110   .     S
C985   H988    1.110   .     S
C985   H1138   1.111   1_455 S
H986   C1061   1.111   .     S
C989   O1041   1.283   .     A
C989   C1000   1.419   .     S
C989   O1039   1.282   .     A
C990   C999    1.419   .     S
C990   O1042   1.283   .     A
C990   O1040   1.282   .     A
C991   H1027   1.079   .     S
C991   C993    1.391   .     A
C991   C1020   1.417   .     A
C992   H1028   1.079   .     S
C992   C994    1.386   .     A
C992   C1019   1.416   .     A
C993   H1021   1.084   .     S
C994   H1022   1.084   .     S
C994   C334    1.391   1_556 S
C995   H1029   1.084   .     S
C995   C1000   1.397   .     A
C995   C1225   1.370   .     S
C996   H1030   1.084   .     S
C996   C999    1.397   .     A
C997   H1031   1.084   .     S
C997   C999    1.397   .     A
C998   C1000   1.397   .     A
C998   H1032   1.083   .     S
C998   C1224   1.370   .     S
C1001  H1033   1.082   .     S
C1001  N1038   1.366   .     A
C1001  C1079   1.416   .     S
C1002  H1034   1.082   .     S
C1002  N1037   1.367   .     A
C1003  H1035   1.082   .     S
C1003  N1037   1.366   .     A
C1004  H1036   1.082   .     S
C1004  N1038   1.366   .     A
C1004  C1078   1.416   .     S
C1005  O1043   1.294   .     A
C1005  C1007   1.464   .     S
C1005  O1045   1.293   .     A
C1006  O1046   1.295   .     A
C1006  C1008   1.461   .     S
C1006  O1044   1.290   .     A
C1007  C1011   1.408   .     A
C1007  C1013   1.392   .     A
C1008  C1012   1.408   .     A
C1008  C1014   1.395   .     A
C1009  C1017   1.405   .     A
C1009  C1011   1.405   .     A
C1009  H1025   1.084   .     S
C1010  H1026   1.084   .     S
C1010  C1018   1.401   .     A
C1010  C1012   1.401   .     A
C1011  O1057   1.383   .     S
C1012  O1049   1.385   .     S
C1013  C1015   1.393   .     A
C1013  H1024   1.079   .     S
C1014  C1016   1.397   .     A
C1014  H1023   1.078   .     S
C1015  C1017   1.414   .     A
C1015  C1019   1.415   .     A
C1016  C1020   1.420   .     A
C1016  C1018   1.418   .     A
C1017  C309    1.393   1_556 S
C1019  C336    1.414   1_556 S
N1037  Zn1047  2.008   .     S
N1038  Zn1048  2.008   .     S
O1039  Zn1047  1.999   .     S
O1040  Zn1048  1.999   .     S
O1041  Zn1048  2.000   .     S
O1042  Zn1047  2.000   .     S
O1043  Zn1047  1.954   .     S
O1044  Zn1048  1.954   .     S
O1045  Zn1048  1.898   .     S
O1046  Zn1047  1.898   .     S
O1049  C1126   1.411   .     S
C1050  H1052   1.111   .     S
C1050  C1053   1.521   .     S
H1051  C1126   1.114   .     S
C1053  H1055   1.111   .     S
C1053  H1056   1.110   .     S
C1053  H1054   1.111   .     S
O1057  C1058   1.412   .     S
C1058  H1059   1.116   .     S
C1058  C1061   1.521   .     S
C1058  H1060   1.113   .     S
C1061  H1063   1.110   .     S
C1061  H1064   1.110   .     S
H1062  C1137   1.111   .     S
C1065  O1117   1.283   .     A
C1065  C1076   1.419   .     S
C1065  O1115   1.282   .     A
C1066  C1075   1.419   .     S
C1066  O1118   1.283   .     A
C1066  O1116   1.282   .     A
C1067  H1103   1.079   .     S
C1067  C1069   1.391   .     A
C1067  C1096   1.417   .     A
C1068  H1104   1.079   .     S
C1068  C1070   1.386   .     A
C1068  C1095   1.416   .     A
C1069  H1097   1.084   .     S
C1070  H1098   1.084   .     S
C1070  C410    1.391   1_556 S
C1071  H1105   1.084   .     S
C1071  C1076   1.397   .     A
C1071  C1301   1.370   .     S
C1072  H1106   1.084   .     S
C1072  C1075   1.397   .     A
C1073  H1107   1.084   .     S
C1073  C1075   1.397   .     A
C1074  C1076   1.397   .     A
C1074  H1108   1.083   .     S
C1074  C1300   1.370   .     S
C1077  H1109   1.082   .     S
C1077  N1114   1.366   .     A
C1077  C927    1.416   1_655 S
C1078  H1110   1.082   .     S
C1078  N1113   1.367   .     A
C1079  H1111   1.082   .     S
C1079  N1113   1.366   .     A
C1080  H1112   1.082   .     S
C1080  N1114   1.366   .     A
C1080  C926    1.416   1_655 S
C1081  O1119   1.294   .     A
C1081  C1083   1.464   .     S
C1081  O1121   1.293   .     A
C1082  O1122   1.295   .     A
C1082  C1084   1.461   .     S
C1082  O1120   1.290   .     A
C1083  C1087   1.408   .     A
C1083  C1089   1.392   .     A
C1084  C1088   1.408   .     A
C1084  C1090   1.395   .     A
C1085  C1093   1.405   .     A
C1085  C1087   1.405   .     A
C1085  H1101   1.084   .     S
C1086  H1102   1.084   .     S
C1086  C1094   1.401   .     A
C1086  C1088   1.401   .     A
C1087  O1133   1.383   .     S
C1088  O1125   1.385   .     S
C1089  C1091   1.393   .     A
C1089  H1100   1.079   .     S
C1090  C1092   1.397   .     A
C1090  H1099   1.078   .     S
C1091  C1093   1.414   .     A
C1091  C1095   1.415   .     A
C1092  C1096   1.420   .     A
C1092  C1094   1.418   .     A
C1093  C385    1.393   1_556 S
C1095  C412    1.414   1_556 S
N1113  Zn1123  2.008   .     S
N1114  Zn1124  2.008   .     S
O1115  Zn1123  1.999   .     S
O1116  Zn1124  1.999   .     S
O1117  Zn1124  2.000   .     S
O1118  Zn1123  2.000   .     S
O1119  Zn1123  1.954   .     S
O1120  Zn1124  1.954   .     S
O1121  Zn1124  1.898   .     S
O1122  Zn1123  1.898   .     S
O1125  C974    1.411   1_655 S
C1126  H1128   1.111   .     S
C1126  C1129   1.521   .     S
H1127  C974    1.114   1_655 S
C1129  H1131   1.111   .     S
C1129  H1132   1.110   .     S
C1129  H1130   1.111   .     S
O1133  C1134   1.412   .     S
C1134  H1135   1.116   .     S
C1134  C1137   1.521   .     S
C1134  H1136   1.113   .     S
C1137  H1139   1.110   .     S
C1137  H1140   1.110   .     S
H1138  C985    1.111   1_655 S
C1141  O1193   1.283   .     A
C1141  C1152   1.419   .     S
C1141  O1191   1.282   .     A
C1142  C1151   1.419   .     S
C1142  O1194   1.283   .     A
C1142  O1192   1.282   .     A
C1143  H1179   1.079   .     S
C1143  C1145   1.391   .     A
C1143  C1172   1.417   .     A
C1144  H1180   1.079   .     S
C1144  C1146   1.386   .     A
C1144  C1171   1.416   .     A
C1145  H1173   1.084   .     S
C1146  H1174   1.084   .     S
C1146  C486    1.391   1_556 S
C1147  H1181   1.084   .     S
C1147  C1152   1.397   .     A
C1147  C693    1.370   1_565 S
C1148  H1182   1.084   .     S
C1148  C1151   1.397   .     A
C1149  H1183   1.084   .     S
C1149  C1151   1.397   .     A
C1150  C1152   1.397   .     A
C1150  H1184   1.083   .     S
C1150  C692    1.370   1_565 S
C1153  H1185   1.082   .     S
C1153  N1190   1.366   .     A
C1153  C1231   1.416   .     S
C1154  H1186   1.082   .     S
C1154  N1189   1.367   .     A
C1154  C1308   1.416   1_455 S
C1155  H1187   1.082   .     S
C1155  N1189   1.366   .     A
C1155  C1305   1.416   1_455 S
C1156  H1188   1.082   .     S
C1156  N1190   1.366   .     A
C1156  C1230   1.416   .     S
C1157  O1195   1.294   .     A
C1157  C1159   1.464   .     S
C1157  O1197   1.293   .     A
C1158  O1198   1.295   .     A
C1158  C1160   1.461   .     S
C1158  O1196   1.290   .     A
C1159  C1163   1.408   .     A
C1159  C1165   1.392   .     A
C1160  C1164   1.408   .     A
C1160  C1166   1.395   .     A
C1161  C1169   1.405   .     A
C1161  C1163   1.405   .     A
C1161  H1177   1.084   .     S
C1162  H1178   1.084   .     S
C1162  C1170   1.401   .     A
C1162  C1164   1.401   .     A
C1163  O1209   1.383   .     S
C1164  O1201   1.385   .     S
C1165  C1167   1.393   .     A
C1165  H1176   1.079   .     S
C1166  C1168   1.397   .     A
C1166  H1175   1.078   .     S
C1167  C1169   1.414   .     A
C1167  C1171   1.415   .     A
C1168  C1172   1.420   .     A
C1168  C1170   1.418   .     A
C1169  C461    1.393   1_556 S
C1171  C488    1.414   1_556 S
N1189  Zn1199  2.008   .     S
N1190  Zn1200  2.008   .     S
O1191  Zn1199  1.999   .     S
O1192  Zn1200  1.999   .     S
O1193  Zn1200  2.000   .     S
O1194  Zn1199  2.000   .     S
O1195  Zn1199  1.954   .     S
O1196  Zn1200  1.954   .     S
O1197  Zn1200  1.898   .     S
O1198  Zn1199  1.898   .     S
O1201  C1278   1.411   .     S
C1202  H1204   1.111   .     S
C1202  C1205   1.521   .     S
C1202  O1353   1.411   1_455 S
C1202  H1355   1.114   1_455 S
H1203  C1278   1.114   .     S
C1205  H1207   1.111   .     S
C1205  H1208   1.110   .     S
C1205  H1206   1.111   .     S
O1209  C1210   1.412   .     S
C1210  H1211   1.116   .     S
C1210  C1213   1.521   .     S
C1210  H1212   1.113   .     S
C1213  H1215   1.110   .     S
C1213  H1216   1.110   .     S
C1213  H1366   1.111   1_455 S
H1214  C1289   1.111   .     S
C1217  O1269   1.283   .     A
C1217  C1228   1.419   .     S
C1217  O1267   1.282   .     A
C1218  C1227   1.419   .     S
C1218  O1270   1.283   .     A
C1218  O1268   1.282   .     A
C1219  H1255   1.079   .     S
C1219  C1221   1.391   .     A
C1219  C1248   1.417   .     A
C1220  H1256   1.079   .     S
C1220  C1222   1.386   .     A
C1220  C1247   1.416   .     A
C1221  H1249   1.084   .     S
C1222  H1250   1.084   .     S
C1222  C562    1.391   1_556 S
C1223  H1257   1.084   .     S
C1223  C1228   1.397   .     A
C1223  C769    1.370   1_565 S
C1224  H1258   1.084   .     S
C1224  C1227   1.397   .     A
C1225  H1259   1.084   .     S
C1225  C1227   1.397   .     A
C1226  C1228   1.397   .     A
C1226  H1260   1.083   .     S
C1226  C768    1.370   1_565 S
C1229  H1261   1.082   .     S
C1229  N1266   1.366   .     A
C1229  C1307   1.416   .     S
C1230  H1262   1.082   .     S
C1230  N1265   1.367   .     A
C1231  H1263   1.082   .     S
C1231  N1265   1.366   .     A
C1232  H1264   1.082   .     S
C1232  N1266   1.366   .     A
C1232  C1306   1.416   .     S
C1233  O1271   1.294   .     A
C1233  C1235   1.464   .     S
C1233  O1273   1.293   .     A
C1234  O1274   1.295   .     A
C1234  C1236   1.461   .     S
C1234  O1272   1.290   .     A
C1235  C1239   1.408   .     A
C1235  C1241   1.392   .     A
C1236  C1240   1.408   .     A
C1236  C1242   1.395   .     A
C1237  C1245   1.405   .     A
C1237  C1239   1.405   .     A
C1237  H1253   1.084   .     S
C1238  H1254   1.084   .     S
C1238  C1246   1.401   .     A
C1238  C1240   1.401   .     A
C1239  O1285   1.383   .     S
C1240  O1277   1.385   .     S
C1241  C1243   1.393   .     A
C1241  H1252   1.079   .     S
C1242  C1244   1.397   .     A
C1242  H1251   1.078   .     S
C1243  C1245   1.414   .     A
C1243  C1247   1.415   .     A
C1244  C1248   1.420   .     A
C1244  C1246   1.418   .     A
C1245  C537    1.393   1_556 S
C1247  C564    1.414   1_556 S
N1265  Zn1275  2.008   .     S
N1266  Zn1276  2.008   .     S
O1267  Zn1275  1.999   .     S
O1268  Zn1276  1.999   .     S
O1269  Zn1276  2.000   .     S
O1270  Zn1275  2.000   .     S
O1271  Zn1275  1.954   .     S
O1272  Zn1276  1.954   .     S
O1273  Zn1276  1.898   .     S
O1274  Zn1275  1.898   .     S
O1277  C1354   1.411   .     S
C1278  H1280   1.111   .     S
C1278  C1281   1.521   .     S
H1279  C1354   1.114   .     S
C1281  H1283   1.111   .     S
C1281  H1284   1.110   .     S
C1281  H1282   1.111   .     S
O1285  C1286   1.412   .     S
C1286  H1287   1.116   .     S
C1286  C1289   1.521   .     S
C1286  H1288   1.113   .     S
C1289  H1291   1.110   .     S
C1289  H1292   1.110   .     S
H1290  C1365   1.111   .     S
C1293  O1345   1.283   .     A
C1293  C1304   1.419   .     S
C1293  O1343   1.282   .     A
C1294  C1303   1.419   .     S
C1294  O1346   1.283   .     A
C1294  O1344   1.282   .     A
C1295  H1331   1.079   .     S
C1295  C1297   1.391   .     A
C1295  C1324   1.417   .     A
C1296  H1332   1.079   .     S
C1296  C1298   1.386   .     A
C1296  C1323   1.416   .     A
C1297  H1325   1.084   .     S
C1298  H1326   1.084   .     S
C1298  C638    1.391   1_556 S
C1299  H1333   1.084   .     S
C1299  C1304   1.397   .     A
C1299  C845    1.370   1_565 S
C1300  H1334   1.084   .     S
C1300  C1303   1.397   .     A
C1301  H1335   1.084   .     S
C1301  C1303   1.397   .     A
C1302  C1304   1.397   .     A
C1302  H1336   1.083   .     S
C1302  C844    1.370   1_565 S
C1305  H1337   1.082   .     S
C1305  N1342   1.366   .     A
C1305  C1155   1.416   1_655 S
C1306  H1338   1.082   .     S
C1306  N1341   1.367   .     A
C1307  H1339   1.082   .     S
C1307  N1341   1.366   .     A
C1308  H1340   1.082   .     S
C1308  N1342   1.366   .     A
C1308  C1154   1.416   1_655 S
C1309  O1347   1.294   .     A
C1309  C1311   1.464   .     S
C1309  O1349   1.293   .     A
C1310  O1350   1.295   .     A
C1310  C1312   1.461   .     S
C1310  O1348   1.290   .     A
C1311  C1315   1.408   .     A
C1311  C1317   1.392   .     A
C1312  C1316   1.408   .     A
C1312  C1318   1.395   .     A
C1313  C1321   1.405   .     A
C1313  C1315   1.405   .     A
C1313  H1329   1.084   .     S
C1314  H1330   1.084   .     S
C1314  C1322   1.401   .     A
C1314  C1316   1.401   .     A
C1315  O1361   1.383   .     S
C1316  O1353   1.385   .     S
C1317  C1319   1.393   .     A
C1317  H1328   1.079   .     S
C1318  C1320   1.397   .     A
C1318  H1327   1.078   .     S
C1319  C1321   1.414   .     A
C1319  C1323   1.415   .     A
C1320  C1324   1.420   .     A
C1320  C1322   1.418   .     A
C1321  C613    1.393   1_556 S
C1323  C640    1.414   1_556 S
N1341  Zn1351  2.008   .     S
N1342  Zn1352  2.008   .     S
O1343  Zn1351  1.999   .     S
O1344  Zn1352  1.999   .     S
O1345  Zn1352  2.000   .     S
O1346  Zn1351  2.000   .     S
O1347  Zn1351  1.954   .     S
O1348  Zn1352  1.954   .     S
O1349  Zn1352  1.898   .     S
O1350  Zn1351  1.898   .     S
O1353  C1202   1.411   1_655 S
C1354  H1356   1.111   .     S
C1354  C1357   1.521   .     S
H1355  C1202   1.114   1_655 S
C1357  H1359   1.111   .     S
C1357  H1360   1.110   .     S
C1357  H1358   1.111   .     S
O1361  C1362   1.412   .     S
C1362  H1363   1.116   .     S
C1362  C1365   1.521   .     S
C1362  H1364   1.113   .     S
C1365  H1367   1.110   .     S
C1365  H1368   1.110   .     S
H1366  C1213   1.111   1_655 S
