data_str_m3_o1_o17_pcu_sym.49
_audit_creation_date              2020-01-03
_audit_creation_method            'Materials Studio'
_symmetry_space_group_name_H-M    'P1'
_symmetry_Int_Tables_number       1
_symmetry_cell_setting            triclinic
loop_
_symmetry_equiv_pos_as_xyz
  x,y,z
_cell_length_a                    31.9024
_cell_length_b                    29.9569
_cell_length_c                    29.9477
_cell_angle_alpha                 90.0676
_cell_angle_beta                  91.9628
_cell_angle_gamma                 90.3588
loop_
_atom_site_label
_atom_site_type_symbol
_atom_site_fract_x
_atom_site_fract_y
_atom_site_fract_z
_atom_site_U_iso_or_equiv
_atom_site_adp_type
_atom_site_occupancy
C1     C     0.08695   0.16650   0.25018   0.00000  Uiso   1.00
C2     C     0.04275   0.16592   0.25098   0.00000  Uiso   1.00
C3     C     0.18988   0.02378   0.28136   0.00000  Uiso   1.00
C4     C     0.14345   0.30955   0.21864   0.00000  Uiso   1.00
C5     C     0.14345   0.02348   0.21863   0.00000  Uiso   1.00
C6     C     0.18988   0.30985   0.28137   0.00000  Uiso   1.00
C7     C     0.16557   0.16657   0.16365   0.00000  Uiso   1.00
C8     C     0.16776   0.16676   0.33635   0.00000  Uiso   1.00
C9     C     0.19894   0.14087   0.40827   0.00000  Uiso   1.00
C10    C     0.13440   0.19246   0.09173   0.00000  Uiso   1.00
C11    C     0.16982   0.16722   0.38421   0.00000  Uiso   1.00
C12    C     0.24638   0.16683   0.24982   0.00000  Uiso   1.00
C13    C     0.16352   0.16612   0.11579   0.00000  Uiso   1.00
C14    C     0.14136   0.19393   0.40540   0.00000  Uiso   1.00
C15    C     0.19197   0.13940   0.09460   0.00000  Uiso   1.00
C16    C     0.13872   0.19307   0.45147   0.00000  Uiso   1.00
C17    C     0.19462   0.14026   0.04854   0.00000  Uiso   1.00
C18    C     0.16731   0.16641   0.47668   0.00000  Uiso   1.00
C19    C     0.16603   0.16692   0.02332   0.00000  Uiso   1.00
C20    C     0.19716   0.13932   0.45511   0.00000  Uiso   1.00
C21    C     0.13618   0.19401   0.04489   0.00000  Uiso   1.00
C22    C     0.10839   0.21910   0.47254   0.00000  Uiso   1.00
C23    C     0.10822   0.22112   0.01932   0.00000  Uiso   1.00
C24    C     0.22494   0.11423   0.02746   0.00000  Uiso   1.00
C25    C     0.22511   0.11221   0.48068   0.00000  Uiso   1.00
C26    C     0.02105   0.14693   0.21417   0.00000  Uiso   1.00
C27    C     0.31228   0.18640   0.28583   0.00000  Uiso   1.00
C28    C     0.31082   0.14810   0.21268   0.00000  Uiso   1.00
C29    C     0.02251   0.18523   0.28732   0.00000  Uiso   1.00
C30    C     0.29059   0.16741   0.24902   0.00000  Uiso   1.00
H31    H     0.12122   0.21535   0.38517   0.00000  Uiso   1.00
H32    H     0.30887   0.21680   0.34375   0.00000  Uiso   1.00
H33    H     0.26059   0.14308   0.17354   0.00000  Uiso   1.00
H34    H     0.07275   0.19027   0.32646   0.00000  Uiso   1.00
H35    H     0.21889   0.07556   0.30465   0.00000  Uiso   1.00
H36    H     0.11445   0.25777   0.19535   0.00000  Uiso   1.00
H37    H     0.11474   0.07505   0.19510   0.00000  Uiso   1.00
H38    H     0.21859   0.25828   0.30490   0.00000  Uiso   1.00
H39    H     0.21212   0.11798   0.11483   0.00000  Uiso   1.00
H40    H     0.23709   0.13410   0.35920   0.00000  Uiso   1.00
H41    H     0.09624   0.19923   0.14080   0.00000  Uiso   1.00
H42    H     0.06643   0.22269   0.42470   0.00000  Uiso   1.00
H43    H     0.26690   0.11064   0.07529   0.00000  Uiso   1.00
H44    H     0.06503   0.26781   0.01902   0.00000  Uiso   1.00
H45    H     0.26829   0.06551   0.48098   0.00000  Uiso   1.00
H46    H     0.02447   0.11645   0.15629   0.00000  Uiso   1.00
N47    N     0.16667   0.28573   0.25000   0.00000  Uiso   1.00
N48    N     0.16667   0.04760   0.25000   0.00000  Uiso   1.00
O49    O     0.10559   0.20487   0.25000   0.00000  Uiso   1.00
O50    O     0.10328   0.21528   0.11313   0.00000  Uiso   1.00
O51    O     0.07844   0.24276   0.44824   0.00000  Uiso   1.00
O52    O     0.25490   0.09058   0.05176   0.00000  Uiso   1.00
O53    O     0.08050   0.24865   0.04074   0.00000  Uiso   1.00
O54    O     0.25283   0.08468   0.45926   0.00000  Uiso   1.00
O55    O     0.04366   0.12915   0.17972   0.00000  Uiso   1.00
O56    O     0.28967   0.20418   0.32029   0.00000  Uiso   1.00
O57    O     0.28933   0.13095   0.17548   0.00000  Uiso   1.00
O58    O     0.04401   0.20239   0.32452   0.00000  Uiso   1.00
O59    O     0.21460   0.04453   0.31373   0.00000  Uiso   1.00
O60    O     0.22774   0.12846   0.25001   0.00000  Uiso   1.00
O61    O     0.11873   0.28880   0.18627   0.00000  Uiso   1.00
O62    O     0.11874   0.04392   0.18626   0.00000  Uiso   1.00
O63    O     0.21460   0.28941   0.31374   0.00000  Uiso   1.00
O64    O     0.22774   0.20487   0.25001   0.00000  Uiso   1.00
O65    O     0.10559   0.12846   0.25000   0.00000  Uiso   1.00
O66    O     0.16666   0.20489   0.18393   0.00000  Uiso   1.00
O67    O     0.16667   0.12844   0.31608   0.00000  Uiso   1.00
O68    O     0.16667   0.20489   0.31608   0.00000  Uiso   1.00
O69    O     0.16666   0.12844   0.18393   0.00000  Uiso   1.00
O70    O     0.23006   0.11805   0.38687   0.00000  Uiso   1.00
Zn71   Zn    0.16667   0.21771   0.25000   0.00000  Uiso   1.00
Zn72   Zn    0.16667   0.11563   0.25000   0.00000  Uiso   1.00
C73    C     0.42028   0.16650   0.25018   0.00000  Uiso   1.00
C74    C     0.37608   0.16592   0.25098   0.00000  Uiso   1.00
C75    C     0.52321   0.02378   0.28136   0.00000  Uiso   1.00
C76    C     0.47679   0.30955   0.21864   0.00000  Uiso   1.00
C77    C     0.47679   0.02348   0.21863   0.00000  Uiso   1.00
C78    C     0.52321   0.30985   0.28137   0.00000  Uiso   1.00
C79    C     0.49890   0.16657   0.16365   0.00000  Uiso   1.00
C80    C     0.50110   0.16676   0.33635   0.00000  Uiso   1.00
C81    C     0.53227   0.14087   0.40827   0.00000  Uiso   1.00
C82    C     0.46773   0.19246   0.09173   0.00000  Uiso   1.00
C83    C     0.50315   0.16722   0.38421   0.00000  Uiso   1.00
C84    C     0.57972   0.16683   0.24982   0.00000  Uiso   1.00
C85    C     0.49685   0.16612   0.11579   0.00000  Uiso   1.00
C86    C     0.47470   0.19393   0.40540   0.00000  Uiso   1.00
C87    C     0.52530   0.13940   0.09460   0.00000  Uiso   1.00
C88    C     0.47205   0.19307   0.45147   0.00000  Uiso   1.00
C89    C     0.52795   0.14026   0.04854   0.00000  Uiso   1.00
C90    C     0.50064   0.16641   0.47668   0.00000  Uiso   1.00
C91    C     0.49936   0.16692   0.02332   0.00000  Uiso   1.00
C92    C     0.53049   0.13932   0.45511   0.00000  Uiso   1.00
C93    C     0.46951   0.19401   0.04489   0.00000  Uiso   1.00
C94    C     0.44173   0.21910   0.47254   0.00000  Uiso   1.00
C95    C     0.44156   0.22112   0.01932   0.00000  Uiso   1.00
C96    C     0.55827   0.11423   0.02746   0.00000  Uiso   1.00
C97    C     0.55844   0.11221   0.48068   0.00000  Uiso   1.00
C98    C     0.35439   0.14693   0.21417   0.00000  Uiso   1.00
C99    C     0.64561   0.18640   0.28583   0.00000  Uiso   1.00
C100   C     0.64416   0.14810   0.21268   0.00000  Uiso   1.00
C101   C     0.35584   0.18523   0.28732   0.00000  Uiso   1.00
C102   C     0.62392   0.16741   0.24902   0.00000  Uiso   1.00
H103   H     0.45455   0.21535   0.38517   0.00000  Uiso   1.00
H104   H     0.64220   0.21680   0.34375   0.00000  Uiso   1.00
H105   H     0.59392   0.14308   0.17354   0.00000  Uiso   1.00
H106   H     0.40608   0.19027   0.32646   0.00000  Uiso   1.00
H107   H     0.55222   0.07556   0.30465   0.00000  Uiso   1.00
H108   H     0.44778   0.25777   0.19535   0.00000  Uiso   1.00
H109   H     0.44807   0.07505   0.19510   0.00000  Uiso   1.00
H110   H     0.55193   0.25828   0.30490   0.00000  Uiso   1.00
H111   H     0.54545   0.11798   0.11483   0.00000  Uiso   1.00
H112   H     0.57043   0.13410   0.35920   0.00000  Uiso   1.00
H113   H     0.42957   0.19923   0.14080   0.00000  Uiso   1.00
H114   H     0.39977   0.22269   0.42470   0.00000  Uiso   1.00
H115   H     0.60023   0.11064   0.07529   0.00000  Uiso   1.00
H116   H     0.39836   0.26781   0.01902   0.00000  Uiso   1.00
H117   H     0.60163   0.06551   0.48098   0.00000  Uiso   1.00
H118   H     0.35780   0.11645   0.15629   0.00000  Uiso   1.00
N119   N     0.50000   0.28573   0.25000   0.00000  Uiso   1.00
N120   N     0.50000   0.04760   0.25000   0.00000  Uiso   1.00
O121   O     0.43892   0.20487   0.25000   0.00000  Uiso   1.00
O122   O     0.43661   0.21528   0.11313   0.00000  Uiso   1.00
O123   O     0.41177   0.24276   0.44824   0.00000  Uiso   1.00
O124   O     0.58823   0.09058   0.05176   0.00000  Uiso   1.00
O125   O     0.41383   0.24865   0.04074   0.00000  Uiso   1.00
O126   O     0.58617   0.08468   0.45926   0.00000  Uiso   1.00
O127   O     0.37700   0.12915   0.17972   0.00000  Uiso   1.00
O128   O     0.62300   0.20418   0.32029   0.00000  Uiso   1.00
O129   O     0.62266   0.13095   0.17548   0.00000  Uiso   1.00
O130   O     0.37734   0.20239   0.32452   0.00000  Uiso   1.00
O131   O     0.54794   0.04453   0.31373   0.00000  Uiso   1.00
O132   O     0.56108   0.12846   0.25001   0.00000  Uiso   1.00
O133   O     0.45206   0.28880   0.18627   0.00000  Uiso   1.00
O134   O     0.45207   0.04392   0.18626   0.00000  Uiso   1.00
O135   O     0.54793   0.28941   0.31374   0.00000  Uiso   1.00
O136   O     0.56108   0.20487   0.25001   0.00000  Uiso   1.00
O137   O     0.43892   0.12846   0.25000   0.00000  Uiso   1.00
O138   O     0.49999   0.20489   0.18393   0.00000  Uiso   1.00
O139   O     0.50001   0.12844   0.31608   0.00000  Uiso   1.00
O140   O     0.50001   0.20489   0.31608   0.00000  Uiso   1.00
O141   O     0.49999   0.12844   0.18393   0.00000  Uiso   1.00
O142   O     0.56339   0.11805   0.38687   0.00000  Uiso   1.00
Zn143  Zn    0.50000   0.21771   0.25000   0.00000  Uiso   1.00
Zn144  Zn    0.50000   0.11563   0.25000   0.00000  Uiso   1.00
C145   C     0.75362   0.16650   0.25018   0.00000  Uiso   1.00
C146   C     0.70941   0.16592   0.25098   0.00000  Uiso   1.00
C147   C     0.85655   0.02378   0.28136   0.00000  Uiso   1.00
C148   C     0.81012   0.30955   0.21864   0.00000  Uiso   1.00
C149   C     0.81012   0.02348   0.21863   0.00000  Uiso   1.00
C150   C     0.85655   0.30985   0.28137   0.00000  Uiso   1.00
C151   C     0.83224   0.16657   0.16365   0.00000  Uiso   1.00
C152   C     0.83443   0.16676   0.33635   0.00000  Uiso   1.00
C153   C     0.86560   0.14087   0.40827   0.00000  Uiso   1.00
C154   C     0.80106   0.19246   0.09173   0.00000  Uiso   1.00
C155   C     0.83648   0.16722   0.38421   0.00000  Uiso   1.00
C156   C     0.91305   0.16683   0.24982   0.00000  Uiso   1.00
C157   C     0.83018   0.16612   0.11579   0.00000  Uiso   1.00
C158   C     0.80803   0.19393   0.40540   0.00000  Uiso   1.00
C159   C     0.85864   0.13940   0.09460   0.00000  Uiso   1.00
C160   C     0.80538   0.19307   0.45147   0.00000  Uiso   1.00
C161   C     0.86128   0.14026   0.04854   0.00000  Uiso   1.00
C162   C     0.83397   0.16641   0.47668   0.00000  Uiso   1.00
C163   C     0.83269   0.16692   0.02332   0.00000  Uiso   1.00
C164   C     0.86382   0.13932   0.45511   0.00000  Uiso   1.00
C165   C     0.80284   0.19401   0.04489   0.00000  Uiso   1.00
C166   C     0.77506   0.21910   0.47254   0.00000  Uiso   1.00
C167   C     0.77489   0.22112   0.01932   0.00000  Uiso   1.00
C168   C     0.89160   0.11423   0.02746   0.00000  Uiso   1.00
C169   C     0.89178   0.11221   0.48068   0.00000  Uiso   1.00
C170   C     0.68772   0.14693   0.21417   0.00000  Uiso   1.00
C171   C     0.97895   0.18640   0.28583   0.00000  Uiso   1.00
C172   C     0.97749   0.14810   0.21268   0.00000  Uiso   1.00
C173   C     0.68918   0.18523   0.28732   0.00000  Uiso   1.00
C174   C     0.95725   0.16741   0.24902   0.00000  Uiso   1.00
H175   H     0.78789   0.21535   0.38517   0.00000  Uiso   1.00
H176   H     0.97553   0.21680   0.34375   0.00000  Uiso   1.00
H177   H     0.92726   0.14308   0.17354   0.00000  Uiso   1.00
H178   H     0.73941   0.19027   0.32646   0.00000  Uiso   1.00
H179   H     0.88555   0.07556   0.30465   0.00000  Uiso   1.00
H180   H     0.78111   0.25777   0.19535   0.00000  Uiso   1.00
H181   H     0.78141   0.07505   0.19510   0.00000  Uiso   1.00
H182   H     0.88526   0.25828   0.30490   0.00000  Uiso   1.00
H183   H     0.87878   0.11798   0.11483   0.00000  Uiso   1.00
H184   H     0.90376   0.13410   0.35920   0.00000  Uiso   1.00
H185   H     0.76291   0.19923   0.14080   0.00000  Uiso   1.00
H186   H     0.73310   0.22269   0.42470   0.00000  Uiso   1.00
H187   H     0.93357   0.11064   0.07529   0.00000  Uiso   1.00
H188   H     0.73170   0.26781   0.01902   0.00000  Uiso   1.00
H189   H     0.93496   0.06551   0.48098   0.00000  Uiso   1.00
H190   H     0.69113   0.11645   0.15629   0.00000  Uiso   1.00
N191   N     0.83333   0.28573   0.25000   0.00000  Uiso   1.00
N192   N     0.83333   0.04760   0.25000   0.00000  Uiso   1.00
O193   O     0.77226   0.20487   0.25000   0.00000  Uiso   1.00
O194   O     0.76994   0.21528   0.11313   0.00000  Uiso   1.00
O195   O     0.74510   0.24276   0.44824   0.00000  Uiso   1.00
O196   O     0.92156   0.09058   0.05176   0.00000  Uiso   1.00
O197   O     0.74717   0.24865   0.04074   0.00000  Uiso   1.00
O198   O     0.91950   0.08468   0.45926   0.00000  Uiso   1.00
O199   O     0.71033   0.12915   0.17972   0.00000  Uiso   1.00
O200   O     0.95634   0.20418   0.32029   0.00000  Uiso   1.00
O201   O     0.95599   0.13095   0.17548   0.00000  Uiso   1.00
O202   O     0.71067   0.20239   0.32452   0.00000  Uiso   1.00
O203   O     0.88127   0.04453   0.31373   0.00000  Uiso   1.00
O204   O     0.89441   0.12846   0.25001   0.00000  Uiso   1.00
O205   O     0.78540   0.28880   0.18627   0.00000  Uiso   1.00
O206   O     0.78541   0.04392   0.18626   0.00000  Uiso   1.00
O207   O     0.88126   0.28941   0.31374   0.00000  Uiso   1.00
O208   O     0.89441   0.20487   0.25001   0.00000  Uiso   1.00
O209   O     0.77226   0.12846   0.25000   0.00000  Uiso   1.00
O210   O     0.83333   0.20489   0.18393   0.00000  Uiso   1.00
O211   O     0.83334   0.12844   0.31608   0.00000  Uiso   1.00
O212   O     0.83334   0.20489   0.31608   0.00000  Uiso   1.00
O213   O     0.83333   0.12844   0.18393   0.00000  Uiso   1.00
O214   O     0.89672   0.11805   0.38687   0.00000  Uiso   1.00
Zn215  Zn    0.83333   0.21771   0.25000   0.00000  Uiso   1.00
Zn216  Zn    0.83333   0.11563   0.25000   0.00000  Uiso   1.00
C217   C     0.08695   0.49983   0.25018   0.00000  Uiso   1.00
C218   C     0.04275   0.49925   0.25098   0.00000  Uiso   1.00
C219   C     0.18988   0.35711   0.28136   0.00000  Uiso   1.00
C220   C     0.14345   0.64289   0.21864   0.00000  Uiso   1.00
C221   C     0.14345   0.35681   0.21863   0.00000  Uiso   1.00
C222   C     0.18988   0.64319   0.28137   0.00000  Uiso   1.00
C223   C     0.16557   0.49991   0.16365   0.00000  Uiso   1.00
C224   C     0.16776   0.50009   0.33635   0.00000  Uiso   1.00
C225   C     0.19894   0.47421   0.40827   0.00000  Uiso   1.00
C226   C     0.13440   0.52579   0.09173   0.00000  Uiso   1.00
C227   C     0.16982   0.50055   0.38421   0.00000  Uiso   1.00
C228   C     0.24638   0.50017   0.24982   0.00000  Uiso   1.00
C229   C     0.16352   0.49945   0.11579   0.00000  Uiso   1.00
C230   C     0.14136   0.52726   0.40540   0.00000  Uiso   1.00
C231   C     0.19197   0.47274   0.09460   0.00000  Uiso   1.00
C232   C     0.13872   0.52641   0.45147   0.00000  Uiso   1.00
C233   C     0.19462   0.47359   0.04854   0.00000  Uiso   1.00
C234   C     0.16731   0.49975   0.47668   0.00000  Uiso   1.00
C235   C     0.16603   0.50025   0.02332   0.00000  Uiso   1.00
C236   C     0.19716   0.47266   0.45511   0.00000  Uiso   1.00
C237   C     0.13618   0.52734   0.04489   0.00000  Uiso   1.00
C238   C     0.10839   0.55243   0.47254   0.00000  Uiso   1.00
C239   C     0.10822   0.55445   0.01932   0.00000  Uiso   1.00
C240   C     0.22494   0.44756   0.02746   0.00000  Uiso   1.00
C241   C     0.22511   0.44554   0.48068   0.00000  Uiso   1.00
C242   C     0.02105   0.48026   0.21417   0.00000  Uiso   1.00
C243   C     0.31228   0.51973   0.28583   0.00000  Uiso   1.00
C244   C     0.31082   0.48143   0.21268   0.00000  Uiso   1.00
C245   C     0.02251   0.51857   0.28732   0.00000  Uiso   1.00
C246   C     0.29059   0.50075   0.24902   0.00000  Uiso   1.00
H247   H     0.12122   0.54868   0.38517   0.00000  Uiso   1.00
H248   H     0.30887   0.55014   0.34375   0.00000  Uiso   1.00
H249   H     0.26059   0.47641   0.17354   0.00000  Uiso   1.00
H250   H     0.07275   0.52360   0.32646   0.00000  Uiso   1.00
H251   H     0.21889   0.40889   0.30465   0.00000  Uiso   1.00
H252   H     0.11445   0.59111   0.19535   0.00000  Uiso   1.00
H253   H     0.11474   0.40839   0.19510   0.00000  Uiso   1.00
H254   H     0.21859   0.59161   0.30490   0.00000  Uiso   1.00
H255   H     0.21212   0.45132   0.11483   0.00000  Uiso   1.00
H256   H     0.23709   0.46743   0.35920   0.00000  Uiso   1.00
H257   H     0.09624   0.53257   0.14080   0.00000  Uiso   1.00
H258   H     0.06643   0.55603   0.42470   0.00000  Uiso   1.00
H259   H     0.26690   0.44397   0.07529   0.00000  Uiso   1.00
H260   H     0.06503   0.60115   0.01902   0.00000  Uiso   1.00
H261   H     0.26829   0.39884   0.48098   0.00000  Uiso   1.00
H262   H     0.02447   0.44979   0.15629   0.00000  Uiso   1.00
N263   N     0.16667   0.61907   0.25000   0.00000  Uiso   1.00
N264   N     0.16667   0.38093   0.25000   0.00000  Uiso   1.00
O265   O     0.10559   0.53821   0.25000   0.00000  Uiso   1.00
O266   O     0.10328   0.54861   0.11313   0.00000  Uiso   1.00
O267   O     0.07844   0.57609   0.44824   0.00000  Uiso   1.00
O268   O     0.25490   0.42391   0.05176   0.00000  Uiso   1.00
O269   O     0.08050   0.58199   0.04074   0.00000  Uiso   1.00
O270   O     0.25283   0.41801   0.45926   0.00000  Uiso   1.00
O271   O     0.04366   0.46248   0.17972   0.00000  Uiso   1.00
O272   O     0.28967   0.53751   0.32029   0.00000  Uiso   1.00
O273   O     0.28933   0.46428   0.17548   0.00000  Uiso   1.00
O274   O     0.04401   0.53572   0.32452   0.00000  Uiso   1.00
O275   O     0.21460   0.37787   0.31373   0.00000  Uiso   1.00
O276   O     0.22774   0.46179   0.25001   0.00000  Uiso   1.00
O277   O     0.11873   0.62213   0.18627   0.00000  Uiso   1.00
O278   O     0.11874   0.37725   0.18626   0.00000  Uiso   1.00
O279   O     0.21460   0.62275   0.31374   0.00000  Uiso   1.00
O280   O     0.22774   0.53821   0.25001   0.00000  Uiso   1.00
O281   O     0.10559   0.46179   0.25000   0.00000  Uiso   1.00
O282   O     0.16666   0.53823   0.18393   0.00000  Uiso   1.00
O283   O     0.16667   0.46177   0.31608   0.00000  Uiso   1.00
O284   O     0.16667   0.53823   0.31608   0.00000  Uiso   1.00
O285   O     0.16666   0.46177   0.18393   0.00000  Uiso   1.00
O286   O     0.23006   0.45139   0.38687   0.00000  Uiso   1.00
Zn287  Zn    0.16667   0.55104   0.25000   0.00000  Uiso   1.00
Zn288  Zn    0.16667   0.44896   0.25000   0.00000  Uiso   1.00
C289   C     0.42028   0.49983   0.25018   0.00000  Uiso   1.00
C290   C     0.37608   0.49925   0.25098   0.00000  Uiso   1.00
C291   C     0.52321   0.35711   0.28136   0.00000  Uiso   1.00
C292   C     0.47679   0.64289   0.21864   0.00000  Uiso   1.00
C293   C     0.47679   0.35681   0.21863   0.00000  Uiso   1.00
C294   C     0.52321   0.64319   0.28137   0.00000  Uiso   1.00
C295   C     0.49890   0.49991   0.16365   0.00000  Uiso   1.00
C296   C     0.50110   0.50009   0.33635   0.00000  Uiso   1.00
C297   C     0.53227   0.47421   0.40827   0.00000  Uiso   1.00
C298   C     0.46773   0.52579   0.09173   0.00000  Uiso   1.00
C299   C     0.50315   0.50055   0.38421   0.00000  Uiso   1.00
C300   C     0.57972   0.50017   0.24982   0.00000  Uiso   1.00
C301   C     0.49685   0.49945   0.11579   0.00000  Uiso   1.00
C302   C     0.47470   0.52726   0.40540   0.00000  Uiso   1.00
C303   C     0.52530   0.47274   0.09460   0.00000  Uiso   1.00
C304   C     0.47205   0.52641   0.45147   0.00000  Uiso   1.00
C305   C     0.52795   0.47359   0.04854   0.00000  Uiso   1.00
C306   C     0.50064   0.49975   0.47668   0.00000  Uiso   1.00
C307   C     0.49936   0.50025   0.02332   0.00000  Uiso   1.00
C308   C     0.53049   0.47266   0.45511   0.00000  Uiso   1.00
C309   C     0.46951   0.52734   0.04489   0.00000  Uiso   1.00
C310   C     0.44173   0.55243   0.47254   0.00000  Uiso   1.00
C311   C     0.44156   0.55445   0.01932   0.00000  Uiso   1.00
C312   C     0.55827   0.44756   0.02746   0.00000  Uiso   1.00
C313   C     0.55844   0.44554   0.48068   0.00000  Uiso   1.00
C314   C     0.35439   0.48026   0.21417   0.00000  Uiso   1.00
C315   C     0.64561   0.51973   0.28583   0.00000  Uiso   1.00
C316   C     0.64416   0.48143   0.21268   0.00000  Uiso   1.00
C317   C     0.35584   0.51857   0.28732   0.00000  Uiso   1.00
C318   C     0.62392   0.50075   0.24902   0.00000  Uiso   1.00
H319   H     0.45455   0.54868   0.38517   0.00000  Uiso   1.00
H320   H     0.64220   0.55014   0.34375   0.00000  Uiso   1.00
H321   H     0.59392   0.47641   0.17354   0.00000  Uiso   1.00
H322   H     0.40608   0.52360   0.32646   0.00000  Uiso   1.00
H323   H     0.55222   0.40889   0.30465   0.00000  Uiso   1.00
H324   H     0.44778   0.59111   0.19535   0.00000  Uiso   1.00
H325   H     0.44807   0.40839   0.19510   0.00000  Uiso   1.00
H326   H     0.55193   0.59161   0.30490   0.00000  Uiso   1.00
H327   H     0.54545   0.45132   0.11483   0.00000  Uiso   1.00
H328   H     0.57043   0.46743   0.35920   0.00000  Uiso   1.00
H329   H     0.42957   0.53257   0.14080   0.00000  Uiso   1.00
H330   H     0.39977   0.55603   0.42470   0.00000  Uiso   1.00
H331   H     0.60023   0.44397   0.07529   0.00000  Uiso   1.00
H332   H     0.39836   0.60115   0.01902   0.00000  Uiso   1.00
H333   H     0.60163   0.39884   0.48098   0.00000  Uiso   1.00
H334   H     0.35780   0.44979   0.15629   0.00000  Uiso   1.00
N335   N     0.50000   0.61907   0.25000   0.00000  Uiso   1.00
N336   N     0.50000   0.38093   0.25000   0.00000  Uiso   1.00
O337   O     0.43892   0.53821   0.25000   0.00000  Uiso   1.00
O338   O     0.43661   0.54861   0.11313   0.00000  Uiso   1.00
O339   O     0.41177   0.57609   0.44824   0.00000  Uiso   1.00
O340   O     0.58823   0.42391   0.05176   0.00000  Uiso   1.00
O341   O     0.41383   0.58199   0.04074   0.00000  Uiso   1.00
O342   O     0.58617   0.41801   0.45926   0.00000  Uiso   1.00
O343   O     0.37700   0.46248   0.17972   0.00000  Uiso   1.00
O344   O     0.62300   0.53751   0.32029   0.00000  Uiso   1.00
O345   O     0.62266   0.46428   0.17548   0.00000  Uiso   1.00
O346   O     0.37734   0.53572   0.32452   0.00000  Uiso   1.00
O347   O     0.54794   0.37787   0.31373   0.00000  Uiso   1.00
O348   O     0.56108   0.46179   0.25001   0.00000  Uiso   1.00
O349   O     0.45206   0.62213   0.18627   0.00000  Uiso   1.00
O350   O     0.45207   0.37725   0.18626   0.00000  Uiso   1.00
O351   O     0.54793   0.62275   0.31374   0.00000  Uiso   1.00
O352   O     0.56108   0.53821   0.25001   0.00000  Uiso   1.00
O353   O     0.43892   0.46179   0.25000   0.00000  Uiso   1.00
O354   O     0.49999   0.53823   0.18393   0.00000  Uiso   1.00
O355   O     0.50001   0.46177   0.31608   0.00000  Uiso   1.00
O356   O     0.50001   0.53823   0.31608   0.00000  Uiso   1.00
O357   O     0.49999   0.46177   0.18393   0.00000  Uiso   1.00
O358   O     0.56339   0.45139   0.38687   0.00000  Uiso   1.00
Zn359  Zn    0.50000   0.55104   0.25000   0.00000  Uiso   1.00
Zn360  Zn    0.50000   0.44896   0.25000   0.00000  Uiso   1.00
C361   C     0.75362   0.49983   0.25018   0.00000  Uiso   1.00
C362   C     0.70941   0.49925   0.25098   0.00000  Uiso   1.00
C363   C     0.85655   0.35711   0.28136   0.00000  Uiso   1.00
C364   C     0.81012   0.64289   0.21864   0.00000  Uiso   1.00
C365   C     0.81012   0.35681   0.21863   0.00000  Uiso   1.00
C366   C     0.85655   0.64319   0.28137   0.00000  Uiso   1.00
C367   C     0.83224   0.49991   0.16365   0.00000  Uiso   1.00
C368   C     0.83443   0.50009   0.33635   0.00000  Uiso   1.00
C369   C     0.86560   0.47421   0.40827   0.00000  Uiso   1.00
C370   C     0.80106   0.52579   0.09173   0.00000  Uiso   1.00
C371   C     0.83648   0.50055   0.38421   0.00000  Uiso   1.00
C372   C     0.91305   0.50017   0.24982   0.00000  Uiso   1.00
C373   C     0.83018   0.49945   0.11579   0.00000  Uiso   1.00
C374   C     0.80803   0.52726   0.40540   0.00000  Uiso   1.00
C375   C     0.85864   0.47274   0.09460   0.00000  Uiso   1.00
C376   C     0.80538   0.52641   0.45147   0.00000  Uiso   1.00
C377   C     0.86128   0.47359   0.04854   0.00000  Uiso   1.00
C378   C     0.83397   0.49975   0.47668   0.00000  Uiso   1.00
C379   C     0.83269   0.50025   0.02332   0.00000  Uiso   1.00
C380   C     0.86382   0.47266   0.45511   0.00000  Uiso   1.00
C381   C     0.80284   0.52734   0.04489   0.00000  Uiso   1.00
C382   C     0.77506   0.55243   0.47254   0.00000  Uiso   1.00
C383   C     0.77489   0.55445   0.01932   0.00000  Uiso   1.00
C384   C     0.89160   0.44756   0.02746   0.00000  Uiso   1.00
C385   C     0.89178   0.44554   0.48068   0.00000  Uiso   1.00
C386   C     0.68772   0.48026   0.21417   0.00000  Uiso   1.00
C387   C     0.97895   0.51973   0.28583   0.00000  Uiso   1.00
C388   C     0.97749   0.48143   0.21268   0.00000  Uiso   1.00
C389   C     0.68918   0.51857   0.28732   0.00000  Uiso   1.00
C390   C     0.95725   0.50075   0.24902   0.00000  Uiso   1.00
H391   H     0.78789   0.54868   0.38517   0.00000  Uiso   1.00
H392   H     0.97553   0.55014   0.34375   0.00000  Uiso   1.00
H393   H     0.92726   0.47641   0.17354   0.00000  Uiso   1.00
H394   H     0.73941   0.52360   0.32646   0.00000  Uiso   1.00
H395   H     0.88555   0.40889   0.30465   0.00000  Uiso   1.00
H396   H     0.78111   0.59111   0.19535   0.00000  Uiso   1.00
H397   H     0.78141   0.40839   0.19510   0.00000  Uiso   1.00
H398   H     0.88526   0.59161   0.30490   0.00000  Uiso   1.00
H399   H     0.87878   0.45132   0.11483   0.00000  Uiso   1.00
H400   H     0.90376   0.46743   0.35920   0.00000  Uiso   1.00
H401   H     0.76291   0.53257   0.14080   0.00000  Uiso   1.00
H402   H     0.73310   0.55603   0.42470   0.00000  Uiso   1.00
H403   H     0.93357   0.44397   0.07529   0.00000  Uiso   1.00
H404   H     0.73170   0.60115   0.01902   0.00000  Uiso   1.00
H405   H     0.93496   0.39884   0.48098   0.00000  Uiso   1.00
H406   H     0.69113   0.44979   0.15629   0.00000  Uiso   1.00
N407   N     0.83333   0.61907   0.25000   0.00000  Uiso   1.00
N408   N     0.83333   0.38093   0.25000   0.00000  Uiso   1.00
O409   O     0.77226   0.53821   0.25000   0.00000  Uiso   1.00
O410   O     0.76994   0.54861   0.11313   0.00000  Uiso   1.00
O411   O     0.74510   0.57609   0.44824   0.00000  Uiso   1.00
O412   O     0.92156   0.42391   0.05176   0.00000  Uiso   1.00
O413   O     0.74717   0.58199   0.04074   0.00000  Uiso   1.00
O414   O     0.91950   0.41801   0.45926   0.00000  Uiso   1.00
O415   O     0.71033   0.46248   0.17972   0.00000  Uiso   1.00
O416   O     0.95634   0.53751   0.32029   0.00000  Uiso   1.00
O417   O     0.95599   0.46428   0.17548   0.00000  Uiso   1.00
O418   O     0.71067   0.53572   0.32452   0.00000  Uiso   1.00
O419   O     0.88127   0.37787   0.31373   0.00000  Uiso   1.00
O420   O     0.89441   0.46179   0.25001   0.00000  Uiso   1.00
O421   O     0.78540   0.62213   0.18627   0.00000  Uiso   1.00
O422   O     0.78541   0.37725   0.18626   0.00000  Uiso   1.00
O423   O     0.88126   0.62275   0.31374   0.00000  Uiso   1.00
O424   O     0.89441   0.53821   0.25001   0.00000  Uiso   1.00
O425   O     0.77226   0.46179   0.25000   0.00000  Uiso   1.00
O426   O     0.83333   0.53823   0.18393   0.00000  Uiso   1.00
O427   O     0.83334   0.46177   0.31608   0.00000  Uiso   1.00
O428   O     0.83334   0.53823   0.31608   0.00000  Uiso   1.00
O429   O     0.83333   0.46177   0.18393   0.00000  Uiso   1.00
O430   O     0.89672   0.45139   0.38687   0.00000  Uiso   1.00
Zn431  Zn    0.83333   0.55104   0.25000   0.00000  Uiso   1.00
Zn432  Zn    0.83333   0.44896   0.25000   0.00000  Uiso   1.00
C433   C     0.08695   0.83317   0.25018   0.00000  Uiso   1.00
C434   C     0.04275   0.83259   0.25098   0.00000  Uiso   1.00
C435   C     0.18988   0.69045   0.28136   0.00000  Uiso   1.00
C436   C     0.14345   0.97622   0.21864   0.00000  Uiso   1.00
C437   C     0.14345   0.69015   0.21863   0.00000  Uiso   1.00
C438   C     0.18988   0.97652   0.28137   0.00000  Uiso   1.00
C439   C     0.16557   0.83324   0.16365   0.00000  Uiso   1.00
C440   C     0.16776   0.83343   0.33635   0.00000  Uiso   1.00
C441   C     0.19894   0.80754   0.40827   0.00000  Uiso   1.00
C442   C     0.13440   0.85913   0.09173   0.00000  Uiso   1.00
C443   C     0.16982   0.83388   0.38421   0.00000  Uiso   1.00
C444   C     0.24638   0.83350   0.24982   0.00000  Uiso   1.00
C445   C     0.16352   0.83278   0.11579   0.00000  Uiso   1.00
C446   C     0.14136   0.86060   0.40540   0.00000  Uiso   1.00
C447   C     0.19197   0.80607   0.09460   0.00000  Uiso   1.00
C448   C     0.13872   0.85974   0.45147   0.00000  Uiso   1.00
C449   C     0.19462   0.80693   0.04854   0.00000  Uiso   1.00
C450   C     0.16731   0.83308   0.47668   0.00000  Uiso   1.00
C451   C     0.16603   0.83359   0.02332   0.00000  Uiso   1.00
C452   C     0.19716   0.80599   0.45511   0.00000  Uiso   1.00
C453   C     0.13618   0.86068   0.04489   0.00000  Uiso   1.00
C454   C     0.10839   0.88577   0.47254   0.00000  Uiso   1.00
C455   C     0.10822   0.88779   0.01932   0.00000  Uiso   1.00
C456   C     0.22494   0.78090   0.02746   0.00000  Uiso   1.00
C457   C     0.22511   0.77888   0.48068   0.00000  Uiso   1.00
C458   C     0.02105   0.81359   0.21417   0.00000  Uiso   1.00
C459   C     0.31228   0.85307   0.28583   0.00000  Uiso   1.00
C460   C     0.31082   0.81476   0.21268   0.00000  Uiso   1.00
C461   C     0.02251   0.85190   0.28732   0.00000  Uiso   1.00
C462   C     0.29059   0.83408   0.24902   0.00000  Uiso   1.00
H463   H     0.12122   0.88201   0.38517   0.00000  Uiso   1.00
H464   H     0.30887   0.88347   0.34375   0.00000  Uiso   1.00
H465   H     0.26059   0.80974   0.17354   0.00000  Uiso   1.00
H466   H     0.07275   0.85693   0.32646   0.00000  Uiso   1.00
H467   H     0.21889   0.74223   0.30465   0.00000  Uiso   1.00
H468   H     0.11445   0.92444   0.19535   0.00000  Uiso   1.00
H469   H     0.11474   0.74172   0.19510   0.00000  Uiso   1.00
H470   H     0.21859   0.92495   0.30490   0.00000  Uiso   1.00
H471   H     0.21212   0.78465   0.11483   0.00000  Uiso   1.00
H472   H     0.23709   0.80077   0.35920   0.00000  Uiso   1.00
H473   H     0.09624   0.86590   0.14080   0.00000  Uiso   1.00
H474   H     0.06643   0.88936   0.42470   0.00000  Uiso   1.00
H475   H     0.26690   0.77730   0.07529   0.00000  Uiso   1.00
H476   H     0.06503   0.93448   0.01902   0.00000  Uiso   1.00
H477   H     0.26829   0.73218   0.48098   0.00000  Uiso   1.00
H478   H     0.02447   0.78312   0.15629   0.00000  Uiso   1.00
N479   N     0.16667   0.95240   0.25000   0.00000  Uiso   1.00
N480   N     0.16667   0.71427   0.25000   0.00000  Uiso   1.00
O481   O     0.10559   0.87154   0.25000   0.00000  Uiso   1.00
O482   O     0.10328   0.88194   0.11313   0.00000  Uiso   1.00
O483   O     0.07844   0.90942   0.44824   0.00000  Uiso   1.00
O484   O     0.25490   0.75724   0.05176   0.00000  Uiso   1.00
O485   O     0.08050   0.91532   0.04074   0.00000  Uiso   1.00
O486   O     0.25283   0.75134   0.45926   0.00000  Uiso   1.00
O487   O     0.04366   0.79581   0.17972   0.00000  Uiso   1.00
O488   O     0.28967   0.87084   0.32029   0.00000  Uiso   1.00
O489   O     0.28933   0.79762   0.17548   0.00000  Uiso   1.00
O490   O     0.04401   0.86905   0.32452   0.00000  Uiso   1.00
O491   O     0.21460   0.71120   0.31373   0.00000  Uiso   1.00
O492   O     0.22774   0.79513   0.25001   0.00000  Uiso   1.00
O493   O     0.11873   0.95547   0.18627   0.00000  Uiso   1.00
O494   O     0.11874   0.71059   0.18626   0.00000  Uiso   1.00
O495   O     0.21460   0.95608   0.31374   0.00000  Uiso   1.00
O496   O     0.22774   0.87154   0.25001   0.00000  Uiso   1.00
O497   O     0.10559   0.79513   0.25000   0.00000  Uiso   1.00
O498   O     0.16666   0.87156   0.18393   0.00000  Uiso   1.00
O499   O     0.16667   0.79511   0.31608   0.00000  Uiso   1.00
O500   O     0.16667   0.87156   0.31608   0.00000  Uiso   1.00
O501   O     0.16666   0.79511   0.18393   0.00000  Uiso   1.00
O502   O     0.23006   0.78472   0.38687   0.00000  Uiso   1.00
Zn503  Zn    0.16667   0.88437   0.25000   0.00000  Uiso   1.00
Zn504  Zn    0.16667   0.78229   0.25000   0.00000  Uiso   1.00
C505   C     0.42028   0.83317   0.25018   0.00000  Uiso   1.00
C506   C     0.37608   0.83259   0.25098   0.00000  Uiso   1.00
C507   C     0.52321   0.69045   0.28136   0.00000  Uiso   1.00
C508   C     0.47679   0.97622   0.21864   0.00000  Uiso   1.00
C509   C     0.47679   0.69015   0.21863   0.00000  Uiso   1.00
C510   C     0.52321   0.97652   0.28137   0.00000  Uiso   1.00
C511   C     0.49890   0.83324   0.16365   0.00000  Uiso   1.00
C512   C     0.50110   0.83343   0.33635   0.00000  Uiso   1.00
C513   C     0.53227   0.80754   0.40827   0.00000  Uiso   1.00
C514   C     0.46773   0.85913   0.09173   0.00000  Uiso   1.00
C515   C     0.50315   0.83388   0.38421   0.00000  Uiso   1.00
C516   C     0.57972   0.83350   0.24982   0.00000  Uiso   1.00
C517   C     0.49685   0.83278   0.11579   0.00000  Uiso   1.00
C518   C     0.47470   0.86060   0.40540   0.00000  Uiso   1.00
C519   C     0.52530   0.80607   0.09460   0.00000  Uiso   1.00
C520   C     0.47205   0.85974   0.45147   0.00000  Uiso   1.00
C521   C     0.52795   0.80693   0.04854   0.00000  Uiso   1.00
C522   C     0.50064   0.83308   0.47668   0.00000  Uiso   1.00
C523   C     0.49936   0.83359   0.02332   0.00000  Uiso   1.00
C524   C     0.53049   0.80599   0.45511   0.00000  Uiso   1.00
C525   C     0.46951   0.86068   0.04489   0.00000  Uiso   1.00
C526   C     0.44173   0.88577   0.47254   0.00000  Uiso   1.00
C527   C     0.44156   0.88779   0.01932   0.00000  Uiso   1.00
C528   C     0.55827   0.78090   0.02746   0.00000  Uiso   1.00
C529   C     0.55844   0.77888   0.48068   0.00000  Uiso   1.00
C530   C     0.35439   0.81359   0.21417   0.00000  Uiso   1.00
C531   C     0.64561   0.85307   0.28583   0.00000  Uiso   1.00
C532   C     0.64416   0.81476   0.21268   0.00000  Uiso   1.00
C533   C     0.35584   0.85190   0.28732   0.00000  Uiso   1.00
C534   C     0.62392   0.83408   0.24902   0.00000  Uiso   1.00
H535   H     0.45455   0.88201   0.38517   0.00000  Uiso   1.00
H536   H     0.64220   0.88347   0.34375   0.00000  Uiso   1.00
H537   H     0.59392   0.80974   0.17354   0.00000  Uiso   1.00
H538   H     0.40608   0.85693   0.32646   0.00000  Uiso   1.00
H539   H     0.55222   0.74223   0.30465   0.00000  Uiso   1.00
H540   H     0.44778   0.92444   0.19535   0.00000  Uiso   1.00
H541   H     0.44807   0.74172   0.19510   0.00000  Uiso   1.00
H542   H     0.55193   0.92495   0.30490   0.00000  Uiso   1.00
H543   H     0.54545   0.78465   0.11483   0.00000  Uiso   1.00
H544   H     0.57043   0.80077   0.35920   0.00000  Uiso   1.00
H545   H     0.42957   0.86590   0.14080   0.00000  Uiso   1.00
H546   H     0.39977   0.88936   0.42470   0.00000  Uiso   1.00
H547   H     0.60023   0.77730   0.07529   0.00000  Uiso   1.00
H548   H     0.39836   0.93448   0.01902   0.00000  Uiso   1.00
H549   H     0.60163   0.73218   0.48098   0.00000  Uiso   1.00
H550   H     0.35780   0.78312   0.15629   0.00000  Uiso   1.00
N551   N     0.50000   0.95240   0.25000   0.00000  Uiso   1.00
N552   N     0.50000   0.71427   0.25000   0.00000  Uiso   1.00
O553   O     0.43892   0.87154   0.25000   0.00000  Uiso   1.00
O554   O     0.43661   0.88194   0.11313   0.00000  Uiso   1.00
O555   O     0.41177   0.90942   0.44824   0.00000  Uiso   1.00
O556   O     0.58823   0.75724   0.05176   0.00000  Uiso   1.00
O557   O     0.41383   0.91532   0.04074   0.00000  Uiso   1.00
O558   O     0.58617   0.75134   0.45926   0.00000  Uiso   1.00
O559   O     0.37700   0.79581   0.17972   0.00000  Uiso   1.00
O560   O     0.62300   0.87084   0.32029   0.00000  Uiso   1.00
O561   O     0.62266   0.79762   0.17548   0.00000  Uiso   1.00
O562   O     0.37734   0.86905   0.32452   0.00000  Uiso   1.00
O563   O     0.54794   0.71120   0.31373   0.00000  Uiso   1.00
O564   O     0.56108   0.79513   0.25001   0.00000  Uiso   1.00
O565   O     0.45206   0.95547   0.18627   0.00000  Uiso   1.00
O566   O     0.45207   0.71059   0.18626   0.00000  Uiso   1.00
O567   O     0.54793   0.95608   0.31374   0.00000  Uiso   1.00
O568   O     0.56108   0.87154   0.25001   0.00000  Uiso   1.00
O569   O     0.43892   0.79513   0.25000   0.00000  Uiso   1.00
O570   O     0.49999   0.87156   0.18393   0.00000  Uiso   1.00
O571   O     0.50001   0.79511   0.31608   0.00000  Uiso   1.00
O572   O     0.50001   0.87156   0.31608   0.00000  Uiso   1.00
O573   O     0.49999   0.79511   0.18393   0.00000  Uiso   1.00
O574   O     0.56339   0.78472   0.38687   0.00000  Uiso   1.00
Zn575  Zn    0.50000   0.88437   0.25000   0.00000  Uiso   1.00
Zn576  Zn    0.50000   0.78229   0.25000   0.00000  Uiso   1.00
C577   C     0.75362   0.83317   0.25018   0.00000  Uiso   1.00
C578   C     0.70941   0.83259   0.25098   0.00000  Uiso   1.00
C579   C     0.85655   0.69045   0.28136   0.00000  Uiso   1.00
C580   C     0.81012   0.97622   0.21864   0.00000  Uiso   1.00
C581   C     0.81012   0.69015   0.21863   0.00000  Uiso   1.00
C582   C     0.85655   0.97652   0.28137   0.00000  Uiso   1.00
C583   C     0.83224   0.83324   0.16365   0.00000  Uiso   1.00
C584   C     0.83443   0.83343   0.33635   0.00000  Uiso   1.00
C585   C     0.86560   0.80754   0.40827   0.00000  Uiso   1.00
C586   C     0.80106   0.85913   0.09173   0.00000  Uiso   1.00
C587   C     0.83648   0.83388   0.38421   0.00000  Uiso   1.00
C588   C     0.91305   0.83350   0.24982   0.00000  Uiso   1.00
C589   C     0.83018   0.83278   0.11579   0.00000  Uiso   1.00
C590   C     0.80803   0.86060   0.40540   0.00000  Uiso   1.00
C591   C     0.85864   0.80607   0.09460   0.00000  Uiso   1.00
C592   C     0.80538   0.85974   0.45147   0.00000  Uiso   1.00
C593   C     0.86128   0.80693   0.04854   0.00000  Uiso   1.00
C594   C     0.83397   0.83308   0.47668   0.00000  Uiso   1.00
C595   C     0.83269   0.83359   0.02332   0.00000  Uiso   1.00
C596   C     0.86382   0.80599   0.45511   0.00000  Uiso   1.00
C597   C     0.80284   0.86068   0.04489   0.00000  Uiso   1.00
C598   C     0.77506   0.88577   0.47254   0.00000  Uiso   1.00
C599   C     0.77489   0.88779   0.01932   0.00000  Uiso   1.00
C600   C     0.89160   0.78090   0.02746   0.00000  Uiso   1.00
C601   C     0.89178   0.77888   0.48068   0.00000  Uiso   1.00
C602   C     0.68772   0.81359   0.21417   0.00000  Uiso   1.00
C603   C     0.97895   0.85307   0.28583   0.00000  Uiso   1.00
C604   C     0.97749   0.81476   0.21268   0.00000  Uiso   1.00
C605   C     0.68918   0.85190   0.28732   0.00000  Uiso   1.00
C606   C     0.95725   0.83408   0.24902   0.00000  Uiso   1.00
H607   H     0.78789   0.88201   0.38517   0.00000  Uiso   1.00
H608   H     0.97553   0.88347   0.34375   0.00000  Uiso   1.00
H609   H     0.92726   0.80974   0.17354   0.00000  Uiso   1.00
H610   H     0.73941   0.85693   0.32646   0.00000  Uiso   1.00
H611   H     0.88555   0.74223   0.30465   0.00000  Uiso   1.00
H612   H     0.78111   0.92444   0.19535   0.00000  Uiso   1.00
H613   H     0.78141   0.74172   0.19510   0.00000  Uiso   1.00
H614   H     0.88526   0.92495   0.30490   0.00000  Uiso   1.00
H615   H     0.87878   0.78465   0.11483   0.00000  Uiso   1.00
H616   H     0.90376   0.80077   0.35920   0.00000  Uiso   1.00
H617   H     0.76291   0.86590   0.14080   0.00000  Uiso   1.00
H618   H     0.73310   0.88936   0.42470   0.00000  Uiso   1.00
H619   H     0.93357   0.77730   0.07529   0.00000  Uiso   1.00
H620   H     0.73170   0.93448   0.01902   0.00000  Uiso   1.00
H621   H     0.93496   0.73218   0.48098   0.00000  Uiso   1.00
H622   H     0.69113   0.78312   0.15629   0.00000  Uiso   1.00
N623   N     0.83333   0.95240   0.25000   0.00000  Uiso   1.00
N624   N     0.83333   0.71427   0.25000   0.00000  Uiso   1.00
O625   O     0.77226   0.87154   0.25000   0.00000  Uiso   1.00
O626   O     0.76994   0.88194   0.11313   0.00000  Uiso   1.00
O627   O     0.74510   0.90942   0.44824   0.00000  Uiso   1.00
O628   O     0.92156   0.75724   0.05176   0.00000  Uiso   1.00
O629   O     0.74717   0.91532   0.04074   0.00000  Uiso   1.00
O630   O     0.91950   0.75134   0.45926   0.00000  Uiso   1.00
O631   O     0.71033   0.79581   0.17972   0.00000  Uiso   1.00
O632   O     0.95634   0.87084   0.32029   0.00000  Uiso   1.00
O633   O     0.95599   0.79762   0.17548   0.00000  Uiso   1.00
O634   O     0.71067   0.86905   0.32452   0.00000  Uiso   1.00
O635   O     0.88127   0.71120   0.31373   0.00000  Uiso   1.00
O636   O     0.89441   0.79513   0.25001   0.00000  Uiso   1.00
O637   O     0.78540   0.95547   0.18627   0.00000  Uiso   1.00
O638   O     0.78541   0.71059   0.18626   0.00000  Uiso   1.00
O639   O     0.88126   0.95608   0.31374   0.00000  Uiso   1.00
O640   O     0.89441   0.87154   0.25001   0.00000  Uiso   1.00
O641   O     0.77226   0.79513   0.25000   0.00000  Uiso   1.00
O642   O     0.83333   0.87156   0.18393   0.00000  Uiso   1.00
O643   O     0.83334   0.79511   0.31608   0.00000  Uiso   1.00
O644   O     0.83334   0.87156   0.31608   0.00000  Uiso   1.00
O645   O     0.83333   0.79511   0.18393   0.00000  Uiso   1.00
O646   O     0.89672   0.78472   0.38687   0.00000  Uiso   1.00
Zn647  Zn    0.83333   0.88437   0.25000   0.00000  Uiso   1.00
Zn648  Zn    0.83333   0.78229   0.25000   0.00000  Uiso   1.00
C649   C     0.08695   0.16650   0.75018   0.00000  Uiso   1.00
C650   C     0.04275   0.16592   0.75098   0.00000  Uiso   1.00
C651   C     0.18988   0.02378   0.78136   0.00000  Uiso   1.00
C652   C     0.14345   0.30955   0.71864   0.00000  Uiso   1.00
C653   C     0.14345   0.02348   0.71863   0.00000  Uiso   1.00
C654   C     0.18988   0.30985   0.78137   0.00000  Uiso   1.00
C655   C     0.16557   0.16657   0.66365   0.00000  Uiso   1.00
C656   C     0.16776   0.16676   0.83635   0.00000  Uiso   1.00
C657   C     0.19894   0.14087   0.90827   0.00000  Uiso   1.00
C658   C     0.13440   0.19246   0.59173   0.00000  Uiso   1.00
C659   C     0.16982   0.16722   0.88421   0.00000  Uiso   1.00
C660   C     0.24638   0.16683   0.74982   0.00000  Uiso   1.00
C661   C     0.16352   0.16612   0.61579   0.00000  Uiso   1.00
C662   C     0.14136   0.19393   0.90540   0.00000  Uiso   1.00
C663   C     0.19197   0.13940   0.59460   0.00000  Uiso   1.00
C664   C     0.13872   0.19307   0.95147   0.00000  Uiso   1.00
C665   C     0.19462   0.14026   0.54854   0.00000  Uiso   1.00
C666   C     0.16731   0.16641   0.97668   0.00000  Uiso   1.00
C667   C     0.16603   0.16692   0.52332   0.00000  Uiso   1.00
C668   C     0.19716   0.13932   0.95511   0.00000  Uiso   1.00
C669   C     0.13618   0.19401   0.54489   0.00000  Uiso   1.00
C670   C     0.10839   0.21910   0.97254   0.00000  Uiso   1.00
C671   C     0.10822   0.22112   0.51932   0.00000  Uiso   1.00
C672   C     0.22494   0.11423   0.52746   0.00000  Uiso   1.00
C673   C     0.22511   0.11221   0.98068   0.00000  Uiso   1.00
C674   C     0.02105   0.14693   0.71417   0.00000  Uiso   1.00
C675   C     0.31228   0.18640   0.78583   0.00000  Uiso   1.00
C676   C     0.31082   0.14810   0.71268   0.00000  Uiso   1.00
C677   C     0.02251   0.18523   0.78732   0.00000  Uiso   1.00
C678   C     0.29059   0.16741   0.74902   0.00000  Uiso   1.00
H679   H     0.12122   0.21535   0.88517   0.00000  Uiso   1.00
H680   H     0.30887   0.21680   0.84375   0.00000  Uiso   1.00
H681   H     0.26059   0.14308   0.67354   0.00000  Uiso   1.00
H682   H     0.07275   0.19027   0.82646   0.00000  Uiso   1.00
H683   H     0.21889   0.07556   0.80465   0.00000  Uiso   1.00
H684   H     0.11445   0.25777   0.69535   0.00000  Uiso   1.00
H685   H     0.11474   0.07505   0.69510   0.00000  Uiso   1.00
H686   H     0.21859   0.25828   0.80490   0.00000  Uiso   1.00
H687   H     0.21212   0.11798   0.61483   0.00000  Uiso   1.00
H688   H     0.23709   0.13410   0.85920   0.00000  Uiso   1.00
H689   H     0.09624   0.19923   0.64080   0.00000  Uiso   1.00
H690   H     0.06643   0.22269   0.92470   0.00000  Uiso   1.00
H691   H     0.26690   0.11064   0.57529   0.00000  Uiso   1.00
H692   H     0.06503   0.26781   0.51902   0.00000  Uiso   1.00
H693   H     0.26829   0.06551   0.98098   0.00000  Uiso   1.00
H694   H     0.02447   0.11645   0.65629   0.00000  Uiso   1.00
N695   N     0.16667   0.28573   0.75000   0.00000  Uiso   1.00
N696   N     0.16667   0.04760   0.75000   0.00000  Uiso   1.00
O697   O     0.10559   0.20487   0.75000   0.00000  Uiso   1.00
O698   O     0.10328   0.21528   0.61313   0.00000  Uiso   1.00
O699   O     0.07844   0.24276   0.94824   0.00000  Uiso   1.00
O700   O     0.25490   0.09058   0.55176   0.00000  Uiso   1.00
O701   O     0.08050   0.24865   0.54074   0.00000  Uiso   1.00
O702   O     0.25283   0.08468   0.95926   0.00000  Uiso   1.00
O703   O     0.04366   0.12915   0.67972   0.00000  Uiso   1.00
O704   O     0.28967   0.20418   0.82029   0.00000  Uiso   1.00
O705   O     0.28933   0.13095   0.67548   0.00000  Uiso   1.00
O706   O     0.04401   0.20239   0.82452   0.00000  Uiso   1.00
O707   O     0.21460   0.04453   0.81373   0.00000  Uiso   1.00
O708   O     0.22774   0.12846   0.75001   0.00000  Uiso   1.00
O709   O     0.11873   0.28880   0.68627   0.00000  Uiso   1.00
O710   O     0.11874   0.04392   0.68626   0.00000  Uiso   1.00
O711   O     0.21460   0.28941   0.81374   0.00000  Uiso   1.00
O712   O     0.22774   0.20487   0.75001   0.00000  Uiso   1.00
O713   O     0.10559   0.12846   0.75000   0.00000  Uiso   1.00
O714   O     0.16666   0.20489   0.68393   0.00000  Uiso   1.00
O715   O     0.16667   0.12844   0.81608   0.00000  Uiso   1.00
O716   O     0.16667   0.20489   0.81608   0.00000  Uiso   1.00
O717   O     0.16666   0.12844   0.68393   0.00000  Uiso   1.00
O718   O     0.23006   0.11805   0.88687   0.00000  Uiso   1.00
Zn719  Zn    0.16667   0.21771   0.75000   0.00000  Uiso   1.00
Zn720  Zn    0.16667   0.11563   0.75000   0.00000  Uiso   1.00
C721   C     0.42028   0.16650   0.75018   0.00000  Uiso   1.00
C722   C     0.37608   0.16592   0.75098   0.00000  Uiso   1.00
C723   C     0.52321   0.02378   0.78136   0.00000  Uiso   1.00
C724   C     0.47679   0.30955   0.71864   0.00000  Uiso   1.00
C725   C     0.47679   0.02348   0.71863   0.00000  Uiso   1.00
C726   C     0.52321   0.30985   0.78137   0.00000  Uiso   1.00
C727   C     0.49890   0.16657   0.66365   0.00000  Uiso   1.00
C728   C     0.50110   0.16676   0.83635   0.00000  Uiso   1.00
C729   C     0.53227   0.14087   0.90827   0.00000  Uiso   1.00
C730   C     0.46773   0.19246   0.59173   0.00000  Uiso   1.00
C731   C     0.50315   0.16722   0.88421   0.00000  Uiso   1.00
C732   C     0.57972   0.16683   0.74982   0.00000  Uiso   1.00
C733   C     0.49685   0.16612   0.61579   0.00000  Uiso   1.00
C734   C     0.47470   0.19393   0.90540   0.00000  Uiso   1.00
C735   C     0.52530   0.13940   0.59460   0.00000  Uiso   1.00
C736   C     0.47205   0.19307   0.95147   0.00000  Uiso   1.00
C737   C     0.52795   0.14026   0.54854   0.00000  Uiso   1.00
C738   C     0.50064   0.16641   0.97668   0.00000  Uiso   1.00
C739   C     0.49936   0.16692   0.52332   0.00000  Uiso   1.00
C740   C     0.53049   0.13932   0.95511   0.00000  Uiso   1.00
C741   C     0.46951   0.19401   0.54489   0.00000  Uiso   1.00
C742   C     0.44173   0.21910   0.97254   0.00000  Uiso   1.00
C743   C     0.44156   0.22112   0.51932   0.00000  Uiso   1.00
C744   C     0.55827   0.11423   0.52746   0.00000  Uiso   1.00
C745   C     0.55844   0.11221   0.98068   0.00000  Uiso   1.00
C746   C     0.35439   0.14693   0.71417   0.00000  Uiso   1.00
C747   C     0.64561   0.18640   0.78583   0.00000  Uiso   1.00
C748   C     0.64416   0.14810   0.71268   0.00000  Uiso   1.00
C749   C     0.35584   0.18523   0.78732   0.00000  Uiso   1.00
C750   C     0.62392   0.16741   0.74902   0.00000  Uiso   1.00
H751   H     0.45455   0.21535   0.88517   0.00000  Uiso   1.00
H752   H     0.64220   0.21680   0.84375   0.00000  Uiso   1.00
H753   H     0.59392   0.14308   0.67354   0.00000  Uiso   1.00
H754   H     0.40608   0.19027   0.82646   0.00000  Uiso   1.00
H755   H     0.55222   0.07556   0.80465   0.00000  Uiso   1.00
H756   H     0.44778   0.25777   0.69535   0.00000  Uiso   1.00
H757   H     0.44807   0.07505   0.69510   0.00000  Uiso   1.00
H758   H     0.55193   0.25828   0.80490   0.00000  Uiso   1.00
H759   H     0.54545   0.11798   0.61483   0.00000  Uiso   1.00
H760   H     0.57043   0.13410   0.85920   0.00000  Uiso   1.00
H761   H     0.42957   0.19923   0.64080   0.00000  Uiso   1.00
H762   H     0.39977   0.22269   0.92470   0.00000  Uiso   1.00
H763   H     0.60023   0.11064   0.57529   0.00000  Uiso   1.00
H764   H     0.39836   0.26781   0.51902   0.00000  Uiso   1.00
H765   H     0.60163   0.06551   0.98098   0.00000  Uiso   1.00
H766   H     0.35780   0.11645   0.65629   0.00000  Uiso   1.00
N767   N     0.50000   0.28573   0.75000   0.00000  Uiso   1.00
N768   N     0.50000   0.04760   0.75000   0.00000  Uiso   1.00
O769   O     0.43892   0.20487   0.75000   0.00000  Uiso   1.00
O770   O     0.43661   0.21528   0.61313   0.00000  Uiso   1.00
O771   O     0.41177   0.24276   0.94824   0.00000  Uiso   1.00
O772   O     0.58823   0.09058   0.55176   0.00000  Uiso   1.00
O773   O     0.41383   0.24865   0.54074   0.00000  Uiso   1.00
O774   O     0.58617   0.08468   0.95926   0.00000  Uiso   1.00
O775   O     0.37700   0.12915   0.67972   0.00000  Uiso   1.00
O776   O     0.62300   0.20418   0.82029   0.00000  Uiso   1.00
O777   O     0.62266   0.13095   0.67548   0.00000  Uiso   1.00
O778   O     0.37734   0.20239   0.82452   0.00000  Uiso   1.00
O779   O     0.54794   0.04453   0.81373   0.00000  Uiso   1.00
O780   O     0.56108   0.12846   0.75001   0.00000  Uiso   1.00
O781   O     0.45206   0.28880   0.68627   0.00000  Uiso   1.00
O782   O     0.45207   0.04392   0.68626   0.00000  Uiso   1.00
O783   O     0.54793   0.28941   0.81374   0.00000  Uiso   1.00
O784   O     0.56108   0.20487   0.75001   0.00000  Uiso   1.00
O785   O     0.43892   0.12846   0.75000   0.00000  Uiso   1.00
O786   O     0.49999   0.20489   0.68393   0.00000  Uiso   1.00
O787   O     0.50001   0.12844   0.81608   0.00000  Uiso   1.00
O788   O     0.50001   0.20489   0.81608   0.00000  Uiso   1.00
O789   O     0.49999   0.12844   0.68393   0.00000  Uiso   1.00
O790   O     0.56339   0.11805   0.88687   0.00000  Uiso   1.00
Zn791  Zn    0.50000   0.21771   0.75000   0.00000  Uiso   1.00
Zn792  Zn    0.50000   0.11563   0.75000   0.00000  Uiso   1.00
C793   C     0.75362   0.16650   0.75018   0.00000  Uiso   1.00
C794   C     0.70941   0.16592   0.75098   0.00000  Uiso   1.00
C795   C     0.85655   0.02378   0.78136   0.00000  Uiso   1.00
C796   C     0.81012   0.30955   0.71864   0.00000  Uiso   1.00
C797   C     0.81012   0.02348   0.71863   0.00000  Uiso   1.00
C798   C     0.85655   0.30985   0.78137   0.00000  Uiso   1.00
C799   C     0.83224   0.16657   0.66365   0.00000  Uiso   1.00
C800   C     0.83443   0.16676   0.83635   0.00000  Uiso   1.00
C801   C     0.86560   0.14087   0.90827   0.00000  Uiso   1.00
C802   C     0.80106   0.19246   0.59173   0.00000  Uiso   1.00
C803   C     0.83648   0.16722   0.88421   0.00000  Uiso   1.00
C804   C     0.91305   0.16683   0.74982   0.00000  Uiso   1.00
C805   C     0.83018   0.16612   0.61579   0.00000  Uiso   1.00
C806   C     0.80803   0.19393   0.90540   0.00000  Uiso   1.00
C807   C     0.85864   0.13940   0.59460   0.00000  Uiso   1.00
C808   C     0.80538   0.19307   0.95147   0.00000  Uiso   1.00
C809   C     0.86128   0.14026   0.54854   0.00000  Uiso   1.00
C810   C     0.83397   0.16641   0.97668   0.00000  Uiso   1.00
C811   C     0.83269   0.16692   0.52332   0.00000  Uiso   1.00
C812   C     0.86382   0.13932   0.95511   0.00000  Uiso   1.00
C813   C     0.80284   0.19401   0.54489   0.00000  Uiso   1.00
C814   C     0.77506   0.21910   0.97254   0.00000  Uiso   1.00
C815   C     0.77489   0.22112   0.51932   0.00000  Uiso   1.00
C816   C     0.89160   0.11423   0.52746   0.00000  Uiso   1.00
C817   C     0.89178   0.11221   0.98068   0.00000  Uiso   1.00
C818   C     0.68772   0.14693   0.71417   0.00000  Uiso   1.00
C819   C     0.97895   0.18640   0.78583   0.00000  Uiso   1.00
C820   C     0.97749   0.14810   0.71268   0.00000  Uiso   1.00
C821   C     0.68918   0.18523   0.78732   0.00000  Uiso   1.00
C822   C     0.95725   0.16741   0.74902   0.00000  Uiso   1.00
H823   H     0.78789   0.21535   0.88517   0.00000  Uiso   1.00
H824   H     0.97553   0.21680   0.84375   0.00000  Uiso   1.00
H825   H     0.92726   0.14308   0.67354   0.00000  Uiso   1.00
H826   H     0.73941   0.19027   0.82646   0.00000  Uiso   1.00
H827   H     0.88555   0.07556   0.80465   0.00000  Uiso   1.00
H828   H     0.78111   0.25777   0.69535   0.00000  Uiso   1.00
H829   H     0.78141   0.07505   0.69510   0.00000  Uiso   1.00
H830   H     0.88526   0.25828   0.80490   0.00000  Uiso   1.00
H831   H     0.87878   0.11798   0.61483   0.00000  Uiso   1.00
H832   H     0.90376   0.13410   0.85920   0.00000  Uiso   1.00
H833   H     0.76291   0.19923   0.64080   0.00000  Uiso   1.00
H834   H     0.73310   0.22269   0.92470   0.00000  Uiso   1.00
H835   H     0.93357   0.11064   0.57529   0.00000  Uiso   1.00
H836   H     0.73170   0.26781   0.51902   0.00000  Uiso   1.00
H837   H     0.93496   0.06551   0.98098   0.00000  Uiso   1.00
H838   H     0.69113   0.11645   0.65629   0.00000  Uiso   1.00
N839   N     0.83333   0.28573   0.75000   0.00000  Uiso   1.00
N840   N     0.83333   0.04760   0.75000   0.00000  Uiso   1.00
O841   O     0.77226   0.20487   0.75000   0.00000  Uiso   1.00
O842   O     0.76994   0.21528   0.61313   0.00000  Uiso   1.00
O843   O     0.74510   0.24276   0.94824   0.00000  Uiso   1.00
O844   O     0.92156   0.09058   0.55176   0.00000  Uiso   1.00
O845   O     0.74717   0.24865   0.54074   0.00000  Uiso   1.00
O846   O     0.91950   0.08468   0.95926   0.00000  Uiso   1.00
O847   O     0.71033   0.12915   0.67972   0.00000  Uiso   1.00
O848   O     0.95634   0.20418   0.82029   0.00000  Uiso   1.00
O849   O     0.95599   0.13095   0.67548   0.00000  Uiso   1.00
O850   O     0.71067   0.20239   0.82452   0.00000  Uiso   1.00
O851   O     0.88127   0.04453   0.81373   0.00000  Uiso   1.00
O852   O     0.89441   0.12846   0.75001   0.00000  Uiso   1.00
O853   O     0.78540   0.28880   0.68627   0.00000  Uiso   1.00
O854   O     0.78541   0.04392   0.68626   0.00000  Uiso   1.00
O855   O     0.88126   0.28941   0.81374   0.00000  Uiso   1.00
O856   O     0.89441   0.20487   0.75001   0.00000  Uiso   1.00
O857   O     0.77226   0.12846   0.75000   0.00000  Uiso   1.00
O858   O     0.83333   0.20489   0.68393   0.00000  Uiso   1.00
O859   O     0.83334   0.12844   0.81608   0.00000  Uiso   1.00
O860   O     0.83334   0.20489   0.81608   0.00000  Uiso   1.00
O861   O     0.83333   0.12844   0.68393   0.00000  Uiso   1.00
O862   O     0.89672   0.11805   0.88687   0.00000  Uiso   1.00
Zn863  Zn    0.83333   0.21771   0.75000   0.00000  Uiso   1.00
Zn864  Zn    0.83333   0.11563   0.75000   0.00000  Uiso   1.00
C865   C     0.08695   0.49983   0.75018   0.00000  Uiso   1.00
C866   C     0.04275   0.49925   0.75098   0.00000  Uiso   1.00
C867   C     0.18988   0.35711   0.78136   0.00000  Uiso   1.00
C868   C     0.14345   0.64289   0.71864   0.00000  Uiso   1.00
C869   C     0.14345   0.35681   0.71863   0.00000  Uiso   1.00
C870   C     0.18988   0.64319   0.78137   0.00000  Uiso   1.00
C871   C     0.16557   0.49991   0.66365   0.00000  Uiso   1.00
C872   C     0.16776   0.50009   0.83635   0.00000  Uiso   1.00
C873   C     0.19894   0.47421   0.90827   0.00000  Uiso   1.00
C874   C     0.13440   0.52579   0.59173   0.00000  Uiso   1.00
C875   C     0.16982   0.50055   0.88421   0.00000  Uiso   1.00
C876   C     0.24638   0.50017   0.74982   0.00000  Uiso   1.00
C877   C     0.16352   0.49945   0.61579   0.00000  Uiso   1.00
C878   C     0.14136   0.52726   0.90540   0.00000  Uiso   1.00
C879   C     0.19197   0.47274   0.59460   0.00000  Uiso   1.00
C880   C     0.13872   0.52641   0.95147   0.00000  Uiso   1.00
C881   C     0.19462   0.47359   0.54854   0.00000  Uiso   1.00
C882   C     0.16731   0.49975   0.97668   0.00000  Uiso   1.00
C883   C     0.16603   0.50025   0.52332   0.00000  Uiso   1.00
C884   C     0.19716   0.47266   0.95511   0.00000  Uiso   1.00
C885   C     0.13618   0.52734   0.54489   0.00000  Uiso   1.00
C886   C     0.10839   0.55243   0.97254   0.00000  Uiso   1.00
C887   C     0.10822   0.55445   0.51932   0.00000  Uiso   1.00
C888   C     0.22494   0.44756   0.52746   0.00000  Uiso   1.00
C889   C     0.22511   0.44554   0.98068   0.00000  Uiso   1.00
C890   C     0.02105   0.48026   0.71417   0.00000  Uiso   1.00
C891   C     0.31228   0.51973   0.78583   0.00000  Uiso   1.00
C892   C     0.31082   0.48143   0.71268   0.00000  Uiso   1.00
C893   C     0.02251   0.51857   0.78732   0.00000  Uiso   1.00
C894   C     0.29059   0.50075   0.74902   0.00000  Uiso   1.00
H895   H     0.12122   0.54868   0.88517   0.00000  Uiso   1.00
H896   H     0.30887   0.55014   0.84375   0.00000  Uiso   1.00
H897   H     0.26059   0.47641   0.67354   0.00000  Uiso   1.00
H898   H     0.07275   0.52360   0.82646   0.00000  Uiso   1.00
H899   H     0.21889   0.40889   0.80465   0.00000  Uiso   1.00
H900   H     0.11445   0.59111   0.69535   0.00000  Uiso   1.00
H901   H     0.11474   0.40839   0.69510   0.00000  Uiso   1.00
H902   H     0.21859   0.59161   0.80490   0.00000  Uiso   1.00
H903   H     0.21212   0.45132   0.61483   0.00000  Uiso   1.00
H904   H     0.23709   0.46743   0.85920   0.00000  Uiso   1.00
H905   H     0.09624   0.53257   0.64080   0.00000  Uiso   1.00
H906   H     0.06643   0.55603   0.92470   0.00000  Uiso   1.00
H907   H     0.26690   0.44397   0.57529   0.00000  Uiso   1.00
H908   H     0.06503   0.60115   0.51902   0.00000  Uiso   1.00
H909   H     0.26829   0.39884   0.98098   0.00000  Uiso   1.00
H910   H     0.02447   0.44979   0.65629   0.00000  Uiso   1.00
N911   N     0.16667   0.61907   0.75000   0.00000  Uiso   1.00
N912   N     0.16667   0.38093   0.75000   0.00000  Uiso   1.00
O913   O     0.10559   0.53821   0.75000   0.00000  Uiso   1.00
O914   O     0.10328   0.54861   0.61313   0.00000  Uiso   1.00
O915   O     0.07844   0.57609   0.94824   0.00000  Uiso   1.00
O916   O     0.25490   0.42391   0.55176   0.00000  Uiso   1.00
O917   O     0.08050   0.58199   0.54074   0.00000  Uiso   1.00
O918   O     0.25283   0.41801   0.95926   0.00000  Uiso   1.00
O919   O     0.04366   0.46248   0.67972   0.00000  Uiso   1.00
O920   O     0.28967   0.53751   0.82029   0.00000  Uiso   1.00
O921   O     0.28933   0.46428   0.67548   0.00000  Uiso   1.00
O922   O     0.04401   0.53572   0.82452   0.00000  Uiso   1.00
O923   O     0.21460   0.37787   0.81373   0.00000  Uiso   1.00
O924   O     0.22774   0.46179   0.75001   0.00000  Uiso   1.00
O925   O     0.11873   0.62213   0.68627   0.00000  Uiso   1.00
O926   O     0.11874   0.37725   0.68626   0.00000  Uiso   1.00
O927   O     0.21460   0.62275   0.81374   0.00000  Uiso   1.00
O928   O     0.22774   0.53821   0.75001   0.00000  Uiso   1.00
O929   O     0.10559   0.46179   0.75000   0.00000  Uiso   1.00
O930   O     0.16666   0.53823   0.68393   0.00000  Uiso   1.00
O931   O     0.16667   0.46177   0.81608   0.00000  Uiso   1.00
O932   O     0.16667   0.53823   0.81608   0.00000  Uiso   1.00
O933   O     0.16666   0.46177   0.68393   0.00000  Uiso   1.00
O934   O     0.23006   0.45139   0.88687   0.00000  Uiso   1.00
Zn935  Zn    0.16667   0.55104   0.75000   0.00000  Uiso   1.00
Zn936  Zn    0.16667   0.44896   0.75000   0.00000  Uiso   1.00
C937   C     0.42028   0.49983   0.75018   0.00000  Uiso   1.00
C938   C     0.37608   0.49925   0.75098   0.00000  Uiso   1.00
C939   C     0.52321   0.35711   0.78136   0.00000  Uiso   1.00
C940   C     0.47679   0.64289   0.71864   0.00000  Uiso   1.00
C941   C     0.47679   0.35681   0.71863   0.00000  Uiso   1.00
C942   C     0.52321   0.64319   0.78137   0.00000  Uiso   1.00
C943   C     0.49890   0.49991   0.66365   0.00000  Uiso   1.00
C944   C     0.50110   0.50009   0.83635   0.00000  Uiso   1.00
C945   C     0.53227   0.47421   0.90827   0.00000  Uiso   1.00
C946   C     0.46773   0.52579   0.59173   0.00000  Uiso   1.00
C947   C     0.50315   0.50055   0.88421   0.00000  Uiso   1.00
C948   C     0.57972   0.50017   0.74982   0.00000  Uiso   1.00
C949   C     0.49685   0.49945   0.61579   0.00000  Uiso   1.00
C950   C     0.47470   0.52726   0.90540   0.00000  Uiso   1.00
C951   C     0.52530   0.47274   0.59460   0.00000  Uiso   1.00
C952   C     0.47205   0.52641   0.95147   0.00000  Uiso   1.00
C953   C     0.52795   0.47359   0.54854   0.00000  Uiso   1.00
C954   C     0.50064   0.49975   0.97668   0.00000  Uiso   1.00
C955   C     0.49936   0.50025   0.52332   0.00000  Uiso   1.00
C956   C     0.53049   0.47266   0.95511   0.00000  Uiso   1.00
C957   C     0.46951   0.52734   0.54489   0.00000  Uiso   1.00
C958   C     0.44173   0.55243   0.97254   0.00000  Uiso   1.00
C959   C     0.44156   0.55445   0.51932   0.00000  Uiso   1.00
C960   C     0.55827   0.44756   0.52746   0.00000  Uiso   1.00
C961   C     0.55844   0.44554   0.98068   0.00000  Uiso   1.00
C962   C     0.35439   0.48026   0.71417   0.00000  Uiso   1.00
C963   C     0.64561   0.51973   0.78583   0.00000  Uiso   1.00
C964   C     0.64416   0.48143   0.71268   0.00000  Uiso   1.00
C965   C     0.35584   0.51857   0.78732   0.00000  Uiso   1.00
C966   C     0.62392   0.50075   0.74902   0.00000  Uiso   1.00
H967   H     0.45455   0.54868   0.88517   0.00000  Uiso   1.00
H968   H     0.64220   0.55014   0.84375   0.00000  Uiso   1.00
H969   H     0.59392   0.47641   0.67354   0.00000  Uiso   1.00
H970   H     0.40608   0.52360   0.82646   0.00000  Uiso   1.00
H971   H     0.55222   0.40889   0.80465   0.00000  Uiso   1.00
H972   H     0.44778   0.59111   0.69535   0.00000  Uiso   1.00
H973   H     0.44807   0.40839   0.69510   0.00000  Uiso   1.00
H974   H     0.55193   0.59161   0.80490   0.00000  Uiso   1.00
H975   H     0.54545   0.45132   0.61483   0.00000  Uiso   1.00
H976   H     0.57043   0.46743   0.85920   0.00000  Uiso   1.00
H977   H     0.42957   0.53257   0.64080   0.00000  Uiso   1.00
H978   H     0.39977   0.55603   0.92470   0.00000  Uiso   1.00
H979   H     0.60023   0.44397   0.57529   0.00000  Uiso   1.00
H980   H     0.39836   0.60115   0.51902   0.00000  Uiso   1.00
H981   H     0.60163   0.39884   0.98098   0.00000  Uiso   1.00
H982   H     0.35780   0.44979   0.65629   0.00000  Uiso   1.00
N983   N     0.50000   0.61907   0.75000   0.00000  Uiso   1.00
N984   N     0.50000   0.38093   0.75000   0.00000  Uiso   1.00
O985   O     0.43892   0.53821   0.75000   0.00000  Uiso   1.00
O986   O     0.43661   0.54861   0.61313   0.00000  Uiso   1.00
O987   O     0.41177   0.57609   0.94824   0.00000  Uiso   1.00
O988   O     0.58823   0.42391   0.55176   0.00000  Uiso   1.00
O989   O     0.41383   0.58199   0.54074   0.00000  Uiso   1.00
O990   O     0.58617   0.41801   0.95926   0.00000  Uiso   1.00
O991   O     0.37700   0.46248   0.67972   0.00000  Uiso   1.00
O992   O     0.62300   0.53751   0.82029   0.00000  Uiso   1.00
O993   O     0.62266   0.46428   0.67548   0.00000  Uiso   1.00
O994   O     0.37734   0.53572   0.82452   0.00000  Uiso   1.00
O995   O     0.54794   0.37787   0.81373   0.00000  Uiso   1.00
O996   O     0.56108   0.46179   0.75001   0.00000  Uiso   1.00
O997   O     0.45206   0.62213   0.68627   0.00000  Uiso   1.00
O998   O     0.45207   0.37725   0.68626   0.00000  Uiso   1.00
O999   O     0.54793   0.62275   0.81374   0.00000  Uiso   1.00
O1000  O     0.56108   0.53821   0.75001   0.00000  Uiso   1.00
O1001  O     0.43892   0.46179   0.75000   0.00000  Uiso   1.00
O1002  O     0.49999   0.53823   0.68393   0.00000  Uiso   1.00
O1003  O     0.50001   0.46177   0.81608   0.00000  Uiso   1.00
O1004  O     0.50001   0.53823   0.81608   0.00000  Uiso   1.00
O1005  O     0.49999   0.46177   0.68393   0.00000  Uiso   1.00
O1006  O     0.56339   0.45139   0.88687   0.00000  Uiso   1.00
Zn1007 Zn    0.50000   0.55104   0.75000   0.00000  Uiso   1.00
Zn1008 Zn    0.50000   0.44896   0.75000   0.00000  Uiso   1.00
C1009  C     0.75362   0.49983   0.75018   0.00000  Uiso   1.00
C1010  C     0.70941   0.49925   0.75098   0.00000  Uiso   1.00
C1011  C     0.85655   0.35711   0.78136   0.00000  Uiso   1.00
C1012  C     0.81012   0.64289   0.71864   0.00000  Uiso   1.00
C1013  C     0.81012   0.35681   0.71863   0.00000  Uiso   1.00
C1014  C     0.85655   0.64319   0.78137   0.00000  Uiso   1.00
C1015  C     0.83224   0.49991   0.66365   0.00000  Uiso   1.00
C1016  C     0.83443   0.50009   0.83635   0.00000  Uiso   1.00
C1017  C     0.86560   0.47421   0.90827   0.00000  Uiso   1.00
C1018  C     0.80106   0.52579   0.59173   0.00000  Uiso   1.00
C1019  C     0.83648   0.50055   0.88421   0.00000  Uiso   1.00
C1020  C     0.91305   0.50017   0.74982   0.00000  Uiso   1.00
C1021  C     0.83018   0.49945   0.61579   0.00000  Uiso   1.00
C1022  C     0.80803   0.52726   0.90540   0.00000  Uiso   1.00
C1023  C     0.85864   0.47274   0.59460   0.00000  Uiso   1.00
C1024  C     0.80538   0.52641   0.95147   0.00000  Uiso   1.00
C1025  C     0.86128   0.47359   0.54854   0.00000  Uiso   1.00
C1026  C     0.83397   0.49975   0.97668   0.00000  Uiso   1.00
C1027  C     0.83269   0.50025   0.52332   0.00000  Uiso   1.00
C1028  C     0.86382   0.47266   0.95511   0.00000  Uiso   1.00
C1029  C     0.80284   0.52734   0.54489   0.00000  Uiso   1.00
C1030  C     0.77506   0.55243   0.97254   0.00000  Uiso   1.00
C1031  C     0.77489   0.55445   0.51932   0.00000  Uiso   1.00
C1032  C     0.89160   0.44756   0.52746   0.00000  Uiso   1.00
C1033  C     0.89178   0.44554   0.98068   0.00000  Uiso   1.00
C1034  C     0.68772   0.48026   0.71417   0.00000  Uiso   1.00
C1035  C     0.97895   0.51973   0.78583   0.00000  Uiso   1.00
C1036  C     0.97749   0.48143   0.71268   0.00000  Uiso   1.00
C1037  C     0.68918   0.51857   0.78732   0.00000  Uiso   1.00
C1038  C     0.95725   0.50075   0.74902   0.00000  Uiso   1.00
H1039  H     0.78789   0.54868   0.88517   0.00000  Uiso   1.00
H1040  H     0.97553   0.55014   0.84375   0.00000  Uiso   1.00
H1041  H     0.92726   0.47641   0.67354   0.00000  Uiso   1.00
H1042  H     0.73941   0.52360   0.82646   0.00000  Uiso   1.00
H1043  H     0.88555   0.40889   0.80465   0.00000  Uiso   1.00
H1044  H     0.78111   0.59111   0.69535   0.00000  Uiso   1.00
H1045  H     0.78141   0.40839   0.69510   0.00000  Uiso   1.00
H1046  H     0.88526   0.59161   0.80490   0.00000  Uiso   1.00
H1047  H     0.87878   0.45132   0.61483   0.00000  Uiso   1.00
H1048  H     0.90376   0.46743   0.85920   0.00000  Uiso   1.00
H1049  H     0.76291   0.53257   0.64080   0.00000  Uiso   1.00
H1050  H     0.73310   0.55603   0.92470   0.00000  Uiso   1.00
H1051  H     0.93357   0.44397   0.57529   0.00000  Uiso   1.00
H1052  H     0.73170   0.60115   0.51902   0.00000  Uiso   1.00
H1053  H     0.93496   0.39884   0.98098   0.00000  Uiso   1.00
H1054  H     0.69113   0.44979   0.65629   0.00000  Uiso   1.00
N1055  N     0.83333   0.61907   0.75000   0.00000  Uiso   1.00
N1056  N     0.83333   0.38093   0.75000   0.00000  Uiso   1.00
O1057  O     0.77226   0.53821   0.75000   0.00000  Uiso   1.00
O1058  O     0.76994   0.54861   0.61313   0.00000  Uiso   1.00
O1059  O     0.74510   0.57609   0.94824   0.00000  Uiso   1.00
O1060  O     0.92156   0.42391   0.55176   0.00000  Uiso   1.00
O1061  O     0.74717   0.58199   0.54074   0.00000  Uiso   1.00
O1062  O     0.91950   0.41801   0.95926   0.00000  Uiso   1.00
O1063  O     0.71033   0.46248   0.67972   0.00000  Uiso   1.00
O1064  O     0.95634   0.53751   0.82029   0.00000  Uiso   1.00
O1065  O     0.95599   0.46428   0.67548   0.00000  Uiso   1.00
O1066  O     0.71067   0.53572   0.82452   0.00000  Uiso   1.00
O1067  O     0.88127   0.37787   0.81373   0.00000  Uiso   1.00
O1068  O     0.89441   0.46179   0.75001   0.00000  Uiso   1.00
O1069  O     0.78540   0.62213   0.68627   0.00000  Uiso   1.00
O1070  O     0.78541   0.37725   0.68626   0.00000  Uiso   1.00
O1071  O     0.88126   0.62275   0.81374   0.00000  Uiso   1.00
O1072  O     0.89441   0.53821   0.75001   0.00000  Uiso   1.00
O1073  O     0.77226   0.46179   0.75000   0.00000  Uiso   1.00
O1074  O     0.83333   0.53823   0.68393   0.00000  Uiso   1.00
O1075  O     0.83334   0.46177   0.81608   0.00000  Uiso   1.00
O1076  O     0.83334   0.53823   0.81608   0.00000  Uiso   1.00
O1077  O     0.83333   0.46177   0.68393   0.00000  Uiso   1.00
O1078  O     0.89672   0.45139   0.88687   0.00000  Uiso   1.00
Zn1079 Zn    0.83333   0.55104   0.75000   0.00000  Uiso   1.00
Zn1080 Zn    0.83333   0.44896   0.75000   0.00000  Uiso   1.00
C1081  C     0.08695   0.83317   0.75018   0.00000  Uiso   1.00
C1082  C     0.04275   0.83259   0.75098   0.00000  Uiso   1.00
C1083  C     0.18988   0.69045   0.78136   0.00000  Uiso   1.00
C1084  C     0.14345   0.97622   0.71864   0.00000  Uiso   1.00
C1085  C     0.14345   0.69015   0.71863   0.00000  Uiso   1.00
C1086  C     0.18988   0.97652   0.78137   0.00000  Uiso   1.00
C1087  C     0.16557   0.83324   0.66365   0.00000  Uiso   1.00
C1088  C     0.16776   0.83343   0.83635   0.00000  Uiso   1.00
C1089  C     0.19894   0.80754   0.90827   0.00000  Uiso   1.00
C1090  C     0.13440   0.85913   0.59173   0.00000  Uiso   1.00
C1091  C     0.16982   0.83388   0.88421   0.00000  Uiso   1.00
C1092  C     0.24638   0.83350   0.74982   0.00000  Uiso   1.00
C1093  C     0.16352   0.83278   0.61579   0.00000  Uiso   1.00
C1094  C     0.14136   0.86060   0.90540   0.00000  Uiso   1.00
C1095  C     0.19197   0.80607   0.59460   0.00000  Uiso   1.00
C1096  C     0.13872   0.85974   0.95147   0.00000  Uiso   1.00
C1097  C     0.19462   0.80693   0.54854   0.00000  Uiso   1.00
C1098  C     0.16731   0.83308   0.97668   0.00000  Uiso   1.00
C1099  C     0.16603   0.83359   0.52332   0.00000  Uiso   1.00
C1100  C     0.19716   0.80599   0.95511   0.00000  Uiso   1.00
C1101  C     0.13618   0.86068   0.54489   0.00000  Uiso   1.00
C1102  C     0.10839   0.88577   0.97254   0.00000  Uiso   1.00
C1103  C     0.10822   0.88779   0.51932   0.00000  Uiso   1.00
C1104  C     0.22494   0.78090   0.52746   0.00000  Uiso   1.00
C1105  C     0.22511   0.77888   0.98068   0.00000  Uiso   1.00
C1106  C     0.02105   0.81359   0.71417   0.00000  Uiso   1.00
C1107  C     0.31228   0.85307   0.78583   0.00000  Uiso   1.00
C1108  C     0.31082   0.81476   0.71268   0.00000  Uiso   1.00
C1109  C     0.02251   0.85190   0.78732   0.00000  Uiso   1.00
C1110  C     0.29059   0.83408   0.74902   0.00000  Uiso   1.00
H1111  H     0.12122   0.88201   0.88517   0.00000  Uiso   1.00
H1112  H     0.30887   0.88347   0.84375   0.00000  Uiso   1.00
H1113  H     0.26059   0.80974   0.67354   0.00000  Uiso   1.00
H1114  H     0.07275   0.85693   0.82646   0.00000  Uiso   1.00
H1115  H     0.21889   0.74223   0.80465   0.00000  Uiso   1.00
H1116  H     0.11445   0.92444   0.69535   0.00000  Uiso   1.00
H1117  H     0.11474   0.74172   0.69510   0.00000  Uiso   1.00
H1118  H     0.21859   0.92495   0.80490   0.00000  Uiso   1.00
H1119  H     0.21212   0.78465   0.61483   0.00000  Uiso   1.00
H1120  H     0.23709   0.80077   0.85920   0.00000  Uiso   1.00
H1121  H     0.09624   0.86590   0.64080   0.00000  Uiso   1.00
H1122  H     0.06643   0.88936   0.92470   0.00000  Uiso   1.00
H1123  H     0.26690   0.77730   0.57529   0.00000  Uiso   1.00
H1124  H     0.06503   0.93448   0.51902   0.00000  Uiso   1.00
H1125  H     0.26829   0.73218   0.98098   0.00000  Uiso   1.00
H1126  H     0.02447   0.78312   0.65629   0.00000  Uiso   1.00
N1127  N     0.16667   0.95240   0.75000   0.00000  Uiso   1.00
N1128  N     0.16667   0.71427   0.75000   0.00000  Uiso   1.00
O1129  O     0.10559   0.87154   0.75000   0.00000  Uiso   1.00
O1130  O     0.10328   0.88194   0.61313   0.00000  Uiso   1.00
O1131  O     0.07844   0.90942   0.94824   0.00000  Uiso   1.00
O1132  O     0.25490   0.75724   0.55176   0.00000  Uiso   1.00
O1133  O     0.08050   0.91532   0.54074   0.00000  Uiso   1.00
O1134  O     0.25283   0.75134   0.95926   0.00000  Uiso   1.00
O1135  O     0.04366   0.79581   0.67972   0.00000  Uiso   1.00
O1136  O     0.28967   0.87084   0.82029   0.00000  Uiso   1.00
O1137  O     0.28933   0.79762   0.67548   0.00000  Uiso   1.00
O1138  O     0.04401   0.86905   0.82452   0.00000  Uiso   1.00
O1139  O     0.21460   0.71120   0.81373   0.00000  Uiso   1.00
O1140  O     0.22774   0.79513   0.75001   0.00000  Uiso   1.00
O1141  O     0.11873   0.95547   0.68627   0.00000  Uiso   1.00
O1142  O     0.11874   0.71059   0.68626   0.00000  Uiso   1.00
O1143  O     0.21460   0.95608   0.81374   0.00000  Uiso   1.00
O1144  O     0.22774   0.87154   0.75001   0.00000  Uiso   1.00
O1145  O     0.10559   0.79513   0.75000   0.00000  Uiso   1.00
O1146  O     0.16666   0.87156   0.68393   0.00000  Uiso   1.00
O1147  O     0.16667   0.79511   0.81608   0.00000  Uiso   1.00
O1148  O     0.16667   0.87156   0.81608   0.00000  Uiso   1.00
O1149  O     0.16666   0.79511   0.68393   0.00000  Uiso   1.00
O1150  O     0.23006   0.78472   0.88687   0.00000  Uiso   1.00
Zn1151 Zn    0.16667   0.88437   0.75000   0.00000  Uiso   1.00
Zn1152 Zn    0.16667   0.78229   0.75000   0.00000  Uiso   1.00
C1153  C     0.42028   0.83317   0.75018   0.00000  Uiso   1.00
C1154  C     0.37608   0.83259   0.75098   0.00000  Uiso   1.00
C1155  C     0.52321   0.69045   0.78136   0.00000  Uiso   1.00
C1156  C     0.47679   0.97622   0.71864   0.00000  Uiso   1.00
C1157  C     0.47679   0.69015   0.71863   0.00000  Uiso   1.00
C1158  C     0.52321   0.97652   0.78137   0.00000  Uiso   1.00
C1159  C     0.49890   0.83324   0.66365   0.00000  Uiso   1.00
C1160  C     0.50110   0.83343   0.83635   0.00000  Uiso   1.00
C1161  C     0.53227   0.80754   0.90827   0.00000  Uiso   1.00
C1162  C     0.46773   0.85913   0.59173   0.00000  Uiso   1.00
C1163  C     0.50315   0.83388   0.88421   0.00000  Uiso   1.00
C1164  C     0.57972   0.83350   0.74982   0.00000  Uiso   1.00
C1165  C     0.49685   0.83278   0.61579   0.00000  Uiso   1.00
C1166  C     0.47470   0.86060   0.90540   0.00000  Uiso   1.00
C1167  C     0.52530   0.80607   0.59460   0.00000  Uiso   1.00
C1168  C     0.47205   0.85974   0.95147   0.00000  Uiso   1.00
C1169  C     0.52795   0.80693   0.54854   0.00000  Uiso   1.00
C1170  C     0.50064   0.83308   0.97668   0.00000  Uiso   1.00
C1171  C     0.49936   0.83359   0.52332   0.00000  Uiso   1.00
C1172  C     0.53049   0.80599   0.95511   0.00000  Uiso   1.00
C1173  C     0.46951   0.86068   0.54489   0.00000  Uiso   1.00
C1174  C     0.44173   0.88577   0.97254   0.00000  Uiso   1.00
C1175  C     0.44156   0.88779   0.51932   0.00000  Uiso   1.00
C1176  C     0.55827   0.78090   0.52746   0.00000  Uiso   1.00
C1177  C     0.55844   0.77888   0.98068   0.00000  Uiso   1.00
C1178  C     0.35439   0.81359   0.71417   0.00000  Uiso   1.00
C1179  C     0.64561   0.85307   0.78583   0.00000  Uiso   1.00
C1180  C     0.64416   0.81476   0.71268   0.00000  Uiso   1.00
C1181  C     0.35584   0.85190   0.78732   0.00000  Uiso   1.00
C1182  C     0.62392   0.83408   0.74902   0.00000  Uiso   1.00
H1183  H     0.45455   0.88201   0.88517   0.00000  Uiso   1.00
H1184  H     0.64220   0.88347   0.84375   0.00000  Uiso   1.00
H1185  H     0.59392   0.80974   0.67354   0.00000  Uiso   1.00
H1186  H     0.40608   0.85693   0.82646   0.00000  Uiso   1.00
H1187  H     0.55222   0.74223   0.80465   0.00000  Uiso   1.00
H1188  H     0.44778   0.92444   0.69535   0.00000  Uiso   1.00
H1189  H     0.44807   0.74172   0.69510   0.00000  Uiso   1.00
H1190  H     0.55193   0.92495   0.80490   0.00000  Uiso   1.00
H1191  H     0.54545   0.78465   0.61483   0.00000  Uiso   1.00
H1192  H     0.57043   0.80077   0.85920   0.00000  Uiso   1.00
H1193  H     0.42957   0.86590   0.64080   0.00000  Uiso   1.00
H1194  H     0.39977   0.88936   0.92470   0.00000  Uiso   1.00
H1195  H     0.60023   0.77730   0.57529   0.00000  Uiso   1.00
H1196  H     0.39836   0.93448   0.51902   0.00000  Uiso   1.00
H1197  H     0.60163   0.73218   0.98098   0.00000  Uiso   1.00
H1198  H     0.35780   0.78312   0.65629   0.00000  Uiso   1.00
N1199  N     0.50000   0.95240   0.75000   0.00000  Uiso   1.00
N1200  N     0.50000   0.71427   0.75000   0.00000  Uiso   1.00
O1201  O     0.43892   0.87154   0.75000   0.00000  Uiso   1.00
O1202  O     0.43661   0.88194   0.61313   0.00000  Uiso   1.00
O1203  O     0.41177   0.90942   0.94824   0.00000  Uiso   1.00
O1204  O     0.58823   0.75724   0.55176   0.00000  Uiso   1.00
O1205  O     0.41383   0.91532   0.54074   0.00000  Uiso   1.00
O1206  O     0.58617   0.75134   0.95926   0.00000  Uiso   1.00
O1207  O     0.37700   0.79581   0.67972   0.00000  Uiso   1.00
O1208  O     0.62300   0.87084   0.82029   0.00000  Uiso   1.00
O1209  O     0.62266   0.79762   0.67548   0.00000  Uiso   1.00
O1210  O     0.37734   0.86905   0.82452   0.00000  Uiso   1.00
O1211  O     0.54794   0.71120   0.81373   0.00000  Uiso   1.00
O1212  O     0.56108   0.79513   0.75001   0.00000  Uiso   1.00
O1213  O     0.45206   0.95547   0.68627   0.00000  Uiso   1.00
O1214  O     0.45207   0.71059   0.68626   0.00000  Uiso   1.00
O1215  O     0.54793   0.95608   0.81374   0.00000  Uiso   1.00
O1216  O     0.56108   0.87154   0.75001   0.00000  Uiso   1.00
O1217  O     0.43892   0.79513   0.75000   0.00000  Uiso   1.00
O1218  O     0.49999   0.87156   0.68393   0.00000  Uiso   1.00
O1219  O     0.50001   0.79511   0.81608   0.00000  Uiso   1.00
O1220  O     0.50001   0.87156   0.81608   0.00000  Uiso   1.00
O1221  O     0.49999   0.79511   0.68393   0.00000  Uiso   1.00
O1222  O     0.56339   0.78472   0.88687   0.00000  Uiso   1.00
Zn1223 Zn    0.50000   0.88437   0.75000   0.00000  Uiso   1.00
Zn1224 Zn    0.50000   0.78229   0.75000   0.00000  Uiso   1.00
C1225  C     0.75362   0.83317   0.75018   0.00000  Uiso   1.00
C1226  C     0.70941   0.83259   0.75098   0.00000  Uiso   1.00
C1227  C     0.85655   0.69045   0.78136   0.00000  Uiso   1.00
C1228  C     0.81012   0.97622   0.71864   0.00000  Uiso   1.00
C1229  C     0.81012   0.69015   0.71863   0.00000  Uiso   1.00
C1230  C     0.85655   0.97652   0.78137   0.00000  Uiso   1.00
C1231  C     0.83224   0.83324   0.66365   0.00000  Uiso   1.00
C1232  C     0.83443   0.83343   0.83635   0.00000  Uiso   1.00
C1233  C     0.86560   0.80754   0.90827   0.00000  Uiso   1.00
C1234  C     0.80106   0.85913   0.59173   0.00000  Uiso   1.00
C1235  C     0.83648   0.83388   0.88421   0.00000  Uiso   1.00
C1236  C     0.91305   0.83350   0.74982   0.00000  Uiso   1.00
C1237  C     0.83018   0.83278   0.61579   0.00000  Uiso   1.00
C1238  C     0.80803   0.86060   0.90540   0.00000  Uiso   1.00
C1239  C     0.85864   0.80607   0.59460   0.00000  Uiso   1.00
C1240  C     0.80538   0.85974   0.95147   0.00000  Uiso   1.00
C1241  C     0.86128   0.80693   0.54854   0.00000  Uiso   1.00
C1242  C     0.83397   0.83308   0.97668   0.00000  Uiso   1.00
C1243  C     0.83269   0.83359   0.52332   0.00000  Uiso   1.00
C1244  C     0.86382   0.80599   0.95511   0.00000  Uiso   1.00
C1245  C     0.80284   0.86068   0.54489   0.00000  Uiso   1.00
C1246  C     0.77506   0.88577   0.97254   0.00000  Uiso   1.00
C1247  C     0.77489   0.88779   0.51932   0.00000  Uiso   1.00
C1248  C     0.89160   0.78090   0.52746   0.00000  Uiso   1.00
C1249  C     0.89178   0.77888   0.98068   0.00000  Uiso   1.00
C1250  C     0.68772   0.81359   0.71417   0.00000  Uiso   1.00
C1251  C     0.97895   0.85307   0.78583   0.00000  Uiso   1.00
C1252  C     0.97749   0.81476   0.71268   0.00000  Uiso   1.00
C1253  C     0.68918   0.85190   0.78732   0.00000  Uiso   1.00
C1254  C     0.95725   0.83408   0.74902   0.00000  Uiso   1.00
H1255  H     0.78789   0.88201   0.88517   0.00000  Uiso   1.00
H1256  H     0.97553   0.88347   0.84375   0.00000  Uiso   1.00
H1257  H     0.92726   0.80974   0.67354   0.00000  Uiso   1.00
H1258  H     0.73941   0.85693   0.82646   0.00000  Uiso   1.00
H1259  H     0.88555   0.74223   0.80465   0.00000  Uiso   1.00
H1260  H     0.78111   0.92444   0.69535   0.00000  Uiso   1.00
H1261  H     0.78141   0.74172   0.69510   0.00000  Uiso   1.00
H1262  H     0.88526   0.92495   0.80490   0.00000  Uiso   1.00
H1263  H     0.87878   0.78465   0.61483   0.00000  Uiso   1.00
H1264  H     0.90376   0.80077   0.85920   0.00000  Uiso   1.00
H1265  H     0.76291   0.86590   0.64080   0.00000  Uiso   1.00
H1266  H     0.73310   0.88936   0.92470   0.00000  Uiso   1.00
H1267  H     0.93357   0.77730   0.57529   0.00000  Uiso   1.00
H1268  H     0.73170   0.93448   0.51902   0.00000  Uiso   1.00
H1269  H     0.93496   0.73218   0.98098   0.00000  Uiso   1.00
H1270  H     0.69113   0.78312   0.65629   0.00000  Uiso   1.00
N1271  N     0.83333   0.95240   0.75000   0.00000  Uiso   1.00
N1272  N     0.83333   0.71427   0.75000   0.00000  Uiso   1.00
O1273  O     0.77226   0.87154   0.75000   0.00000  Uiso   1.00
O1274  O     0.76994   0.88194   0.61313   0.00000  Uiso   1.00
O1275  O     0.74510   0.90942   0.94824   0.00000  Uiso   1.00
O1276  O     0.92156   0.75724   0.55176   0.00000  Uiso   1.00
O1277  O     0.74717   0.91532   0.54074   0.00000  Uiso   1.00
O1278  O     0.91950   0.75134   0.95926   0.00000  Uiso   1.00
O1279  O     0.71033   0.79581   0.67972   0.00000  Uiso   1.00
O1280  O     0.95634   0.87084   0.82029   0.00000  Uiso   1.00
O1281  O     0.95599   0.79762   0.67548   0.00000  Uiso   1.00
O1282  O     0.71067   0.86905   0.82452   0.00000  Uiso   1.00
O1283  O     0.88127   0.71120   0.81373   0.00000  Uiso   1.00
O1284  O     0.89441   0.79513   0.75001   0.00000  Uiso   1.00
O1285  O     0.78540   0.95547   0.68627   0.00000  Uiso   1.00
O1286  O     0.78541   0.71059   0.68626   0.00000  Uiso   1.00
O1287  O     0.88126   0.95608   0.81374   0.00000  Uiso   1.00
O1288  O     0.89441   0.87154   0.75001   0.00000  Uiso   1.00
O1289  O     0.77226   0.79513   0.75000   0.00000  Uiso   1.00
O1290  O     0.83333   0.87156   0.68393   0.00000  Uiso   1.00
O1291  O     0.83334   0.79511   0.81608   0.00000  Uiso   1.00
O1292  O     0.83334   0.87156   0.81608   0.00000  Uiso   1.00
O1293  O     0.83333   0.79511   0.68393   0.00000  Uiso   1.00
O1294  O     0.89672   0.78472   0.88687   0.00000  Uiso   1.00
Zn1295 Zn    0.83333   0.88437   0.75000   0.00000  Uiso   1.00
Zn1296 Zn    0.83333   0.78229   0.75000   0.00000  Uiso   1.00
loop_
_geom_bond_atom_site_label_1
_geom_bond_atom_site_label_2
_geom_bond_distance
_geom_bond_site_symmetry_2
_ccdc_geom_bond_type
C1     O65     1.289   .     A
C1     O49     1.291   .     A
C1     C2      1.411   .     S
C2     C26     1.400   .     A
C2     C29     1.410   .     A
C3     N48     1.379   .     A
C3     O59     1.374   .     S
C3     C438    1.416   1_545 S
C4     O61     1.374   .     S
C4     N47     1.379   .     A
C4     C221    1.416   .     S
C5     O62     1.375   .     S
C5     N48     1.377   .     A
C5     C436    1.416   1_545 S
C6     O63     1.375   .     S
C6     N47     1.377   .     A
C6     C219    1.416   .     S
C7     O69     1.294   .     A
C7     O66     1.298   .     A
C7     C13     1.432   .     S
C8     C11     1.432   .     S
C8     O68     1.294   .     A
C8     O67     1.298   .     A
C9     C20     1.406   .     A
C9     O70     1.384   .     S
C9     C11     1.404   .     A
C10    C13     1.404   .     A
C10    C21     1.406   .     A
C10    O50     1.384   .     S
C11    C14     1.384   .     A
C12    O64     1.289   .     A
C12    O60     1.291   .     A
C12    C30     1.411   .     S
C13    C15     1.384   .     A
C14    C16     1.385   .     A
C14    H31     1.082   .     S
C15    H39     1.082   .     S
C15    C17     1.385   .     A
C16    C18     1.415   .     A
C16    C22     1.411   .     A
C17    C19     1.415   .     A
C17    C24     1.411   .     A
C18    C20     1.426   .     A
C18    C667    1.399   .     S
C19    C21     1.426   .     A
C19    C666    1.399   1_554 S
C20    C25     1.416   .     A
C21    C23     1.416   .     A
C22    O51     1.381   .     S
C22    C671    1.403   .     S
C23    O53     1.386   .     S
C23    C670    1.403   1_554 S
C24    O52     1.381   .     S
C24    C673    1.403   1_554 S
C25    O54     1.386   .     S
C25    C672    1.403   .     S
C26    O55     1.387   .     S
C26    C172    1.390   1_455 S
C27    O56     1.387   .     S
C27    C30     1.400   .     A
C27    C101    1.390   .     S
C28    C30     1.410   .     A
C28    O57     1.385   .     S
C28    C98     1.390   .     S
C29    O58     1.385   .     S
C29    C171    1.390   1_455 S
H32    O56     0.989   .     S
H33    O57     0.988   .     S
H34    O58     0.988   .     S
H35    O59     0.979   .     S
H36    O61     0.979   .     S
H37    O62     0.980   .     S
H38    O63     0.980   .     S
H40    O70     0.990   .     S
H41    O50     0.990   .     S
H42    O51     0.991   .     S
H43    O52     0.991   .     S
H44    O53     0.989   .     S
H45    O54     0.989   .     S
H46    O55     0.989   .     S
N47    Zn71    2.038   .     S
N48    Zn72    2.038   .     S
O49    Zn71    1.984   .     S
O60    Zn72    1.984   .     S
O64    Zn71    1.988   .     S
O65    Zn72    1.988   .     S
O66    Zn71    2.015   .     S
O67    Zn72    2.015   .     S
O68    Zn71    2.016   .     S
O69    Zn72    2.016   .     S
C73    O137    1.289   .     A
C73    O121    1.291   .     A
C73    C74     1.411   .     S
C74    C98     1.400   .     A
C74    C101    1.410   .     A
C75    N120    1.379   .     A
C75    O131    1.374   .     S
C75    C510    1.416   1_545 S
C76    O133    1.374   .     S
C76    N119    1.379   .     A
C76    C293    1.416   .     S
C77    O134    1.375   .     S
C77    N120    1.377   .     A
C77    C508    1.416   1_545 S
C78    O135    1.375   .     S
C78    N119    1.377   .     A
C78    C291    1.416   .     S
C79    O141    1.294   .     A
C79    O138    1.298   .     A
C79    C85     1.432   .     S
C80    C83     1.432   .     S
C80    O140    1.294   .     A
C80    O139    1.298   .     A
C81    C92     1.406   .     A
C81    O142    1.384   .     S
C81    C83     1.404   .     A
C82    C85     1.404   .     A
C82    C93     1.406   .     A
C82    O122    1.384   .     S
C83    C86     1.384   .     A
C84    O136    1.289   .     A
C84    O132    1.291   .     A
C84    C102    1.411   .     S
C85    C87     1.384   .     A
C86    C88     1.385   .     A
C86    H103    1.082   .     S
C87    H111    1.082   .     S
C87    C89     1.385   .     A
C88    C90     1.415   .     A
C88    C94     1.411   .     A
C89    C91     1.415   .     A
C89    C96     1.411   .     A
C90    C92     1.426   .     A
C90    C739    1.399   .     S
C91    C93     1.426   .     A
C91    C738    1.399   1_554 S
C92    C97     1.416   .     A
C93    C95     1.416   .     A
C94    O123    1.381   .     S
C94    C743    1.403   .     S
C95    O125    1.386   .     S
C95    C742    1.403   1_554 S
C96    O124    1.381   .     S
C96    C745    1.403   1_554 S
C97    O126    1.386   .     S
C97    C744    1.403   .     S
C98    O127    1.387   .     S
C99    O128    1.387   .     S
C99    C102    1.400   .     A
C99    C173    1.390   .     S
C100   C102    1.410   .     A
C100   O129    1.385   .     S
C100   C170    1.390   .     S
C101   O130    1.385   .     S
H104   O128    0.989   .     S
H105   O129    0.988   .     S
H106   O130    0.988   .     S
H107   O131    0.979   .     S
H108   O133    0.979   .     S
H109   O134    0.980   .     S
H110   O135    0.980   .     S
H112   O142    0.990   .     S
H113   O122    0.990   .     S
H114   O123    0.991   .     S
H115   O124    0.991   .     S
H116   O125    0.989   .     S
H117   O126    0.989   .     S
H118   O127    0.989   .     S
N119   Zn143   2.038   .     S
N120   Zn144   2.038   .     S
O121   Zn143   1.984   .     S
O132   Zn144   1.984   .     S
O136   Zn143   1.988   .     S
O137   Zn144   1.988   .     S
O138   Zn143   2.015   .     S
O139   Zn144   2.015   .     S
O140   Zn143   2.016   .     S
O141   Zn144   2.016   .     S
C145   O209    1.289   .     A
C145   O193    1.291   .     A
C145   C146    1.411   .     S
C146   C170    1.400   .     A
C146   C173    1.410   .     A
C147   N192    1.379   .     A
C147   O203    1.374   .     S
C147   C582    1.416   1_545 S
C148   O205    1.374   .     S
C148   N191    1.379   .     A
C148   C365    1.416   .     S
C149   O206    1.375   .     S
C149   N192    1.377   .     A
C149   C580    1.416   1_545 S
C150   O207    1.375   .     S
C150   N191    1.377   .     A
C150   C363    1.416   .     S
C151   O213    1.294   .     A
C151   O210    1.298   .     A
C151   C157    1.432   .     S
C152   C155    1.432   .     S
C152   O212    1.294   .     A
C152   O211    1.298   .     A
C153   C164    1.406   .     A
C153   O214    1.384   .     S
C153   C155    1.404   .     A
C154   C157    1.404   .     A
C154   C165    1.406   .     A
C154   O194    1.384   .     S
C155   C158    1.384   .     A
C156   O208    1.289   .     A
C156   O204    1.291   .     A
C156   C174    1.411   .     S
C157   C159    1.384   .     A
C158   C160    1.385   .     A
C158   H175    1.082   .     S
C159   H183    1.082   .     S
C159   C161    1.385   .     A
C160   C162    1.415   .     A
C160   C166    1.411   .     A
C161   C163    1.415   .     A
C161   C168    1.411   .     A
C162   C164    1.426   .     A
C162   C811    1.399   .     S
C163   C165    1.426   .     A
C163   C810    1.399   1_554 S
C164   C169    1.416   .     A
C165   C167    1.416   .     A
C166   O195    1.381   .     S
C166   C815    1.403   .     S
C167   O197    1.386   .     S
C167   C814    1.403   1_554 S
C168   O196    1.381   .     S
C168   C817    1.403   1_554 S
C169   O198    1.386   .     S
C169   C816    1.403   .     S
C170   O199    1.387   .     S
C171   O200    1.387   .     S
C171   C174    1.400   .     A
C171   C29     1.390   1_655 S
C172   C174    1.410   .     A
C172   O201    1.385   .     S
C172   C26     1.390   1_655 S
C173   O202    1.385   .     S
H176   O200    0.989   .     S
H177   O201    0.988   .     S
H178   O202    0.988   .     S
H179   O203    0.979   .     S
H180   O205    0.979   .     S
H181   O206    0.980   .     S
H182   O207    0.980   .     S
H184   O214    0.990   .     S
H185   O194    0.990   .     S
H186   O195    0.991   .     S
H187   O196    0.991   .     S
H188   O197    0.989   .     S
H189   O198    0.989   .     S
H190   O199    0.989   .     S
N191   Zn215   2.038   .     S
N192   Zn216   2.038   .     S
O193   Zn215   1.984   .     S
O204   Zn216   1.984   .     S
O208   Zn215   1.988   .     S
O209   Zn216   1.988   .     S
O210   Zn215   2.015   .     S
O211   Zn216   2.015   .     S
O212   Zn215   2.016   .     S
O213   Zn216   2.016   .     S
C217   O281    1.289   .     A
C217   O265    1.291   .     A
C217   C218    1.411   .     S
C218   C242    1.400   .     A
C218   C245    1.410   .     A
C219   N264    1.379   .     A
C219   O275    1.374   .     S
C220   O277    1.374   .     S
C220   N263    1.379   .     A
C220   C437    1.416   .     S
C221   O278    1.375   .     S
C221   N264    1.377   .     A
C222   O279    1.375   .     S
C222   N263    1.377   .     A
C222   C435    1.416   .     S
C223   O285    1.294   .     A
C223   O282    1.298   .     A
C223   C229    1.432   .     S
C224   C227    1.432   .     S
C224   O284    1.294   .     A
C224   O283    1.298   .     A
C225   C236    1.406   .     A
C225   O286    1.384   .     S
C225   C227    1.404   .     A
C226   C229    1.404   .     A
C226   C237    1.406   .     A
C226   O266    1.384   .     S
C227   C230    1.384   .     A
C228   O280    1.289   .     A
C228   O276    1.291   .     A
C228   C246    1.411   .     S
C229   C231    1.384   .     A
C230   C232    1.385   .     A
C230   H247    1.082   .     S
C231   H255    1.082   .     S
C231   C233    1.385   .     A
C232   C234    1.415   .     A
C232   C238    1.411   .     A
C233   C235    1.415   .     A
C233   C240    1.411   .     A
C234   C236    1.426   .     A
C234   C883    1.399   .     S
C235   C237    1.426   .     A
C235   C882    1.399   1_554 S
C236   C241    1.416   .     A
C237   C239    1.416   .     A
C238   O267    1.381   .     S
C238   C887    1.403   .     S
C239   O269    1.386   .     S
C239   C886    1.403   1_554 S
C240   O268    1.381   .     S
C240   C889    1.403   1_554 S
C241   O270    1.386   .     S
C241   C888    1.403   .     S
C242   O271    1.387   .     S
C242   C388    1.390   1_455 S
C243   O272    1.387   .     S
C243   C246    1.400   .     A
C243   C317    1.390   .     S
C244   C246    1.410   .     A
C244   O273    1.385   .     S
C244   C314    1.390   .     S
C245   O274    1.385   .     S
C245   C387    1.390   1_455 S
H248   O272    0.989   .     S
H249   O273    0.988   .     S
H250   O274    0.988   .     S
H251   O275    0.979   .     S
H252   O277    0.979   .     S
H253   O278    0.980   .     S
H254   O279    0.980   .     S
H256   O286    0.990   .     S
H257   O266    0.990   .     S
H258   O267    0.991   .     S
H259   O268    0.991   .     S
H260   O269    0.989   .     S
H261   O270    0.989   .     S
H262   O271    0.989   .     S
N263   Zn287   2.038   .     S
N264   Zn288   2.038   .     S
O265   Zn287   1.984   .     S
O276   Zn288   1.984   .     S
O280   Zn287   1.988   .     S
O281   Zn288   1.988   .     S
O282   Zn287   2.015   .     S
O283   Zn288   2.015   .     S
O284   Zn287   2.016   .     S
O285   Zn288   2.016   .     S
C289   O353    1.289   .     A
C289   O337    1.291   .     A
C289   C290    1.411   .     S
C290   C314    1.400   .     A
C290   C317    1.410   .     A
C291   N336    1.379   .     A
C291   O347    1.374   .     S
C292   O349    1.374   .     S
C292   N335    1.379   .     A
C292   C509    1.416   .     S
C293   O350    1.375   .     S
C293   N336    1.377   .     A
C294   O351    1.375   .     S
C294   N335    1.377   .     A
C294   C507    1.416   .     S
C295   O357    1.294   .     A
C295   O354    1.298   .     A
C295   C301    1.432   .     S
C296   C299    1.432   .     S
C296   O356    1.294   .     A
C296   O355    1.298   .     A
C297   C308    1.406   .     A
C297   O358    1.384   .     S
C297   C299    1.404   .     A
C298   C301    1.404   .     A
C298   C309    1.406   .     A
C298   O338    1.384   .     S
C299   C302    1.384   .     A
C300   O352    1.289   .     A
C300   O348    1.291   .     A
C300   C318    1.411   .     S
C301   C303    1.384   .     A
C302   C304    1.385   .     A
C302   H319    1.082   .     S
C303   H327    1.082   .     S
C303   C305    1.385   .     A
C304   C306    1.415   .     A
C304   C310    1.411   .     A
C305   C307    1.415   .     A
C305   C312    1.411   .     A
C306   C308    1.426   .     A
C306   C955    1.399   .     S
C307   C309    1.426   .     A
C307   C954    1.399   1_554 S
C308   C313    1.416   .     A
C309   C311    1.416   .     A
C310   O339    1.381   .     S
C310   C959    1.403   .     S
C311   O341    1.386   .     S
C311   C958    1.403   1_554 S
C312   O340    1.381   .     S
C312   C961    1.403   1_554 S
C313   O342    1.386   .     S
C313   C960    1.403   .     S
C314   O343    1.387   .     S
C315   O344    1.387   .     S
C315   C318    1.400   .     A
C315   C389    1.390   .     S
C316   C318    1.410   .     A
C316   O345    1.385   .     S
C316   C386    1.390   .     S
C317   O346    1.385   .     S
H320   O344    0.989   .     S
H321   O345    0.988   .     S
H322   O346    0.988   .     S
H323   O347    0.979   .     S
H324   O349    0.979   .     S
H325   O350    0.980   .     S
H326   O351    0.980   .     S
H328   O358    0.990   .     S
H329   O338    0.990   .     S
H330   O339    0.991   .     S
H331   O340    0.991   .     S
H332   O341    0.989   .     S
H333   O342    0.989   .     S
H334   O343    0.989   .     S
N335   Zn359   2.038   .     S
N336   Zn360   2.038   .     S
O337   Zn359   1.984   .     S
O348   Zn360   1.984   .     S
O352   Zn359   1.988   .     S
O353   Zn360   1.988   .     S
O354   Zn359   2.015   .     S
O355   Zn360   2.015   .     S
O356   Zn359   2.016   .     S
O357   Zn360   2.016   .     S
C361   O425    1.289   .     A
C361   O409    1.291   .     A
C361   C362    1.411   .     S
C362   C386    1.400   .     A
C362   C389    1.410   .     A
C363   N408    1.379   .     A
C363   O419    1.374   .     S
C364   O421    1.374   .     S
C364   N407    1.379   .     A
C364   C581    1.416   .     S
C365   O422    1.375   .     S
C365   N408    1.377   .     A
C366   O423    1.375   .     S
C366   N407    1.377   .     A
C366   C579    1.416   .     S
C367   O429    1.294   .     A
C367   O426    1.298   .     A
C367   C373    1.432   .     S
C368   C371    1.432   .     S
C368   O428    1.294   .     A
C368   O427    1.298   .     A
C369   C380    1.406   .     A
C369   O430    1.384   .     S
C369   C371    1.404   .     A
C370   C373    1.404   .     A
C370   C381    1.406   .     A
C370   O410    1.384   .     S
C371   C374    1.384   .     A
C372   O424    1.289   .     A
C372   O420    1.291   .     A
C372   C390    1.411   .     S
C373   C375    1.384   .     A
C374   C376    1.385   .     A
C374   H391    1.082   .     S
C375   H399    1.082   .     S
C375   C377    1.385   .     A
C376   C378    1.415   .     A
C376   C382    1.411   .     A
C377   C379    1.415   .     A
C377   C384    1.411   .     A
C378   C380    1.426   .     A
C378   C1027   1.399   .     S
C379   C381    1.426   .     A
C379   C1026   1.399   1_554 S
C380   C385    1.416   .     A
C381   C383    1.416   .     A
C382   O411    1.381   .     S
C382   C1031   1.403   .     S
C383   O413    1.386   .     S
C383   C1030   1.403   1_554 S
C384   O412    1.381   .     S
C384   C1033   1.403   1_554 S
C385   O414    1.386   .     S
C385   C1032   1.403   .     S
C386   O415    1.387   .     S
C387   O416    1.387   .     S
C387   C390    1.400   .     A
C387   C245    1.390   1_655 S
C388   C390    1.410   .     A
C388   O417    1.385   .     S
C388   C242    1.390   1_655 S
C389   O418    1.385   .     S
H392   O416    0.989   .     S
H393   O417    0.988   .     S
H394   O418    0.988   .     S
H395   O419    0.979   .     S
H396   O421    0.979   .     S
H397   O422    0.980   .     S
H398   O423    0.980   .     S
H400   O430    0.990   .     S
H401   O410    0.990   .     S
H402   O411    0.991   .     S
H403   O412    0.991   .     S
H404   O413    0.989   .     S
H405   O414    0.989   .     S
H406   O415    0.989   .     S
N407   Zn431   2.038   .     S
N408   Zn432   2.038   .     S
O409   Zn431   1.984   .     S
O420   Zn432   1.984   .     S
O424   Zn431   1.988   .     S
O425   Zn432   1.988   .     S
O426   Zn431   2.015   .     S
O427   Zn432   2.015   .     S
O428   Zn431   2.016   .     S
O429   Zn432   2.016   .     S
C433   O497    1.289   .     A
C433   O481    1.291   .     A
C433   C434    1.411   .     S
C434   C458    1.400   .     A
C434   C461    1.410   .     A
C435   N480    1.379   .     A
C435   O491    1.374   .     S
C436   O493    1.374   .     S
C436   N479    1.379   .     A
C436   C5      1.416   1_565 S
C437   O494    1.375   .     S
C437   N480    1.377   .     A
C438   O495    1.375   .     S
C438   N479    1.377   .     A
C438   C3      1.416   1_565 S
C439   O501    1.294   .     A
C439   O498    1.298   .     A
C439   C445    1.432   .     S
C440   C443    1.432   .     S
C440   O500    1.294   .     A
C440   O499    1.298   .     A
C441   C452    1.406   .     A
C441   O502    1.384   .     S
C441   C443    1.404   .     A
C442   C445    1.404   .     A
C442   C453    1.406   .     A
C442   O482    1.384   .     S
C443   C446    1.384   .     A
C444   O496    1.289   .     A
C444   O492    1.291   .     A
C444   C462    1.411   .     S
C445   C447    1.384   .     A
C446   C448    1.385   .     A
C446   H463    1.082   .     S
C447   H471    1.082   .     S
C447   C449    1.385   .     A
C448   C450    1.415   .     A
C448   C454    1.411   .     A
C449   C451    1.415   .     A
C449   C456    1.411   .     A
C450   C452    1.426   .     A
C450   C1099   1.399   .     S
C451   C453    1.426   .     A
C451   C1098   1.399   1_554 S
C452   C457    1.416   .     A
C453   C455    1.416   .     A
C454   O483    1.381   .     S
C454   C1103   1.403   .     S
C455   O485    1.386   .     S
C455   C1102   1.403   1_554 S
C456   O484    1.381   .     S
C456   C1105   1.403   1_554 S
C457   O486    1.386   .     S
C457   C1104   1.403   .     S
C458   O487    1.387   .     S
C458   C604    1.390   1_455 S
C459   O488    1.387   .     S
C459   C462    1.400   .     A
C459   C533    1.390   .     S
C460   C462    1.410   .     A
C460   O489    1.385   .     S
C460   C530    1.390   .     S
C461   O490    1.385   .     S
C461   C603    1.390   1_455 S
H464   O488    0.989   .     S
H465   O489    0.988   .     S
H466   O490    0.988   .     S
H467   O491    0.979   .     S
H468   O493    0.979   .     S
H469   O494    0.980   .     S
H470   O495    0.980   .     S
H472   O502    0.990   .     S
H473   O482    0.990   .     S
H474   O483    0.991   .     S
H475   O484    0.991   .     S
H476   O485    0.989   .     S
H477   O486    0.989   .     S
H478   O487    0.989   .     S
N479   Zn503   2.038   .     S
N480   Zn504   2.038   .     S
O481   Zn503   1.984   .     S
O492   Zn504   1.984   .     S
O496   Zn503   1.988   .     S
O497   Zn504   1.988   .     S
O498   Zn503   2.015   .     S
O499   Zn504   2.015   .     S
O500   Zn503   2.016   .     S
O501   Zn504   2.016   .     S
C505   O569    1.289   .     A
C505   O553    1.291   .     A
C505   C506    1.411   .     S
C506   C530    1.400   .     A
C506   C533    1.410   .     A
C507   N552    1.379   .     A
C507   O563    1.374   .     S
C508   O565    1.374   .     S
C508   N551    1.379   .     A
C508   C77     1.416   1_565 S
C509   O566    1.375   .     S
C509   N552    1.377   .     A
C510   O567    1.375   .     S
C510   N551    1.377   .     A
C510   C75     1.416   1_565 S
C511   O573    1.294   .     A
C511   O570    1.298   .     A
C511   C517    1.432   .     S
C512   C515    1.432   .     S
C512   O572    1.294   .     A
C512   O571    1.298   .     A
C513   C524    1.406   .     A
C513   O574    1.384   .     S
C513   C515    1.404   .     A
C514   C517    1.404   .     A
C514   C525    1.406   .     A
C514   O554    1.384   .     S
C515   C518    1.384   .     A
C516   O568    1.289   .     A
C516   O564    1.291   .     A
C516   C534    1.411   .     S
C517   C519    1.384   .     A
C518   C520    1.385   .     A
C518   H535    1.082   .     S
C519   H543    1.082   .     S
C519   C521    1.385   .     A
C520   C522    1.415   .     A
C520   C526    1.411   .     A
C521   C523    1.415   .     A
C521   C528    1.411   .     A
C522   C524    1.426   .     A
C522   C1171   1.399   .     S
C523   C525    1.426   .     A
C523   C1170   1.399   1_554 S
C524   C529    1.416   .     A
C525   C527    1.416   .     A
C526   O555    1.381   .     S
C526   C1175   1.403   .     S
C527   O557    1.386   .     S
C527   C1174   1.403   1_554 S
C528   O556    1.381   .     S
C528   C1177   1.403   1_554 S
C529   O558    1.386   .     S
C529   C1176   1.403   .     S
C530   O559    1.387   .     S
C531   O560    1.387   .     S
C531   C534    1.400   .     A
C531   C605    1.390   .     S
C532   C534    1.410   .     A
C532   O561    1.385   .     S
C532   C602    1.390   .     S
C533   O562    1.385   .     S
H536   O560    0.989   .     S
H537   O561    0.988   .     S
H538   O562    0.988   .     S
H539   O563    0.979   .     S
H540   O565    0.979   .     S
H541   O566    0.980   .     S
H542   O567    0.980   .     S
H544   O574    0.990   .     S
H545   O554    0.990   .     S
H546   O555    0.991   .     S
H547   O556    0.991   .     S
H548   O557    0.989   .     S
H549   O558    0.989   .     S
H550   O559    0.989   .     S
N551   Zn575   2.038   .     S
N552   Zn576   2.038   .     S
O553   Zn575   1.984   .     S
O564   Zn576   1.984   .     S
O568   Zn575   1.988   .     S
O569   Zn576   1.988   .     S
O570   Zn575   2.015   .     S
O571   Zn576   2.015   .     S
O572   Zn575   2.016   .     S
O573   Zn576   2.016   .     S
C577   O641    1.289   .     A
C577   O625    1.291   .     A
C577   C578    1.411   .     S
C578   C602    1.400   .     A
C578   C605    1.410   .     A
C579   N624    1.379   .     A
C579   O635    1.374   .     S
C580   O637    1.374   .     S
C580   N623    1.379   .     A
C580   C149    1.416   1_565 S
C581   O638    1.375   .     S
C581   N624    1.377   .     A
C582   O639    1.375   .     S
C582   N623    1.377   .     A
C582   C147    1.416   1_565 S
C583   O645    1.294   .     A
C583   O642    1.298   .     A
C583   C589    1.432   .     S
C584   C587    1.432   .     S
C584   O644    1.294   .     A
C584   O643    1.298   .     A
C585   C596    1.406   .     A
C585   O646    1.384   .     S
C585   C587    1.404   .     A
C586   C589    1.404   .     A
C586   C597    1.406   .     A
C586   O626    1.384   .     S
C587   C590    1.384   .     A
C588   O640    1.289   .     A
C588   O636    1.291   .     A
C588   C606    1.411   .     S
C589   C591    1.384   .     A
C590   C592    1.385   .     A
C590   H607    1.082   .     S
C591   H615    1.082   .     S
C591   C593    1.385   .     A
C592   C594    1.415   .     A
C592   C598    1.411   .     A
C593   C595    1.415   .     A
C593   C600    1.411   .     A
C594   C596    1.426   .     A
C594   C1243   1.399   .     S
C595   C597    1.426   .     A
C595   C1242   1.399   1_554 S
C596   C601    1.416   .     A
C597   C599    1.416   .     A
C598   O627    1.381   .     S
C598   C1247   1.403   .     S
C599   O629    1.386   .     S
C599   C1246   1.403   1_554 S
C600   O628    1.381   .     S
C600   C1249   1.403   1_554 S
C601   O630    1.386   .     S
C601   C1248   1.403   .     S
C602   O631    1.387   .     S
C603   O632    1.387   .     S
C603   C606    1.400   .     A
C603   C461    1.390   1_655 S
C604   C606    1.410   .     A
C604   O633    1.385   .     S
C604   C458    1.390   1_655 S
C605   O634    1.385   .     S
H608   O632    0.989   .     S
H609   O633    0.988   .     S
H610   O634    0.988   .     S
H611   O635    0.979   .     S
H612   O637    0.979   .     S
H613   O638    0.980   .     S
H614   O639    0.980   .     S
H616   O646    0.990   .     S
H617   O626    0.990   .     S
H618   O627    0.991   .     S
H619   O628    0.991   .     S
H620   O629    0.989   .     S
H621   O630    0.989   .     S
H622   O631    0.989   .     S
N623   Zn647   2.038   .     S
N624   Zn648   2.038   .     S
O625   Zn647   1.984   .     S
O636   Zn648   1.984   .     S
O640   Zn647   1.988   .     S
O641   Zn648   1.988   .     S
O642   Zn647   2.015   .     S
O643   Zn648   2.015   .     S
O644   Zn647   2.016   .     S
O645   Zn648   2.016   .     S
C649   O713    1.289   .     A
C649   O697    1.291   .     A
C649   C650    1.411   .     S
C650   C674    1.400   .     A
C650   C677    1.410   .     A
C651   N696    1.379   .     A
C651   O707    1.374   .     S
C651   C1086   1.416   1_545 S
C652   O709    1.374   .     S
C652   N695    1.379   .     A
C652   C869    1.416   .     S
C653   O710    1.375   .     S
C653   N696    1.377   .     A
C653   C1084   1.416   1_545 S
C654   O711    1.375   .     S
C654   N695    1.377   .     A
C654   C867    1.416   .     S
C655   O717    1.294   .     A
C655   O714    1.298   .     A
C655   C661    1.432   .     S
C656   C659    1.432   .     S
C656   O716    1.294   .     A
C656   O715    1.298   .     A
C657   C668    1.406   .     A
C657   O718    1.384   .     S
C657   C659    1.404   .     A
C658   C661    1.404   .     A
C658   C669    1.406   .     A
C658   O698    1.384   .     S
C659   C662    1.384   .     A
C660   O712    1.289   .     A
C660   O708    1.291   .     A
C660   C678    1.411   .     S
C661   C663    1.384   .     A
C662   C664    1.385   .     A
C662   H679    1.082   .     S
C663   H687    1.082   .     S
C663   C665    1.385   .     A
C664   C666    1.415   .     A
C664   C670    1.411   .     A
C665   C667    1.415   .     A
C665   C672    1.411   .     A
C666   C668    1.426   .     A
C666   C19     1.399   1_556 S
C667   C669    1.426   .     A
C668   C673    1.416   .     A
C669   C671    1.416   .     A
C670   O699    1.381   .     S
C670   C23     1.403   1_556 S
C671   O701    1.386   .     S
C672   O700    1.381   .     S
C673   O702    1.386   .     S
C673   C24     1.403   1_556 S
C674   O703    1.387   .     S
C674   C820    1.390   1_455 S
C675   O704    1.387   .     S
C675   C678    1.400   .     A
C675   C749    1.390   .     S
C676   C678    1.410   .     A
C676   O705    1.385   .     S
C676   C746    1.390   .     S
C677   O706    1.385   .     S
C677   C819    1.390   1_455 S
H680   O704    0.989   .     S
H681   O705    0.988   .     S
H682   O706    0.988   .     S
H683   O707    0.979   .     S
H684   O709    0.979   .     S
H685   O710    0.980   .     S
H686   O711    0.980   .     S
H688   O718    0.990   .     S
H689   O698    0.990   .     S
H690   O699    0.991   .     S
H691   O700    0.991   .     S
H692   O701    0.989   .     S
H693   O702    0.989   .     S
H694   O703    0.989   .     S
N695   Zn719   2.038   .     S
N696   Zn720   2.038   .     S
O697   Zn719   1.984   .     S
O708   Zn720   1.984   .     S
O712   Zn719   1.988   .     S
O713   Zn720   1.988   .     S
O714   Zn719   2.015   .     S
O715   Zn720   2.015   .     S
O716   Zn719   2.016   .     S
O717   Zn720   2.016   .     S
C721   O785    1.289   .     A
C721   O769    1.291   .     A
C721   C722    1.411   .     S
C722   C746    1.400   .     A
C722   C749    1.410   .     A
C723   N768    1.379   .     A
C723   O779    1.374   .     S
C723   C1158   1.416   1_545 S
C724   O781    1.374   .     S
C724   N767    1.379   .     A
C724   C941    1.416   .     S
C725   O782    1.375   .     S
C725   N768    1.377   .     A
C725   C1156   1.416   1_545 S
C726   O783    1.375   .     S
C726   N767    1.377   .     A
C726   C939    1.416   .     S
C727   O789    1.294   .     A
C727   O786    1.298   .     A
C727   C733    1.432   .     S
C728   C731    1.432   .     S
C728   O788    1.294   .     A
C728   O787    1.298   .     A
C729   C740    1.406   .     A
C729   O790    1.384   .     S
C729   C731    1.404   .     A
C730   C733    1.404   .     A
C730   C741    1.406   .     A
C730   O770    1.384   .     S
C731   C734    1.384   .     A
C732   O784    1.289   .     A
C732   O780    1.291   .     A
C732   C750    1.411   .     S
C733   C735    1.384   .     A
C734   C736    1.385   .     A
C734   H751    1.082   .     S
C735   H759    1.082   .     S
C735   C737    1.385   .     A
C736   C738    1.415   .     A
C736   C742    1.411   .     A
C737   C739    1.415   .     A
C737   C744    1.411   .     A
C738   C740    1.426   .     A
C738   C91     1.399   1_556 S
C739   C741    1.426   .     A
C740   C745    1.416   .     A
C741   C743    1.416   .     A
C742   O771    1.381   .     S
C742   C95     1.403   1_556 S
C743   O773    1.386   .     S
C744   O772    1.381   .     S
C745   O774    1.386   .     S
C745   C96     1.403   1_556 S
C746   O775    1.387   .     S
C747   O776    1.387   .     S
C747   C750    1.400   .     A
C747   C821    1.390   .     S
C748   C750    1.410   .     A
C748   O777    1.385   .     S
C748   C818    1.390   .     S
C749   O778    1.385   .     S
H752   O776    0.989   .     S
H753   O777    0.988   .     S
H754   O778    0.988   .     S
H755   O779    0.979   .     S
H756   O781    0.979   .     S
H757   O782    0.980   .     S
H758   O783    0.980   .     S
H760   O790    0.990   .     S
H761   O770    0.990   .     S
H762   O771    0.991   .     S
H763   O772    0.991   .     S
H764   O773    0.989   .     S
H765   O774    0.989   .     S
H766   O775    0.989   .     S
N767   Zn791   2.038   .     S
N768   Zn792   2.038   .     S
O769   Zn791   1.984   .     S
O780   Zn792   1.984   .     S
O784   Zn791   1.988   .     S
O785   Zn792   1.988   .     S
O786   Zn791   2.015   .     S
O787   Zn792   2.015   .     S
O788   Zn791   2.016   .     S
O789   Zn792   2.016   .     S
C793   O857    1.289   .     A
C793   O841    1.291   .     A
C793   C794    1.411   .     S
C794   C818    1.400   .     A
C794   C821    1.410   .     A
C795   N840    1.379   .     A
C795   O851    1.374   .     S
C795   C1230   1.416   1_545 S
C796   O853    1.374   .     S
C796   N839    1.379   .     A
C796   C1013   1.416   .     S
C797   O854    1.375   .     S
C797   N840    1.377   .     A
C797   C1228   1.416   1_545 S
C798   O855    1.375   .     S
C798   N839    1.377   .     A
C798   C1011   1.416   .     S
C799   O861    1.294   .     A
C799   O858    1.298   .     A
C799   C805    1.432   .     S
C800   C803    1.432   .     S
C800   O860    1.294   .     A
C800   O859    1.298   .     A
C801   C812    1.406   .     A
C801   O862    1.384   .     S
C801   C803    1.404   .     A
C802   C805    1.404   .     A
C802   C813    1.406   .     A
C802   O842    1.384   .     S
C803   C806    1.384   .     A
C804   O856    1.289   .     A
C804   O852    1.291   .     A
C804   C822    1.411   .     S
C805   C807    1.384   .     A
C806   C808    1.385   .     A
C806   H823    1.082   .     S
C807   H831    1.082   .     S
C807   C809    1.385   .     A
C808   C810    1.415   .     A
C808   C814    1.411   .     A
C809   C811    1.415   .     A
C809   C816    1.411   .     A
C810   C812    1.426   .     A
C810   C163    1.399   1_556 S
C811   C813    1.426   .     A
C812   C817    1.416   .     A
C813   C815    1.416   .     A
C814   O843    1.381   .     S
C814   C167    1.403   1_556 S
C815   O845    1.386   .     S
C816   O844    1.381   .     S
C817   O846    1.386   .     S
C817   C168    1.403   1_556 S
C818   O847    1.387   .     S
C819   O848    1.387   .     S
C819   C822    1.400   .     A
C819   C677    1.390   1_655 S
C820   C822    1.410   .     A
C820   O849    1.385   .     S
C820   C674    1.390   1_655 S
C821   O850    1.385   .     S
H824   O848    0.989   .     S
H825   O849    0.988   .     S
H826   O850    0.988   .     S
H827   O851    0.979   .     S
H828   O853    0.979   .     S
H829   O854    0.980   .     S
H830   O855    0.980   .     S
H832   O862    0.990   .     S
H833   O842    0.990   .     S
H834   O843    0.991   .     S
H835   O844    0.991   .     S
H836   O845    0.989   .     S
H837   O846    0.989   .     S
H838   O847    0.989   .     S
N839   Zn863   2.038   .     S
N840   Zn864   2.038   .     S
O841   Zn863   1.984   .     S
O852   Zn864   1.984   .     S
O856   Zn863   1.988   .     S
O857   Zn864   1.988   .     S
O858   Zn863   2.015   .     S
O859   Zn864   2.015   .     S
O860   Zn863   2.016   .     S
O861   Zn864   2.016   .     S
C865   O929    1.289   .     A
C865   O913    1.291   .     A
C865   C866    1.411   .     S
C866   C890    1.400   .     A
C866   C893    1.410   .     A
C867   N912    1.379   .     A
C867   O923    1.374   .     S
C868   O925    1.374   .     S
C868   N911    1.379   .     A
C868   C1085   1.416   .     S
C869   O926    1.375   .     S
C869   N912    1.377   .     A
C870   O927    1.375   .     S
C870   N911    1.377   .     A
C870   C1083   1.416   .     S
C871   O933    1.294   .     A
C871   O930    1.298   .     A
C871   C877    1.432   .     S
C872   C875    1.432   .     S
C872   O932    1.294   .     A
C872   O931    1.298   .     A
C873   C884    1.406   .     A
C873   O934    1.384   .     S
C873   C875    1.404   .     A
C874   C877    1.404   .     A
C874   C885    1.406   .     A
C874   O914    1.384   .     S
C875   C878    1.384   .     A
C876   O928    1.289   .     A
C876   O924    1.291   .     A
C876   C894    1.411   .     S
C877   C879    1.384   .     A
C878   C880    1.385   .     A
C878   H895    1.082   .     S
C879   H903    1.082   .     S
C879   C881    1.385   .     A
C880   C882    1.415   .     A
C880   C886    1.411   .     A
C881   C883    1.415   .     A
C881   C888    1.411   .     A
C882   C884    1.426   .     A
C882   C235    1.399   1_556 S
C883   C885    1.426   .     A
C884   C889    1.416   .     A
C885   C887    1.416   .     A
C886   O915    1.381   .     S
C886   C239    1.403   1_556 S
C887   O917    1.386   .     S
C888   O916    1.381   .     S
C889   O918    1.386   .     S
C889   C240    1.403   1_556 S
C890   O919    1.387   .     S
C890   C1036   1.390   1_455 S
C891   O920    1.387   .     S
C891   C894    1.400   .     A
C891   C965    1.390   .     S
C892   C894    1.410   .     A
C892   O921    1.385   .     S
C892   C962    1.390   .     S
C893   O922    1.385   .     S
C893   C1035   1.390   1_455 S
H896   O920    0.989   .     S
H897   O921    0.988   .     S
H898   O922    0.988   .     S
H899   O923    0.979   .     S
H900   O925    0.979   .     S
H901   O926    0.980   .     S
H902   O927    0.980   .     S
H904   O934    0.990   .     S
H905   O914    0.990   .     S
H906   O915    0.991   .     S
H907   O916    0.991   .     S
H908   O917    0.989   .     S
H909   O918    0.989   .     S
H910   O919    0.989   .     S
N911   Zn935   2.038   .     S
N912   Zn936   2.038   .     S
O913   Zn935   1.984   .     S
O924   Zn936   1.984   .     S
O928   Zn935   1.988   .     S
O929   Zn936   1.988   .     S
O930   Zn935   2.015   .     S
O931   Zn936   2.015   .     S
O932   Zn935   2.016   .     S
O933   Zn936   2.016   .     S
C937   O1001   1.289   .     A
C937   O985    1.291   .     A
C937   C938    1.411   .     S
C938   C962    1.400   .     A
C938   C965    1.410   .     A
C939   N984    1.379   .     A
C939   O995    1.374   .     S
C940   O997    1.374   .     S
C940   N983    1.379   .     A
C940   C1157   1.416   .     S
C941   O998    1.375   .     S
C941   N984    1.377   .     A
C942   O999    1.375   .     S
C942   N983    1.377   .     A
C942   C1155   1.416   .     S
C943   O1005   1.294   .     A
C943   O1002   1.298   .     A
C943   C949    1.432   .     S
C944   C947    1.432   .     S
C944   O1004   1.294   .     A
C944   O1003   1.298   .     A
C945   C956    1.406   .     A
C945   O1006   1.384   .     S
C945   C947    1.404   .     A
C946   C949    1.404   .     A
C946   C957    1.406   .     A
C946   O986    1.384   .     S
C947   C950    1.384   .     A
C948   O1000   1.289   .     A
C948   O996    1.291   .     A
C948   C966    1.411   .     S
C949   C951    1.384   .     A
C950   C952    1.385   .     A
C950   H967    1.082   .     S
C951   H975    1.082   .     S
C951   C953    1.385   .     A
C952   C954    1.415   .     A
C952   C958    1.411   .     A
C953   C955    1.415   .     A
C953   C960    1.411   .     A
C954   C956    1.426   .     A
C954   C307    1.399   1_556 S
C955   C957    1.426   .     A
C956   C961    1.416   .     A
C957   C959    1.416   .     A
C958   O987    1.381   .     S
C958   C311    1.403   1_556 S
C959   O989    1.386   .     S
C960   O988    1.381   .     S
C961   O990    1.386   .     S
C961   C312    1.403   1_556 S
C962   O991    1.387   .     S
C963   O992    1.387   .     S
C963   C966    1.400   .     A
C963   C1037   1.390   .     S
C964   C966    1.410   .     A
C964   O993    1.385   .     S
C964   C1034   1.390   .     S
C965   O994    1.385   .     S
H968   O992    0.989   .     S
H969   O993    0.988   .     S
H970   O994    0.988   .     S
H971   O995    0.979   .     S
H972   O997    0.979   .     S
H973   O998    0.980   .     S
H974   O999    0.980   .     S
H976   O1006   0.990   .     S
H977   O986    0.990   .     S
H978   O987    0.991   .     S
H979   O988    0.991   .     S
H980   O989    0.989   .     S
H981   O990    0.989   .     S
H982   O991    0.989   .     S
N983   Zn1007  2.038   .     S
N984   Zn1008  2.038   .     S
O985   Zn1007  1.984   .     S
O996   Zn1008  1.984   .     S
O1000  Zn1007  1.988   .     S
O1001  Zn1008  1.988   .     S
O1002  Zn1007  2.015   .     S
O1003  Zn1008  2.015   .     S
O1004  Zn1007  2.016   .     S
O1005  Zn1008  2.016   .     S
C1009  O1073   1.289   .     A
C1009  O1057   1.291   .     A
C1009  C1010   1.411   .     S
C1010  C1034   1.400   .     A
C1010  C1037   1.410   .     A
C1011  N1056   1.379   .     A
C1011  O1067   1.374   .     S
C1012  O1069   1.374   .     S
C1012  N1055   1.379   .     A
C1012  C1229   1.416   .     S
C1013  O1070   1.375   .     S
C1013  N1056   1.377   .     A
C1014  O1071   1.375   .     S
C1014  N1055   1.377   .     A
C1014  C1227   1.416   .     S
C1015  O1077   1.294   .     A
C1015  O1074   1.298   .     A
C1015  C1021   1.432   .     S
C1016  C1019   1.432   .     S
C1016  O1076   1.294   .     A
C1016  O1075   1.298   .     A
C1017  C1028   1.406   .     A
C1017  O1078   1.384   .     S
C1017  C1019   1.404   .     A
C1018  C1021   1.404   .     A
C1018  C1029   1.406   .     A
C1018  O1058   1.384   .     S
C1019  C1022   1.384   .     A
C1020  O1072   1.289   .     A
C1020  O1068   1.291   .     A
C1020  C1038   1.411   .     S
C1021  C1023   1.384   .     A
C1022  C1024   1.385   .     A
C1022  H1039   1.082   .     S
C1023  H1047   1.082   .     S
C1023  C1025   1.385   .     A
C1024  C1026   1.415   .     A
C1024  C1030   1.411   .     A
C1025  C1027   1.415   .     A
C1025  C1032   1.411   .     A
C1026  C1028   1.426   .     A
C1026  C379    1.399   1_556 S
C1027  C1029   1.426   .     A
C1028  C1033   1.416   .     A
C1029  C1031   1.416   .     A
C1030  O1059   1.381   .     S
C1030  C383    1.403   1_556 S
C1031  O1061   1.386   .     S
C1032  O1060   1.381   .     S
C1033  O1062   1.386   .     S
C1033  C384    1.403   1_556 S
C1034  O1063   1.387   .     S
C1035  O1064   1.387   .     S
C1035  C1038   1.400   .     A
C1035  C893    1.390   1_655 S
C1036  C1038   1.410   .     A
C1036  O1065   1.385   .     S
C1036  C890    1.390   1_655 S
C1037  O1066   1.385   .     S
H1040  O1064   0.989   .     S
H1041  O1065   0.988   .     S
H1042  O1066   0.988   .     S
H1043  O1067   0.979   .     S
H1044  O1069   0.979   .     S
H1045  O1070   0.980   .     S
H1046  O1071   0.980   .     S
H1048  O1078   0.990   .     S
H1049  O1058   0.990   .     S
H1050  O1059   0.991   .     S
H1051  O1060   0.991   .     S
H1052  O1061   0.989   .     S
H1053  O1062   0.989   .     S
H1054  O1063   0.989   .     S
N1055  Zn1079  2.038   .     S
N1056  Zn1080  2.038   .     S
O1057  Zn1079  1.984   .     S
O1068  Zn1080  1.984   .     S
O1072  Zn1079  1.988   .     S
O1073  Zn1080  1.988   .     S
O1074  Zn1079  2.015   .     S
O1075  Zn1080  2.015   .     S
O1076  Zn1079  2.016   .     S
O1077  Zn1080  2.016   .     S
C1081  O1145   1.289   .     A
C1081  O1129   1.291   .     A
C1081  C1082   1.411   .     S
C1082  C1106   1.400   .     A
C1082  C1109   1.410   .     A
C1083  N1128   1.379   .     A
C1083  O1139   1.374   .     S
C1084  O1141   1.374   .     S
C1084  N1127   1.379   .     A
C1084  C653    1.416   1_565 S
C1085  O1142   1.375   .     S
C1085  N1128   1.377   .     A
C1086  O1143   1.375   .     S
C1086  N1127   1.377   .     A
C1086  C651    1.416   1_565 S
C1087  O1149   1.294   .     A
C1087  O1146   1.298   .     A
C1087  C1093   1.432   .     S
C1088  C1091   1.432   .     S
C1088  O1148   1.294   .     A
C1088  O1147   1.298   .     A
C1089  C1100   1.406   .     A
C1089  O1150   1.384   .     S
C1089  C1091   1.404   .     A
C1090  C1093   1.404   .     A
C1090  C1101   1.406   .     A
C1090  O1130   1.384   .     S
C1091  C1094   1.384   .     A
C1092  O1144   1.289   .     A
C1092  O1140   1.291   .     A
C1092  C1110   1.411   .     S
C1093  C1095   1.384   .     A
C1094  C1096   1.385   .     A
C1094  H1111   1.082   .     S
C1095  H1119   1.082   .     S
C1095  C1097   1.385   .     A
C1096  C1098   1.415   .     A
C1096  C1102   1.411   .     A
C1097  C1099   1.415   .     A
C1097  C1104   1.411   .     A
C1098  C1100   1.426   .     A
C1098  C451    1.399   1_556 S
C1099  C1101   1.426   .     A
C1100  C1105   1.416   .     A
C1101  C1103   1.416   .     A
C1102  O1131   1.381   .     S
C1102  C455    1.403   1_556 S
C1103  O1133   1.386   .     S
C1104  O1132   1.381   .     S
C1105  O1134   1.386   .     S
C1105  C456    1.403   1_556 S
C1106  O1135   1.387   .     S
C1106  C1252   1.390   1_455 S
C1107  O1136   1.387   .     S
C1107  C1110   1.400   .     A
C1107  C1181   1.390   .     S
C1108  C1110   1.410   .     A
C1108  O1137   1.385   .     S
C1108  C1178   1.390   .     S
C1109  O1138   1.385   .     S
C1109  C1251   1.390   1_455 S
H1112  O1136   0.989   .     S
H1113  O1137   0.988   .     S
H1114  O1138   0.988   .     S
H1115  O1139   0.979   .     S
H1116  O1141   0.979   .     S
H1117  O1142   0.980   .     S
H1118  O1143   0.980   .     S
H1120  O1150   0.990   .     S
H1121  O1130   0.990   .     S
H1122  O1131   0.991   .     S
H1123  O1132   0.991   .     S
H1124  O1133   0.989   .     S
H1125  O1134   0.989   .     S
H1126  O1135   0.989   .     S
N1127  Zn1151  2.038   .     S
N1128  Zn1152  2.038   .     S
O1129  Zn1151  1.984   .     S
O1140  Zn1152  1.984   .     S
O1144  Zn1151  1.988   .     S
O1145  Zn1152  1.988   .     S
O1146  Zn1151  2.015   .     S
O1147  Zn1152  2.015   .     S
O1148  Zn1151  2.016   .     S
O1149  Zn1152  2.016   .     S
C1153  O1217   1.289   .     A
C1153  O1201   1.291   .     A
C1153  C1154   1.411   .     S
C1154  C1178   1.400   .     A
C1154  C1181   1.410   .     A
C1155  N1200   1.379   .     A
C1155  O1211   1.374   .     S
C1156  O1213   1.374   .     S
C1156  N1199   1.379   .     A
C1156  C725    1.416   1_565 S
C1157  O1214   1.375   .     S
C1157  N1200   1.377   .     A
C1158  O1215   1.375   .     S
C1158  N1199   1.377   .     A
C1158  C723    1.416   1_565 S
C1159  O1221   1.294   .     A
C1159  O1218   1.298   .     A
C1159  C1165   1.432   .     S
C1160  C1163   1.432   .     S
C1160  O1220   1.294   .     A
C1160  O1219   1.298   .     A
C1161  C1172   1.406   .     A
C1161  O1222   1.384   .     S
C1161  C1163   1.404   .     A
C1162  C1165   1.404   .     A
C1162  C1173   1.406   .     A
C1162  O1202   1.384   .     S
C1163  C1166   1.384   .     A
C1164  O1216   1.289   .     A
C1164  O1212   1.291   .     A
C1164  C1182   1.411   .     S
C1165  C1167   1.384   .     A
C1166  C1168   1.385   .     A
C1166  H1183   1.082   .     S
C1167  H1191   1.082   .     S
C1167  C1169   1.385   .     A
C1168  C1170   1.415   .     A
C1168  C1174   1.411   .     A
C1169  C1171   1.415   .     A
C1169  C1176   1.411   .     A
C1170  C1172   1.426   .     A
C1170  C523    1.399   1_556 S
C1171  C1173   1.426   .     A
C1172  C1177   1.416   .     A
C1173  C1175   1.416   .     A
C1174  O1203   1.381   .     S
C1174  C527    1.403   1_556 S
C1175  O1205   1.386   .     S
C1176  O1204   1.381   .     S
C1177  O1206   1.386   .     S
C1177  C528    1.403   1_556 S
C1178  O1207   1.387   .     S
C1179  O1208   1.387   .     S
C1179  C1182   1.400   .     A
C1179  C1253   1.390   .     S
C1180  C1182   1.410   .     A
C1180  O1209   1.385   .     S
C1180  C1250   1.390   .     S
C1181  O1210   1.385   .     S
H1184  O1208   0.989   .     S
H1185  O1209   0.988   .     S
H1186  O1210   0.988   .     S
H1187  O1211   0.979   .     S
H1188  O1213   0.979   .     S
H1189  O1214   0.980   .     S
H1190  O1215   0.980   .     S
H1192  O1222   0.990   .     S
H1193  O1202   0.990   .     S
H1194  O1203   0.991   .     S
H1195  O1204   0.991   .     S
H1196  O1205   0.989   .     S
H1197  O1206   0.989   .     S
H1198  O1207   0.989   .     S
N1199  Zn1223  2.038   .     S
N1200  Zn1224  2.038   .     S
O1201  Zn1223  1.984   .     S
O1212  Zn1224  1.984   .     S
O1216  Zn1223  1.988   .     S
O1217  Zn1224  1.988   .     S
O1218  Zn1223  2.015   .     S
O1219  Zn1224  2.015   .     S
O1220  Zn1223  2.016   .     S
O1221  Zn1224  2.016   .     S
C1225  O1289   1.289   .     A
C1225  O1273   1.291   .     A
C1225  C1226   1.411   .     S
C1226  C1250   1.400   .     A
C1226  C1253   1.410   .     A
C1227  N1272   1.379   .     A
C1227  O1283   1.374   .     S
C1228  O1285   1.374   .     S
C1228  N1271   1.379   .     A
C1228  C797    1.416   1_565 S
C1229  O1286   1.375   .     S
C1229  N1272   1.377   .     A
C1230  O1287   1.375   .     S
C1230  N1271   1.377   .     A
C1230  C795    1.416   1_565 S
C1231  O1293   1.294   .     A
C1231  O1290   1.298   .     A
C1231  C1237   1.432   .     S
C1232  C1235   1.432   .     S
C1232  O1292   1.294   .     A
C1232  O1291   1.298   .     A
C1233  C1244   1.406   .     A
C1233  O1294   1.384   .     S
C1233  C1235   1.404   .     A
C1234  C1237   1.404   .     A
C1234  C1245   1.406   .     A
C1234  O1274   1.384   .     S
C1235  C1238   1.384   .     A
C1236  O1288   1.289   .     A
C1236  O1284   1.291   .     A
C1236  C1254   1.411   .     S
C1237  C1239   1.384   .     A
C1238  C1240   1.385   .     A
C1238  H1255   1.082   .     S
C1239  H1263   1.082   .     S
C1239  C1241   1.385   .     A
C1240  C1242   1.415   .     A
C1240  C1246   1.411   .     A
C1241  C1243   1.415   .     A
C1241  C1248   1.411   .     A
C1242  C1244   1.426   .     A
C1242  C595    1.399   1_556 S
C1243  C1245   1.426   .     A
C1244  C1249   1.416   .     A
C1245  C1247   1.416   .     A
C1246  O1275   1.381   .     S
C1246  C599    1.403   1_556 S
C1247  O1277   1.386   .     S
C1248  O1276   1.381   .     S
C1249  O1278   1.386   .     S
C1249  C600    1.403   1_556 S
C1250  O1279   1.387   .     S
C1251  O1280   1.387   .     S
C1251  C1254   1.400   .     A
C1251  C1109   1.390   1_655 S
C1252  C1254   1.410   .     A
C1252  O1281   1.385   .     S
C1252  C1106   1.390   1_655 S
C1253  O1282   1.385   .     S
H1256  O1280   0.989   .     S
H1257  O1281   0.988   .     S
H1258  O1282   0.988   .     S
H1259  O1283   0.979   .     S
H1260  O1285   0.979   .     S
H1261  O1286   0.980   .     S
H1262  O1287   0.980   .     S
H1264  O1294   0.990   .     S
H1265  O1274   0.990   .     S
H1266  O1275   0.991   .     S
H1267  O1276   0.991   .     S
H1268  O1277   0.989   .     S
H1269  O1278   0.989   .     S
H1270  O1279   0.989   .     S
N1271  Zn1295  2.038   .     S
N1272  Zn1296  2.038   .     S
O1273  Zn1295  1.984   .     S
O1284  Zn1296  1.984   .     S
O1288  Zn1295  1.988   .     S
O1289  Zn1296  1.988   .     S
O1290  Zn1295  2.015   .     S
O1291  Zn1296  2.015   .     S
O1292  Zn1295  2.016   .     S
O1293  Zn1296  2.016   .     S
