data_str_m3_o1_o18_pcu_sym.36
_audit_creation_date              2020-01-03
_audit_creation_method            'Materials Studio'
_symmetry_space_group_name_H-M    'P1'
_symmetry_Int_Tables_number       1
_symmetry_cell_setting            triclinic
loop_
_symmetry_equiv_pos_as_xyz
  x,y,z
_cell_length_a                    29.5904
_cell_length_b                    31.9496
_cell_length_c                    31.2055
_cell_angle_alpha                 90.0803
_cell_angle_beta                  67.6779
_cell_angle_gamma                 90.1406
loop_
_atom_site_label
_atom_site_type_symbol
_atom_site_fract_x
_atom_site_fract_y
_atom_site_fract_z
_atom_site_U_iso_or_equiv
_atom_site_adp_type
_atom_site_occupancy
C1     C     0.16704   0.24656   0.24923   0.00000  Uiso   1.00
C2     C     0.12746   0.31095   0.28165   0.00000  Uiso   1.00
C3     C     0.16602   0.04263   0.25122   0.00000  Uiso   1.00
C4     C     0.16732   0.29070   0.24878   0.00000  Uiso   1.00
C5     C     0.30122   0.13478   0.27019   0.00000  Uiso   1.00
C6     C     0.03211   0.19856   0.22981   0.00000  Uiso   1.00
C7     C     0.01575   0.13482   0.27025   0.00000  Uiso   1.00
C8     C     0.31758   0.19852   0.22975   0.00000  Uiso   1.00
C9     C     0.13614   0.16671   0.33783   0.00000  Uiso   1.00
C10    C     0.19719   0.16662   0.16217   0.00000  Uiso   1.00
C11    C     0.11735   0.16923   0.38809   0.00000  Uiso   1.00
C12    C     0.16629   0.08678   0.25077   0.00000  Uiso   1.00
C13    C     0.21599   0.16410   0.11191   0.00000  Uiso   1.00
C14    C     0.05693   0.18983   0.46192   0.00000  Uiso   1.00
C15    C     0.27641   0.14350   0.03808   0.00000  Uiso   1.00
C16    C     0.07086   0.18486   0.41422   0.00000  Uiso   1.00
C17    C     0.26247   0.14847   0.08578   0.00000  Uiso   1.00
C18    C     0.14943   0.15938   0.40951   0.00000  Uiso   1.00
C19    C     0.18390   0.17395   0.09049   0.00000  Uiso   1.00
C20    C     0.13907   0.17006   0.45548   0.00000  Uiso   1.00
C21    C     0.19427   0.16327   0.04452   0.00000  Uiso   1.00
C22    C     0.09044   0.18145   0.48286   0.00000  Uiso   1.00
C23    C     0.10714   0.16900   0.05152   0.00000  Uiso   1.00
C24    C     0.24289   0.15189   0.01714   0.00000  Uiso   1.00
C25    C     0.17481   0.16681   0.47544   0.00000  Uiso   1.00
C26    C     0.15852   0.16652   0.02456   0.00000  Uiso   1.00
C27    C     0.08476   0.15378   0.09858   0.00000  Uiso   1.00
C28    C     0.24857   0.17955   0.40142   0.00000  Uiso   1.00
C29    C     0.24699   0.29205   0.18090   0.00000  Uiso   1.00
C30    C     0.08634   0.04129   0.31910   0.00000  Uiso   1.00
C31    C     0.22619   0.16433   0.44848   0.00000  Uiso   1.00
C32    C     0.07490   0.18059   0.03077   0.00000  Uiso   1.00
C33    C     0.25843   0.15274   0.46923   0.00000  Uiso   1.00
C34    C     0.20675   0.31271   0.21671   0.00000  Uiso   1.00
C35    C     0.12658   0.02063   0.28329   0.00000  Uiso   1.00
C36    C     0.20588   0.02239   0.21835   0.00000  Uiso   1.00
H37    H     0.03647   0.18498   0.05190   0.00000  Uiso   1.00
H38    H     0.09771   0.29311   0.30644   0.00000  Uiso   1.00
H39    H     0.27655   0.10933   0.28656   0.00000  Uiso   1.00
H40    H     0.05678   0.22401   0.21344   0.00000  Uiso   1.00
H41    H     0.02720   0.10937   0.28654   0.00000  Uiso   1.00
H42    H     0.30613   0.22397   0.21346   0.00000  Uiso   1.00
H43    H     0.29687   0.14835   0.44810   0.00000  Uiso   1.00
H44    H     0.15099   0.19086   0.11017   0.00000  Uiso   1.00
H45    H     0.18235   0.14247   0.38983   0.00000  Uiso   1.00
H46    H     0.28781   0.14049   0.10200   0.00000  Uiso   1.00
H47    H     0.04552   0.19284   0.39800   0.00000  Uiso   1.00
H48    H     0.02019   0.20023   0.48235   0.00000  Uiso   1.00
H49    H     0.31314   0.13310   0.01765   0.00000  Uiso   1.00
H50    H     0.23563   0.04022   0.19356   0.00000  Uiso   1.00
N51    N     0.04759   0.16668   0.25001   0.00000  Uiso   1.00
N52    N     0.28574   0.16666   0.24999   0.00000  Uiso   1.00
N53    N     0.06665   0.14133   0.13610   0.00000  Uiso   1.00
N54    N     0.26668   0.19200   0.36390   0.00000  Uiso   1.00
N55    N     0.27912   0.27553   0.15218   0.00000  Uiso   1.00
N56    N     0.05422   0.05780   0.34783   0.00000  Uiso   1.00
O57    O     0.12846   0.22775   0.25000   0.00000  Uiso   1.00
O58    O     0.20488   0.10558   0.25000   0.00000  Uiso   1.00
O59    O     0.20490   0.22774   0.25000   0.00000  Uiso   1.00
O60    O     0.12843   0.10559   0.25000   0.00000  Uiso   1.00
O61    O     0.10661   0.16667   0.31612   0.00000  Uiso   1.00
O62    O     0.22672   0.16666   0.18388   0.00000  Uiso   1.00
O63    O     0.18305   0.16666   0.31612   0.00000  Uiso   1.00
O64    O     0.15028   0.16667   0.18388   0.00000  Uiso   1.00
Zn65   Zn    0.11562   0.16667   0.25000   0.00000  Uiso   1.00
Zn66   Zn    0.21771   0.16666   0.25000   0.00000  Uiso   1.00
C67    C     0.50038   0.24656   0.24923   0.00000  Uiso   1.00
C68    C     0.46079   0.31095   0.28165   0.00000  Uiso   1.00
C69    C     0.49935   0.04263   0.25122   0.00000  Uiso   1.00
C70    C     0.50065   0.29070   0.24878   0.00000  Uiso   1.00
C71    C     0.63455   0.13478   0.27019   0.00000  Uiso   1.00
C72    C     0.36545   0.19856   0.22981   0.00000  Uiso   1.00
C73    C     0.34909   0.13482   0.27025   0.00000  Uiso   1.00
C74    C     0.65091   0.19852   0.22975   0.00000  Uiso   1.00
C75    C     0.46947   0.16671   0.33783   0.00000  Uiso   1.00
C76    C     0.53053   0.16662   0.16217   0.00000  Uiso   1.00
C77    C     0.45068   0.16923   0.38809   0.00000  Uiso   1.00
C78    C     0.49962   0.08678   0.25077   0.00000  Uiso   1.00
C79    C     0.54932   0.16410   0.11191   0.00000  Uiso   1.00
C80    C     0.39026   0.18983   0.46192   0.00000  Uiso   1.00
C81    C     0.60974   0.14350   0.03808   0.00000  Uiso   1.00
C82    C     0.40419   0.18486   0.41422   0.00000  Uiso   1.00
C83    C     0.59581   0.14847   0.08578   0.00000  Uiso   1.00
C84    C     0.48277   0.15938   0.40951   0.00000  Uiso   1.00
C85    C     0.51723   0.17395   0.09049   0.00000  Uiso   1.00
C86    C     0.47240   0.17006   0.45548   0.00000  Uiso   1.00
C87    C     0.52760   0.16327   0.04452   0.00000  Uiso   1.00
C88    C     0.42378   0.18145   0.48286   0.00000  Uiso   1.00
C89    C     0.44048   0.16900   0.05152   0.00000  Uiso   1.00
C90    C     0.57622   0.15189   0.01714   0.00000  Uiso   1.00
C91    C     0.50815   0.16681   0.47544   0.00000  Uiso   1.00
C92    C     0.49185   0.16652   0.02456   0.00000  Uiso   1.00
C93    C     0.41809   0.15378   0.09858   0.00000  Uiso   1.00
C94    C     0.58191   0.17955   0.40142   0.00000  Uiso   1.00
C95    C     0.58032   0.29205   0.18090   0.00000  Uiso   1.00
C96    C     0.41968   0.04129   0.31910   0.00000  Uiso   1.00
C97    C     0.55952   0.16433   0.44848   0.00000  Uiso   1.00
C98    C     0.40824   0.18059   0.03077   0.00000  Uiso   1.00
C99    C     0.59176   0.15274   0.46923   0.00000  Uiso   1.00
C100   C     0.54008   0.31271   0.21671   0.00000  Uiso   1.00
C101   C     0.45992   0.02063   0.28329   0.00000  Uiso   1.00
C102   C     0.53921   0.02239   0.21835   0.00000  Uiso   1.00
H103   H     0.36980   0.18498   0.05190   0.00000  Uiso   1.00
H104   H     0.43104   0.29311   0.30644   0.00000  Uiso   1.00
H105   H     0.60988   0.10933   0.28656   0.00000  Uiso   1.00
H106   H     0.39011   0.22401   0.21344   0.00000  Uiso   1.00
H107   H     0.36053   0.10937   0.28654   0.00000  Uiso   1.00
H108   H     0.63947   0.22397   0.21346   0.00000  Uiso   1.00
H109   H     0.63020   0.14835   0.44810   0.00000  Uiso   1.00
H110   H     0.48432   0.19086   0.11017   0.00000  Uiso   1.00
H111   H     0.51568   0.14247   0.38983   0.00000  Uiso   1.00
H112   H     0.62114   0.14049   0.10200   0.00000  Uiso   1.00
H113   H     0.37886   0.19284   0.39800   0.00000  Uiso   1.00
H114   H     0.35352   0.20023   0.48235   0.00000  Uiso   1.00
H115   H     0.64648   0.13310   0.01765   0.00000  Uiso   1.00
H116   H     0.56896   0.04022   0.19356   0.00000  Uiso   1.00
N117   N     0.38093   0.16668   0.25001   0.00000  Uiso   1.00
N118   N     0.61907   0.16666   0.24999   0.00000  Uiso   1.00
N119   N     0.39999   0.14133   0.13610   0.00000  Uiso   1.00
N120   N     0.60001   0.19200   0.36390   0.00000  Uiso   1.00
N121   N     0.61245   0.27553   0.15218   0.00000  Uiso   1.00
N122   N     0.38755   0.05780   0.34783   0.00000  Uiso   1.00
O123   O     0.46179   0.22775   0.25000   0.00000  Uiso   1.00
O124   O     0.53821   0.10558   0.25000   0.00000  Uiso   1.00
O125   O     0.53823   0.22774   0.25000   0.00000  Uiso   1.00
O126   O     0.46177   0.10559   0.25000   0.00000  Uiso   1.00
O127   O     0.43994   0.16667   0.31612   0.00000  Uiso   1.00
O128   O     0.56006   0.16666   0.18388   0.00000  Uiso   1.00
O129   O     0.51639   0.16666   0.31612   0.00000  Uiso   1.00
O130   O     0.48361   0.16667   0.18388   0.00000  Uiso   1.00
Zn131  Zn    0.44896   0.16667   0.25000   0.00000  Uiso   1.00
Zn132  Zn    0.55104   0.16666   0.25000   0.00000  Uiso   1.00
C133   C     0.83371   0.24656   0.24923   0.00000  Uiso   1.00
C134   C     0.79412   0.31095   0.28165   0.00000  Uiso   1.00
C135   C     0.83268   0.04263   0.25122   0.00000  Uiso   1.00
C136   C     0.83398   0.29070   0.24878   0.00000  Uiso   1.00
C137   C     0.96789   0.13478   0.27019   0.00000  Uiso   1.00
C138   C     0.69878   0.19856   0.22981   0.00000  Uiso   1.00
C139   C     0.68242   0.13482   0.27025   0.00000  Uiso   1.00
C140   C     0.98425   0.19852   0.22975   0.00000  Uiso   1.00
C141   C     0.80281   0.16671   0.33783   0.00000  Uiso   1.00
C142   C     0.86386   0.16662   0.16217   0.00000  Uiso   1.00
C143   C     0.78401   0.16923   0.38809   0.00000  Uiso   1.00
C144   C     0.83296   0.08678   0.25077   0.00000  Uiso   1.00
C145   C     0.88265   0.16410   0.11191   0.00000  Uiso   1.00
C146   C     0.72359   0.18983   0.46192   0.00000  Uiso   1.00
C147   C     0.94307   0.14350   0.03808   0.00000  Uiso   1.00
C148   C     0.73753   0.18486   0.41422   0.00000  Uiso   1.00
C149   C     0.92914   0.14847   0.08578   0.00000  Uiso   1.00
C150   C     0.81610   0.15938   0.40951   0.00000  Uiso   1.00
C151   C     0.85057   0.17395   0.09049   0.00000  Uiso   1.00
C152   C     0.80573   0.17006   0.45548   0.00000  Uiso   1.00
C153   C     0.86093   0.16327   0.04452   0.00000  Uiso   1.00
C154   C     0.75711   0.18145   0.48286   0.00000  Uiso   1.00
C155   C     0.77381   0.16900   0.05152   0.00000  Uiso   1.00
C156   C     0.90956   0.15189   0.01714   0.00000  Uiso   1.00
C157   C     0.84148   0.16681   0.47544   0.00000  Uiso   1.00
C158   C     0.82518   0.16652   0.02456   0.00000  Uiso   1.00
C159   C     0.75143   0.15378   0.09858   0.00000  Uiso   1.00
C160   C     0.91524   0.17955   0.40142   0.00000  Uiso   1.00
C161   C     0.91366   0.29205   0.18090   0.00000  Uiso   1.00
C162   C     0.75301   0.04129   0.31910   0.00000  Uiso   1.00
C163   C     0.89286   0.16433   0.44848   0.00000  Uiso   1.00
C164   C     0.74157   0.18059   0.03077   0.00000  Uiso   1.00
C165   C     0.92510   0.15274   0.46923   0.00000  Uiso   1.00
C166   C     0.87342   0.31271   0.21671   0.00000  Uiso   1.00
C167   C     0.79325   0.02063   0.28329   0.00000  Uiso   1.00
C168   C     0.87254   0.02239   0.21835   0.00000  Uiso   1.00
H169   H     0.70313   0.18498   0.05190   0.00000  Uiso   1.00
H170   H     0.76437   0.29311   0.30644   0.00000  Uiso   1.00
H171   H     0.94322   0.10933   0.28656   0.00000  Uiso   1.00
H172   H     0.72345   0.22401   0.21344   0.00000  Uiso   1.00
H173   H     0.69386   0.10937   0.28654   0.00000  Uiso   1.00
H174   H     0.97280   0.22397   0.21346   0.00000  Uiso   1.00
H175   H     0.96353   0.14835   0.44810   0.00000  Uiso   1.00
H176   H     0.81765   0.19086   0.11017   0.00000  Uiso   1.00
H177   H     0.84901   0.14247   0.38983   0.00000  Uiso   1.00
H178   H     0.95448   0.14049   0.10200   0.00000  Uiso   1.00
H179   H     0.71219   0.19284   0.39800   0.00000  Uiso   1.00
H180   H     0.68686   0.20023   0.48235   0.00000  Uiso   1.00
H181   H     0.97981   0.13310   0.01765   0.00000  Uiso   1.00
H182   H     0.90229   0.04022   0.19356   0.00000  Uiso   1.00
N183   N     0.71426   0.16668   0.25001   0.00000  Uiso   1.00
N184   N     0.95241   0.16666   0.24999   0.00000  Uiso   1.00
N185   N     0.73332   0.14133   0.13610   0.00000  Uiso   1.00
N186   N     0.93335   0.19200   0.36390   0.00000  Uiso   1.00
N187   N     0.94579   0.27553   0.15218   0.00000  Uiso   1.00
N188   N     0.72088   0.05780   0.34783   0.00000  Uiso   1.00
O189   O     0.79512   0.22775   0.25000   0.00000  Uiso   1.00
O190   O     0.87154   0.10558   0.25000   0.00000  Uiso   1.00
O191   O     0.87157   0.22774   0.25000   0.00000  Uiso   1.00
O192   O     0.79510   0.10559   0.25000   0.00000  Uiso   1.00
O193   O     0.77328   0.16667   0.31612   0.00000  Uiso   1.00
O194   O     0.89339   0.16666   0.18388   0.00000  Uiso   1.00
O195   O     0.84972   0.16666   0.31612   0.00000  Uiso   1.00
O196   O     0.81695   0.16667   0.18388   0.00000  Uiso   1.00
Zn197  Zn    0.78229   0.16667   0.25000   0.00000  Uiso   1.00
Zn198  Zn    0.88438   0.16666   0.25000   0.00000  Uiso   1.00
C199   C     0.16704   0.57989   0.24923   0.00000  Uiso   1.00
C200   C     0.12746   0.64428   0.28165   0.00000  Uiso   1.00
C201   C     0.16602   0.37597   0.25122   0.00000  Uiso   1.00
C202   C     0.16732   0.62403   0.24878   0.00000  Uiso   1.00
C203   C     0.30122   0.46811   0.27019   0.00000  Uiso   1.00
C204   C     0.03211   0.53189   0.22981   0.00000  Uiso   1.00
C205   C     0.01575   0.46815   0.27025   0.00000  Uiso   1.00
C206   C     0.31758   0.53185   0.22975   0.00000  Uiso   1.00
C207   C     0.13614   0.50005   0.33783   0.00000  Uiso   1.00
C208   C     0.19719   0.49995   0.16217   0.00000  Uiso   1.00
C209   C     0.11735   0.50257   0.38809   0.00000  Uiso   1.00
C210   C     0.16629   0.42011   0.25077   0.00000  Uiso   1.00
C211   C     0.21599   0.49743   0.11191   0.00000  Uiso   1.00
C212   C     0.05693   0.52317   0.46192   0.00000  Uiso   1.00
C213   C     0.27641   0.47683   0.03808   0.00000  Uiso   1.00
C214   C     0.07086   0.51819   0.41422   0.00000  Uiso   1.00
C215   C     0.26247   0.48181   0.08578   0.00000  Uiso   1.00
C216   C     0.14943   0.49271   0.40951   0.00000  Uiso   1.00
C217   C     0.18390   0.50728   0.09049   0.00000  Uiso   1.00
C218   C     0.13907   0.50339   0.45548   0.00000  Uiso   1.00
C219   C     0.19427   0.49661   0.04452   0.00000  Uiso   1.00
C220   C     0.09044   0.51478   0.48286   0.00000  Uiso   1.00
C221   C     0.10714   0.50234   0.05152   0.00000  Uiso   1.00
C222   C     0.24289   0.48522   0.01714   0.00000  Uiso   1.00
C223   C     0.17481   0.50015   0.47544   0.00000  Uiso   1.00
C224   C     0.15852   0.49985   0.02456   0.00000  Uiso   1.00
C225   C     0.08476   0.48711   0.09858   0.00000  Uiso   1.00
C226   C     0.24857   0.51289   0.40142   0.00000  Uiso   1.00
C227   C     0.24699   0.62538   0.18090   0.00000  Uiso   1.00
C228   C     0.08634   0.37462   0.31910   0.00000  Uiso   1.00
C229   C     0.22619   0.49766   0.44848   0.00000  Uiso   1.00
C230   C     0.07490   0.51393   0.03077   0.00000  Uiso   1.00
C231   C     0.25843   0.48607   0.46923   0.00000  Uiso   1.00
C232   C     0.20675   0.64604   0.21671   0.00000  Uiso   1.00
C233   C     0.12658   0.35396   0.28329   0.00000  Uiso   1.00
C234   C     0.20588   0.35572   0.21835   0.00000  Uiso   1.00
H235   H     0.03647   0.51831   0.05190   0.00000  Uiso   1.00
H236   H     0.09771   0.62644   0.30644   0.00000  Uiso   1.00
H237   H     0.27655   0.44266   0.28656   0.00000  Uiso   1.00
H238   H     0.05678   0.55734   0.21344   0.00000  Uiso   1.00
H239   H     0.02720   0.44270   0.28654   0.00000  Uiso   1.00
H240   H     0.30613   0.55730   0.21346   0.00000  Uiso   1.00
H241   H     0.29687   0.48169   0.44810   0.00000  Uiso   1.00
H242   H     0.15099   0.52419   0.11017   0.00000  Uiso   1.00
H243   H     0.18235   0.47581   0.38983   0.00000  Uiso   1.00
H244   H     0.28781   0.47382   0.10200   0.00000  Uiso   1.00
H245   H     0.04552   0.52618   0.39800   0.00000  Uiso   1.00
H246   H     0.02019   0.53356   0.48235   0.00000  Uiso   1.00
H247   H     0.31314   0.46644   0.01765   0.00000  Uiso   1.00
H248   H     0.23563   0.37356   0.19356   0.00000  Uiso   1.00
N249   N     0.04759   0.50001   0.25001   0.00000  Uiso   1.00
N250   N     0.28574   0.49999   0.24999   0.00000  Uiso   1.00
N251   N     0.06665   0.47467   0.13610   0.00000  Uiso   1.00
N252   N     0.26668   0.52533   0.36390   0.00000  Uiso   1.00
N253   N     0.27912   0.60887   0.15218   0.00000  Uiso   1.00
N254   N     0.05422   0.39113   0.34783   0.00000  Uiso   1.00
O255   O     0.12846   0.56108   0.25000   0.00000  Uiso   1.00
O256   O     0.20488   0.43892   0.25000   0.00000  Uiso   1.00
O257   O     0.20490   0.56107   0.25000   0.00000  Uiso   1.00
O258   O     0.12843   0.43893   0.25000   0.00000  Uiso   1.00
O259   O     0.10661   0.50001   0.31612   0.00000  Uiso   1.00
O260   O     0.22672   0.49999   0.18388   0.00000  Uiso   1.00
O261   O     0.18305   0.50000   0.31612   0.00000  Uiso   1.00
O262   O     0.15028   0.50000   0.18388   0.00000  Uiso   1.00
Zn263  Zn    0.11562   0.50001   0.25000   0.00000  Uiso   1.00
Zn264  Zn    0.21771   0.49999   0.25000   0.00000  Uiso   1.00
C265   C     0.50038   0.57989   0.24923   0.00000  Uiso   1.00
C266   C     0.46079   0.64428   0.28165   0.00000  Uiso   1.00
C267   C     0.49935   0.37597   0.25122   0.00000  Uiso   1.00
C268   C     0.50065   0.62403   0.24878   0.00000  Uiso   1.00
C269   C     0.63455   0.46811   0.27019   0.00000  Uiso   1.00
C270   C     0.36545   0.53189   0.22981   0.00000  Uiso   1.00
C271   C     0.34909   0.46815   0.27025   0.00000  Uiso   1.00
C272   C     0.65091   0.53185   0.22975   0.00000  Uiso   1.00
C273   C     0.46947   0.50005   0.33783   0.00000  Uiso   1.00
C274   C     0.53053   0.49995   0.16217   0.00000  Uiso   1.00
C275   C     0.45068   0.50257   0.38809   0.00000  Uiso   1.00
C276   C     0.49962   0.42011   0.25077   0.00000  Uiso   1.00
C277   C     0.54932   0.49743   0.11191   0.00000  Uiso   1.00
C278   C     0.39026   0.52317   0.46192   0.00000  Uiso   1.00
C279   C     0.60974   0.47683   0.03808   0.00000  Uiso   1.00
C280   C     0.40419   0.51819   0.41422   0.00000  Uiso   1.00
C281   C     0.59581   0.48181   0.08578   0.00000  Uiso   1.00
C282   C     0.48277   0.49271   0.40951   0.00000  Uiso   1.00
C283   C     0.51723   0.50728   0.09049   0.00000  Uiso   1.00
C284   C     0.47240   0.50339   0.45548   0.00000  Uiso   1.00
C285   C     0.52760   0.49661   0.04452   0.00000  Uiso   1.00
C286   C     0.42378   0.51478   0.48286   0.00000  Uiso   1.00
C287   C     0.44048   0.50234   0.05152   0.00000  Uiso   1.00
C288   C     0.57622   0.48522   0.01714   0.00000  Uiso   1.00
C289   C     0.50815   0.50015   0.47544   0.00000  Uiso   1.00
C290   C     0.49185   0.49985   0.02456   0.00000  Uiso   1.00
C291   C     0.41809   0.48711   0.09858   0.00000  Uiso   1.00
C292   C     0.58191   0.51289   0.40142   0.00000  Uiso   1.00
C293   C     0.58032   0.62538   0.18090   0.00000  Uiso   1.00
C294   C     0.41968   0.37462   0.31910   0.00000  Uiso   1.00
C295   C     0.55952   0.49766   0.44848   0.00000  Uiso   1.00
C296   C     0.40824   0.51393   0.03077   0.00000  Uiso   1.00
C297   C     0.59176   0.48607   0.46923   0.00000  Uiso   1.00
C298   C     0.54008   0.64604   0.21671   0.00000  Uiso   1.00
C299   C     0.45992   0.35396   0.28329   0.00000  Uiso   1.00
C300   C     0.53921   0.35572   0.21835   0.00000  Uiso   1.00
H301   H     0.36980   0.51831   0.05190   0.00000  Uiso   1.00
H302   H     0.43104   0.62644   0.30644   0.00000  Uiso   1.00
H303   H     0.60988   0.44266   0.28656   0.00000  Uiso   1.00
H304   H     0.39011   0.55734   0.21344   0.00000  Uiso   1.00
H305   H     0.36053   0.44270   0.28654   0.00000  Uiso   1.00
H306   H     0.63947   0.55730   0.21346   0.00000  Uiso   1.00
H307   H     0.63020   0.48169   0.44810   0.00000  Uiso   1.00
H308   H     0.48432   0.52419   0.11017   0.00000  Uiso   1.00
H309   H     0.51568   0.47581   0.38983   0.00000  Uiso   1.00
H310   H     0.62114   0.47382   0.10200   0.00000  Uiso   1.00
H311   H     0.37886   0.52618   0.39800   0.00000  Uiso   1.00
H312   H     0.35352   0.53356   0.48235   0.00000  Uiso   1.00
H313   H     0.64648   0.46644   0.01765   0.00000  Uiso   1.00
H314   H     0.56896   0.37356   0.19356   0.00000  Uiso   1.00
N315   N     0.38093   0.50001   0.25001   0.00000  Uiso   1.00
N316   N     0.61907   0.49999   0.24999   0.00000  Uiso   1.00
N317   N     0.39999   0.47467   0.13610   0.00000  Uiso   1.00
N318   N     0.60001   0.52533   0.36390   0.00000  Uiso   1.00
N319   N     0.61245   0.60887   0.15218   0.00000  Uiso   1.00
N320   N     0.38755   0.39113   0.34783   0.00000  Uiso   1.00
O321   O     0.46179   0.56108   0.25000   0.00000  Uiso   1.00
O322   O     0.53821   0.43892   0.25000   0.00000  Uiso   1.00
O323   O     0.53823   0.56107   0.25000   0.00000  Uiso   1.00
O324   O     0.46177   0.43893   0.25000   0.00000  Uiso   1.00
O325   O     0.43994   0.50001   0.31612   0.00000  Uiso   1.00
O326   O     0.56006   0.49999   0.18388   0.00000  Uiso   1.00
O327   O     0.51639   0.50000   0.31612   0.00000  Uiso   1.00
O328   O     0.48361   0.50000   0.18388   0.00000  Uiso   1.00
Zn329  Zn    0.44896   0.50001   0.25000   0.00000  Uiso   1.00
Zn330  Zn    0.55104   0.49999   0.25000   0.00000  Uiso   1.00
C331   C     0.83371   0.57989   0.24923   0.00000  Uiso   1.00
C332   C     0.79412   0.64428   0.28165   0.00000  Uiso   1.00
C333   C     0.83268   0.37597   0.25122   0.00000  Uiso   1.00
C334   C     0.83398   0.62403   0.24878   0.00000  Uiso   1.00
C335   C     0.96789   0.46811   0.27019   0.00000  Uiso   1.00
C336   C     0.69878   0.53189   0.22981   0.00000  Uiso   1.00
C337   C     0.68242   0.46815   0.27025   0.00000  Uiso   1.00
C338   C     0.98425   0.53185   0.22975   0.00000  Uiso   1.00
C339   C     0.80281   0.50005   0.33783   0.00000  Uiso   1.00
C340   C     0.86386   0.49995   0.16217   0.00000  Uiso   1.00
C341   C     0.78401   0.50257   0.38809   0.00000  Uiso   1.00
C342   C     0.83296   0.42011   0.25077   0.00000  Uiso   1.00
C343   C     0.88265   0.49743   0.11191   0.00000  Uiso   1.00
C344   C     0.72359   0.52317   0.46192   0.00000  Uiso   1.00
C345   C     0.94307   0.47683   0.03808   0.00000  Uiso   1.00
C346   C     0.73753   0.51819   0.41422   0.00000  Uiso   1.00
C347   C     0.92914   0.48181   0.08578   0.00000  Uiso   1.00
C348   C     0.81610   0.49271   0.40951   0.00000  Uiso   1.00
C349   C     0.85057   0.50728   0.09049   0.00000  Uiso   1.00
C350   C     0.80573   0.50339   0.45548   0.00000  Uiso   1.00
C351   C     0.86093   0.49661   0.04452   0.00000  Uiso   1.00
C352   C     0.75711   0.51478   0.48286   0.00000  Uiso   1.00
C353   C     0.77381   0.50234   0.05152   0.00000  Uiso   1.00
C354   C     0.90956   0.48522   0.01714   0.00000  Uiso   1.00
C355   C     0.84148   0.50015   0.47544   0.00000  Uiso   1.00
C356   C     0.82518   0.49985   0.02456   0.00000  Uiso   1.00
C357   C     0.75143   0.48711   0.09858   0.00000  Uiso   1.00
C358   C     0.91524   0.51289   0.40142   0.00000  Uiso   1.00
C359   C     0.91366   0.62538   0.18090   0.00000  Uiso   1.00
C360   C     0.75301   0.37462   0.31910   0.00000  Uiso   1.00
C361   C     0.89286   0.49766   0.44848   0.00000  Uiso   1.00
C362   C     0.74157   0.51393   0.03077   0.00000  Uiso   1.00
C363   C     0.92510   0.48607   0.46923   0.00000  Uiso   1.00
C364   C     0.87342   0.64604   0.21671   0.00000  Uiso   1.00
C365   C     0.79325   0.35396   0.28329   0.00000  Uiso   1.00
C366   C     0.87254   0.35572   0.21835   0.00000  Uiso   1.00
H367   H     0.70313   0.51831   0.05190   0.00000  Uiso   1.00
H368   H     0.76437   0.62644   0.30644   0.00000  Uiso   1.00
H369   H     0.94322   0.44266   0.28656   0.00000  Uiso   1.00
H370   H     0.72345   0.55734   0.21344   0.00000  Uiso   1.00
H371   H     0.69386   0.44270   0.28654   0.00000  Uiso   1.00
H372   H     0.97280   0.55730   0.21346   0.00000  Uiso   1.00
H373   H     0.96353   0.48169   0.44810   0.00000  Uiso   1.00
H374   H     0.81765   0.52419   0.11017   0.00000  Uiso   1.00
H375   H     0.84901   0.47581   0.38983   0.00000  Uiso   1.00
H376   H     0.95448   0.47382   0.10200   0.00000  Uiso   1.00
H377   H     0.71219   0.52618   0.39800   0.00000  Uiso   1.00
H378   H     0.68686   0.53356   0.48235   0.00000  Uiso   1.00
H379   H     0.97981   0.46644   0.01765   0.00000  Uiso   1.00
H380   H     0.90229   0.37356   0.19356   0.00000  Uiso   1.00
N381   N     0.71426   0.50001   0.25001   0.00000  Uiso   1.00
N382   N     0.95241   0.49999   0.24999   0.00000  Uiso   1.00
N383   N     0.73332   0.47467   0.13610   0.00000  Uiso   1.00
N384   N     0.93335   0.52533   0.36390   0.00000  Uiso   1.00
N385   N     0.94579   0.60887   0.15218   0.00000  Uiso   1.00
N386   N     0.72088   0.39113   0.34783   0.00000  Uiso   1.00
O387   O     0.79512   0.56108   0.25000   0.00000  Uiso   1.00
O388   O     0.87154   0.43892   0.25000   0.00000  Uiso   1.00
O389   O     0.87157   0.56107   0.25000   0.00000  Uiso   1.00
O390   O     0.79510   0.43893   0.25000   0.00000  Uiso   1.00
O391   O     0.77328   0.50001   0.31612   0.00000  Uiso   1.00
O392   O     0.89339   0.49999   0.18388   0.00000  Uiso   1.00
O393   O     0.84972   0.50000   0.31612   0.00000  Uiso   1.00
O394   O     0.81695   0.50000   0.18388   0.00000  Uiso   1.00
Zn395  Zn    0.78229   0.50001   0.25000   0.00000  Uiso   1.00
Zn396  Zn    0.88438   0.49999   0.25000   0.00000  Uiso   1.00
C397   C     0.16704   0.91322   0.24923   0.00000  Uiso   1.00
C398   C     0.12746   0.97761   0.28165   0.00000  Uiso   1.00
C399   C     0.16602   0.70930   0.25122   0.00000  Uiso   1.00
C400   C     0.16732   0.95737   0.24878   0.00000  Uiso   1.00
C401   C     0.30122   0.80144   0.27019   0.00000  Uiso   1.00
C402   C     0.03211   0.86522   0.22981   0.00000  Uiso   1.00
C403   C     0.01575   0.80148   0.27025   0.00000  Uiso   1.00
C404   C     0.31758   0.86518   0.22975   0.00000  Uiso   1.00
C405   C     0.13614   0.83338   0.33783   0.00000  Uiso   1.00
C406   C     0.19719   0.83329   0.16217   0.00000  Uiso   1.00
C407   C     0.11735   0.83590   0.38809   0.00000  Uiso   1.00
C408   C     0.16629   0.75344   0.25077   0.00000  Uiso   1.00
C409   C     0.21599   0.83077   0.11191   0.00000  Uiso   1.00
C410   C     0.05693   0.85650   0.46192   0.00000  Uiso   1.00
C411   C     0.27641   0.81017   0.03808   0.00000  Uiso   1.00
C412   C     0.07086   0.85153   0.41422   0.00000  Uiso   1.00
C413   C     0.26247   0.81514   0.08578   0.00000  Uiso   1.00
C414   C     0.14943   0.82605   0.40951   0.00000  Uiso   1.00
C415   C     0.18390   0.84062   0.09049   0.00000  Uiso   1.00
C416   C     0.13907   0.83673   0.45548   0.00000  Uiso   1.00
C417   C     0.19427   0.82994   0.04452   0.00000  Uiso   1.00
C418   C     0.09044   0.84811   0.48286   0.00000  Uiso   1.00
C419   C     0.10714   0.83567   0.05152   0.00000  Uiso   1.00
C420   C     0.24289   0.81855   0.01714   0.00000  Uiso   1.00
C421   C     0.17481   0.83348   0.47544   0.00000  Uiso   1.00
C422   C     0.15852   0.83318   0.02456   0.00000  Uiso   1.00
C423   C     0.08476   0.82045   0.09858   0.00000  Uiso   1.00
C424   C     0.24857   0.84622   0.40142   0.00000  Uiso   1.00
C425   C     0.24699   0.95871   0.18090   0.00000  Uiso   1.00
C426   C     0.08634   0.70795   0.31910   0.00000  Uiso   1.00
C427   C     0.22619   0.83100   0.44848   0.00000  Uiso   1.00
C428   C     0.07490   0.84726   0.03077   0.00000  Uiso   1.00
C429   C     0.25843   0.81941   0.46923   0.00000  Uiso   1.00
C430   C     0.20675   0.97937   0.21671   0.00000  Uiso   1.00
C431   C     0.12658   0.68729   0.28329   0.00000  Uiso   1.00
C432   C     0.20588   0.68905   0.21835   0.00000  Uiso   1.00
H433   H     0.03647   0.85165   0.05190   0.00000  Uiso   1.00
H434   H     0.09771   0.95978   0.30644   0.00000  Uiso   1.00
H435   H     0.27655   0.77599   0.28656   0.00000  Uiso   1.00
H436   H     0.05678   0.89067   0.21344   0.00000  Uiso   1.00
H437   H     0.02720   0.77603   0.28654   0.00000  Uiso   1.00
H438   H     0.30613   0.89063   0.21346   0.00000  Uiso   1.00
H439   H     0.29687   0.81502   0.44810   0.00000  Uiso   1.00
H440   H     0.15099   0.85753   0.11017   0.00000  Uiso   1.00
H441   H     0.18235   0.80914   0.38983   0.00000  Uiso   1.00
H442   H     0.28781   0.80716   0.10200   0.00000  Uiso   1.00
H443   H     0.04552   0.85951   0.39800   0.00000  Uiso   1.00
H444   H     0.02019   0.86690   0.48235   0.00000  Uiso   1.00
H445   H     0.31314   0.79977   0.01765   0.00000  Uiso   1.00
H446   H     0.23563   0.70689   0.19356   0.00000  Uiso   1.00
N447   N     0.04759   0.83334   0.25001   0.00000  Uiso   1.00
N448   N     0.28574   0.83332   0.24999   0.00000  Uiso   1.00
N449   N     0.06665   0.80800   0.13610   0.00000  Uiso   1.00
N450   N     0.26668   0.85866   0.36390   0.00000  Uiso   1.00
N451   N     0.27912   0.94220   0.15218   0.00000  Uiso   1.00
N452   N     0.05422   0.72447   0.34783   0.00000  Uiso   1.00
O453   O     0.12846   0.89442   0.25000   0.00000  Uiso   1.00
O454   O     0.20488   0.77225   0.25000   0.00000  Uiso   1.00
O455   O     0.20490   0.89441   0.25000   0.00000  Uiso   1.00
O456   O     0.12843   0.77226   0.25000   0.00000  Uiso   1.00
O457   O     0.10661   0.83334   0.31612   0.00000  Uiso   1.00
O458   O     0.22672   0.83333   0.18388   0.00000  Uiso   1.00
O459   O     0.18305   0.83333   0.31612   0.00000  Uiso   1.00
O460   O     0.15028   0.83334   0.18388   0.00000  Uiso   1.00
Zn461  Zn    0.11562   0.83334   0.25000   0.00000  Uiso   1.00
Zn462  Zn    0.21771   0.83333   0.25000   0.00000  Uiso   1.00
C463   C     0.50038   0.91322   0.24923   0.00000  Uiso   1.00
C464   C     0.46079   0.97761   0.28165   0.00000  Uiso   1.00
C465   C     0.49935   0.70930   0.25122   0.00000  Uiso   1.00
C466   C     0.50065   0.95737   0.24878   0.00000  Uiso   1.00
C467   C     0.63455   0.80144   0.27019   0.00000  Uiso   1.00
C468   C     0.36545   0.86522   0.22981   0.00000  Uiso   1.00
C469   C     0.34909   0.80148   0.27025   0.00000  Uiso   1.00
C470   C     0.65091   0.86518   0.22975   0.00000  Uiso   1.00
C471   C     0.46947   0.83338   0.33783   0.00000  Uiso   1.00
C472   C     0.53053   0.83329   0.16217   0.00000  Uiso   1.00
C473   C     0.45068   0.83590   0.38809   0.00000  Uiso   1.00
C474   C     0.49962   0.75344   0.25077   0.00000  Uiso   1.00
C475   C     0.54932   0.83077   0.11191   0.00000  Uiso   1.00
C476   C     0.39026   0.85650   0.46192   0.00000  Uiso   1.00
C477   C     0.60974   0.81017   0.03808   0.00000  Uiso   1.00
C478   C     0.40419   0.85153   0.41422   0.00000  Uiso   1.00
C479   C     0.59581   0.81514   0.08578   0.00000  Uiso   1.00
C480   C     0.48277   0.82605   0.40951   0.00000  Uiso   1.00
C481   C     0.51723   0.84062   0.09049   0.00000  Uiso   1.00
C482   C     0.47240   0.83673   0.45548   0.00000  Uiso   1.00
C483   C     0.52760   0.82994   0.04452   0.00000  Uiso   1.00
C484   C     0.42378   0.84811   0.48286   0.00000  Uiso   1.00
C485   C     0.44048   0.83567   0.05152   0.00000  Uiso   1.00
C486   C     0.57622   0.81855   0.01714   0.00000  Uiso   1.00
C487   C     0.50815   0.83348   0.47544   0.00000  Uiso   1.00
C488   C     0.49185   0.83318   0.02456   0.00000  Uiso   1.00
C489   C     0.41809   0.82045   0.09858   0.00000  Uiso   1.00
C490   C     0.58191   0.84622   0.40142   0.00000  Uiso   1.00
C491   C     0.58032   0.95871   0.18090   0.00000  Uiso   1.00
C492   C     0.41968   0.70795   0.31910   0.00000  Uiso   1.00
C493   C     0.55952   0.83100   0.44848   0.00000  Uiso   1.00
C494   C     0.40824   0.84726   0.03077   0.00000  Uiso   1.00
C495   C     0.59176   0.81941   0.46923   0.00000  Uiso   1.00
C496   C     0.54008   0.97937   0.21671   0.00000  Uiso   1.00
C497   C     0.45992   0.68729   0.28329   0.00000  Uiso   1.00
C498   C     0.53921   0.68905   0.21835   0.00000  Uiso   1.00
H499   H     0.36980   0.85165   0.05190   0.00000  Uiso   1.00
H500   H     0.43104   0.95978   0.30644   0.00000  Uiso   1.00
H501   H     0.60988   0.77599   0.28656   0.00000  Uiso   1.00
H502   H     0.39011   0.89067   0.21344   0.00000  Uiso   1.00
H503   H     0.36053   0.77603   0.28654   0.00000  Uiso   1.00
H504   H     0.63947   0.89063   0.21346   0.00000  Uiso   1.00
H505   H     0.63020   0.81502   0.44810   0.00000  Uiso   1.00
H506   H     0.48432   0.85753   0.11017   0.00000  Uiso   1.00
H507   H     0.51568   0.80914   0.38983   0.00000  Uiso   1.00
H508   H     0.62114   0.80716   0.10200   0.00000  Uiso   1.00
H509   H     0.37886   0.85951   0.39800   0.00000  Uiso   1.00
H510   H     0.35352   0.86690   0.48235   0.00000  Uiso   1.00
H511   H     0.64648   0.79977   0.01765   0.00000  Uiso   1.00
H512   H     0.56896   0.70689   0.19356   0.00000  Uiso   1.00
N513   N     0.38093   0.83334   0.25001   0.00000  Uiso   1.00
N514   N     0.61907   0.83332   0.24999   0.00000  Uiso   1.00
N515   N     0.39999   0.80800   0.13610   0.00000  Uiso   1.00
N516   N     0.60001   0.85866   0.36390   0.00000  Uiso   1.00
N517   N     0.61245   0.94220   0.15218   0.00000  Uiso   1.00
N518   N     0.38755   0.72447   0.34783   0.00000  Uiso   1.00
O519   O     0.46179   0.89442   0.25000   0.00000  Uiso   1.00
O520   O     0.53821   0.77225   0.25000   0.00000  Uiso   1.00
O521   O     0.53823   0.89441   0.25000   0.00000  Uiso   1.00
O522   O     0.46177   0.77226   0.25000   0.00000  Uiso   1.00
O523   O     0.43994   0.83334   0.31612   0.00000  Uiso   1.00
O524   O     0.56006   0.83333   0.18388   0.00000  Uiso   1.00
O525   O     0.51639   0.83333   0.31612   0.00000  Uiso   1.00
O526   O     0.48361   0.83334   0.18388   0.00000  Uiso   1.00
Zn527  Zn    0.44896   0.83334   0.25000   0.00000  Uiso   1.00
Zn528  Zn    0.55104   0.83333   0.25000   0.00000  Uiso   1.00
C529   C     0.83371   0.91322   0.24923   0.00000  Uiso   1.00
C530   C     0.79412   0.97761   0.28165   0.00000  Uiso   1.00
C531   C     0.83268   0.70930   0.25122   0.00000  Uiso   1.00
C532   C     0.83398   0.95737   0.24878   0.00000  Uiso   1.00
C533   C     0.96789   0.80144   0.27019   0.00000  Uiso   1.00
C534   C     0.69878   0.86522   0.22981   0.00000  Uiso   1.00
C535   C     0.68242   0.80148   0.27025   0.00000  Uiso   1.00
C536   C     0.98425   0.86518   0.22975   0.00000  Uiso   1.00
C537   C     0.80281   0.83338   0.33783   0.00000  Uiso   1.00
C538   C     0.86386   0.83329   0.16217   0.00000  Uiso   1.00
C539   C     0.78401   0.83590   0.38809   0.00000  Uiso   1.00
C540   C     0.83296   0.75344   0.25077   0.00000  Uiso   1.00
C541   C     0.88265   0.83077   0.11191   0.00000  Uiso   1.00
C542   C     0.72359   0.85650   0.46192   0.00000  Uiso   1.00
C543   C     0.94307   0.81017   0.03808   0.00000  Uiso   1.00
C544   C     0.73753   0.85153   0.41422   0.00000  Uiso   1.00
C545   C     0.92914   0.81514   0.08578   0.00000  Uiso   1.00
C546   C     0.81610   0.82605   0.40951   0.00000  Uiso   1.00
C547   C     0.85057   0.84062   0.09049   0.00000  Uiso   1.00
C548   C     0.80573   0.83673   0.45548   0.00000  Uiso   1.00
C549   C     0.86093   0.82994   0.04452   0.00000  Uiso   1.00
C550   C     0.75711   0.84811   0.48286   0.00000  Uiso   1.00
C551   C     0.77381   0.83567   0.05152   0.00000  Uiso   1.00
C552   C     0.90956   0.81855   0.01714   0.00000  Uiso   1.00
C553   C     0.84148   0.83348   0.47544   0.00000  Uiso   1.00
C554   C     0.82518   0.83318   0.02456   0.00000  Uiso   1.00
C555   C     0.75143   0.82045   0.09858   0.00000  Uiso   1.00
C556   C     0.91524   0.84622   0.40142   0.00000  Uiso   1.00
C557   C     0.91366   0.95871   0.18090   0.00000  Uiso   1.00
C558   C     0.75301   0.70795   0.31910   0.00000  Uiso   1.00
C559   C     0.89286   0.83100   0.44848   0.00000  Uiso   1.00
C560   C     0.74157   0.84726   0.03077   0.00000  Uiso   1.00
C561   C     0.92510   0.81941   0.46923   0.00000  Uiso   1.00
C562   C     0.87342   0.97937   0.21671   0.00000  Uiso   1.00
C563   C     0.79325   0.68729   0.28329   0.00000  Uiso   1.00
C564   C     0.87254   0.68905   0.21835   0.00000  Uiso   1.00
H565   H     0.70313   0.85165   0.05190   0.00000  Uiso   1.00
H566   H     0.76437   0.95978   0.30644   0.00000  Uiso   1.00
H567   H     0.94322   0.77599   0.28656   0.00000  Uiso   1.00
H568   H     0.72345   0.89067   0.21344   0.00000  Uiso   1.00
H569   H     0.69386   0.77603   0.28654   0.00000  Uiso   1.00
H570   H     0.97280   0.89063   0.21346   0.00000  Uiso   1.00
H571   H     0.96353   0.81502   0.44810   0.00000  Uiso   1.00
H572   H     0.81765   0.85753   0.11017   0.00000  Uiso   1.00
H573   H     0.84901   0.80914   0.38983   0.00000  Uiso   1.00
H574   H     0.95448   0.80716   0.10200   0.00000  Uiso   1.00
H575   H     0.71219   0.85951   0.39800   0.00000  Uiso   1.00
H576   H     0.68686   0.86690   0.48235   0.00000  Uiso   1.00
H577   H     0.97981   0.79977   0.01765   0.00000  Uiso   1.00
H578   H     0.90229   0.70689   0.19356   0.00000  Uiso   1.00
N579   N     0.71426   0.83334   0.25001   0.00000  Uiso   1.00
N580   N     0.95241   0.83332   0.24999   0.00000  Uiso   1.00
N581   N     0.73332   0.80800   0.13610   0.00000  Uiso   1.00
N582   N     0.93335   0.85866   0.36390   0.00000  Uiso   1.00
N583   N     0.94579   0.94220   0.15218   0.00000  Uiso   1.00
N584   N     0.72088   0.72447   0.34783   0.00000  Uiso   1.00
O585   O     0.79512   0.89442   0.25000   0.00000  Uiso   1.00
O586   O     0.87154   0.77225   0.25000   0.00000  Uiso   1.00
O587   O     0.87157   0.89441   0.25000   0.00000  Uiso   1.00
O588   O     0.79510   0.77226   0.25000   0.00000  Uiso   1.00
O589   O     0.77328   0.83334   0.31612   0.00000  Uiso   1.00
O590   O     0.89339   0.83333   0.18388   0.00000  Uiso   1.00
O591   O     0.84972   0.83333   0.31612   0.00000  Uiso   1.00
O592   O     0.81695   0.83334   0.18388   0.00000  Uiso   1.00
Zn593  Zn    0.78229   0.83334   0.25000   0.00000  Uiso   1.00
Zn594  Zn    0.88438   0.83333   0.25000   0.00000  Uiso   1.00
C595   C     0.16704   0.24656   0.74923   0.00000  Uiso   1.00
C596   C     0.12746   0.31095   0.78165   0.00000  Uiso   1.00
C597   C     0.16602   0.04263   0.75122   0.00000  Uiso   1.00
C598   C     0.16732   0.29070   0.74878   0.00000  Uiso   1.00
C599   C     0.30122   0.13478   0.77019   0.00000  Uiso   1.00
C600   C     0.03211   0.19856   0.72981   0.00000  Uiso   1.00
C601   C     0.01575   0.13482   0.77025   0.00000  Uiso   1.00
C602   C     0.31758   0.19852   0.72975   0.00000  Uiso   1.00
C603   C     0.13614   0.16671   0.83783   0.00000  Uiso   1.00
C604   C     0.19719   0.16662   0.66217   0.00000  Uiso   1.00
C605   C     0.11735   0.16923   0.88809   0.00000  Uiso   1.00
C606   C     0.16629   0.08678   0.75077   0.00000  Uiso   1.00
C607   C     0.21599   0.16410   0.61191   0.00000  Uiso   1.00
C608   C     0.05693   0.18983   0.96192   0.00000  Uiso   1.00
C609   C     0.27641   0.14350   0.53808   0.00000  Uiso   1.00
C610   C     0.07086   0.18486   0.91422   0.00000  Uiso   1.00
C611   C     0.26247   0.14847   0.58578   0.00000  Uiso   1.00
C612   C     0.14943   0.15938   0.90951   0.00000  Uiso   1.00
C613   C     0.18390   0.17395   0.59049   0.00000  Uiso   1.00
C614   C     0.13907   0.17006   0.95548   0.00000  Uiso   1.00
C615   C     0.19427   0.16327   0.54452   0.00000  Uiso   1.00
C616   C     0.09044   0.18145   0.98286   0.00000  Uiso   1.00
C617   C     0.10714   0.16900   0.55152   0.00000  Uiso   1.00
C618   C     0.24289   0.15189   0.51714   0.00000  Uiso   1.00
C619   C     0.17481   0.16681   0.97544   0.00000  Uiso   1.00
C620   C     0.15852   0.16652   0.52456   0.00000  Uiso   1.00
C621   C     0.08476   0.15378   0.59858   0.00000  Uiso   1.00
C622   C     0.24857   0.17955   0.90142   0.00000  Uiso   1.00
C623   C     0.24699   0.29205   0.68090   0.00000  Uiso   1.00
C624   C     0.08634   0.04129   0.81910   0.00000  Uiso   1.00
C625   C     0.22619   0.16433   0.94848   0.00000  Uiso   1.00
C626   C     0.07490   0.18059   0.53077   0.00000  Uiso   1.00
C627   C     0.25843   0.15274   0.96923   0.00000  Uiso   1.00
C628   C     0.20675   0.31271   0.71671   0.00000  Uiso   1.00
C629   C     0.12658   0.02063   0.78329   0.00000  Uiso   1.00
C630   C     0.20588   0.02239   0.71835   0.00000  Uiso   1.00
H631   H     0.03647   0.18498   0.55190   0.00000  Uiso   1.00
H632   H     0.09771   0.29311   0.80644   0.00000  Uiso   1.00
H633   H     0.27655   0.10933   0.78656   0.00000  Uiso   1.00
H634   H     0.05678   0.22401   0.71344   0.00000  Uiso   1.00
H635   H     0.02720   0.10937   0.78654   0.00000  Uiso   1.00
H636   H     0.30613   0.22397   0.71346   0.00000  Uiso   1.00
H637   H     0.29687   0.14835   0.94810   0.00000  Uiso   1.00
H638   H     0.15099   0.19086   0.61017   0.00000  Uiso   1.00
H639   H     0.18235   0.14247   0.88983   0.00000  Uiso   1.00
H640   H     0.28781   0.14049   0.60200   0.00000  Uiso   1.00
H641   H     0.04552   0.19284   0.89800   0.00000  Uiso   1.00
H642   H     0.02019   0.20023   0.98235   0.00000  Uiso   1.00
H643   H     0.31314   0.13310   0.51765   0.00000  Uiso   1.00
H644   H     0.23563   0.04022   0.69356   0.00000  Uiso   1.00
N645   N     0.04759   0.16668   0.75001   0.00000  Uiso   1.00
N646   N     0.28574   0.16666   0.74999   0.00000  Uiso   1.00
N647   N     0.06665   0.14133   0.63610   0.00000  Uiso   1.00
N648   N     0.26668   0.19200   0.86390   0.00000  Uiso   1.00
N649   N     0.27912   0.27553   0.65218   0.00000  Uiso   1.00
N650   N     0.05422   0.05780   0.84783   0.00000  Uiso   1.00
O651   O     0.12846   0.22775   0.75000   0.00000  Uiso   1.00
O652   O     0.20488   0.10558   0.75000   0.00000  Uiso   1.00
O653   O     0.20490   0.22774   0.75000   0.00000  Uiso   1.00
O654   O     0.12843   0.10559   0.75000   0.00000  Uiso   1.00
O655   O     0.10661   0.16667   0.81612   0.00000  Uiso   1.00
O656   O     0.22672   0.16666   0.68388   0.00000  Uiso   1.00
O657   O     0.18305   0.16666   0.81612   0.00000  Uiso   1.00
O658   O     0.15028   0.16667   0.68388   0.00000  Uiso   1.00
Zn659  Zn    0.11562   0.16667   0.75000   0.00000  Uiso   1.00
Zn660  Zn    0.21771   0.16666   0.75000   0.00000  Uiso   1.00
C661   C     0.50038   0.24656   0.74923   0.00000  Uiso   1.00
C662   C     0.46079   0.31095   0.78165   0.00000  Uiso   1.00
C663   C     0.49935   0.04263   0.75122   0.00000  Uiso   1.00
C664   C     0.50065   0.29070   0.74878   0.00000  Uiso   1.00
C665   C     0.63455   0.13478   0.77019   0.00000  Uiso   1.00
C666   C     0.36545   0.19856   0.72981   0.00000  Uiso   1.00
C667   C     0.34909   0.13482   0.77025   0.00000  Uiso   1.00
C668   C     0.65091   0.19852   0.72975   0.00000  Uiso   1.00
C669   C     0.46947   0.16671   0.83783   0.00000  Uiso   1.00
C670   C     0.53053   0.16662   0.66217   0.00000  Uiso   1.00
C671   C     0.45068   0.16923   0.88809   0.00000  Uiso   1.00
C672   C     0.49962   0.08678   0.75077   0.00000  Uiso   1.00
C673   C     0.54932   0.16410   0.61191   0.00000  Uiso   1.00
C674   C     0.39026   0.18983   0.96192   0.00000  Uiso   1.00
C675   C     0.60974   0.14350   0.53808   0.00000  Uiso   1.00
C676   C     0.40419   0.18486   0.91422   0.00000  Uiso   1.00
C677   C     0.59581   0.14847   0.58578   0.00000  Uiso   1.00
C678   C     0.48277   0.15938   0.90951   0.00000  Uiso   1.00
C679   C     0.51723   0.17395   0.59049   0.00000  Uiso   1.00
C680   C     0.47240   0.17006   0.95548   0.00000  Uiso   1.00
C681   C     0.52760   0.16327   0.54452   0.00000  Uiso   1.00
C682   C     0.42378   0.18145   0.98286   0.00000  Uiso   1.00
C683   C     0.44048   0.16900   0.55152   0.00000  Uiso   1.00
C684   C     0.57622   0.15189   0.51714   0.00000  Uiso   1.00
C685   C     0.50815   0.16681   0.97544   0.00000  Uiso   1.00
C686   C     0.49185   0.16652   0.52456   0.00000  Uiso   1.00
C687   C     0.41809   0.15378   0.59858   0.00000  Uiso   1.00
C688   C     0.58191   0.17955   0.90142   0.00000  Uiso   1.00
C689   C     0.58032   0.29205   0.68090   0.00000  Uiso   1.00
C690   C     0.41968   0.04129   0.81910   0.00000  Uiso   1.00
C691   C     0.55952   0.16433   0.94848   0.00000  Uiso   1.00
C692   C     0.40824   0.18059   0.53077   0.00000  Uiso   1.00
C693   C     0.59176   0.15274   0.96923   0.00000  Uiso   1.00
C694   C     0.54008   0.31271   0.71671   0.00000  Uiso   1.00
C695   C     0.45992   0.02063   0.78329   0.00000  Uiso   1.00
C696   C     0.53921   0.02239   0.71835   0.00000  Uiso   1.00
H697   H     0.36980   0.18498   0.55190   0.00000  Uiso   1.00
H698   H     0.43104   0.29311   0.80644   0.00000  Uiso   1.00
H699   H     0.60988   0.10933   0.78656   0.00000  Uiso   1.00
H700   H     0.39011   0.22401   0.71344   0.00000  Uiso   1.00
H701   H     0.36053   0.10937   0.78654   0.00000  Uiso   1.00
H702   H     0.63947   0.22397   0.71346   0.00000  Uiso   1.00
H703   H     0.63020   0.14835   0.94810   0.00000  Uiso   1.00
H704   H     0.48432   0.19086   0.61017   0.00000  Uiso   1.00
H705   H     0.51568   0.14247   0.88983   0.00000  Uiso   1.00
H706   H     0.62114   0.14049   0.60200   0.00000  Uiso   1.00
H707   H     0.37886   0.19284   0.89800   0.00000  Uiso   1.00
H708   H     0.35352   0.20023   0.98235   0.00000  Uiso   1.00
H709   H     0.64648   0.13310   0.51765   0.00000  Uiso   1.00
H710   H     0.56896   0.04022   0.69356   0.00000  Uiso   1.00
N711   N     0.38093   0.16668   0.75001   0.00000  Uiso   1.00
N712   N     0.61907   0.16666   0.74999   0.00000  Uiso   1.00
N713   N     0.39999   0.14133   0.63610   0.00000  Uiso   1.00
N714   N     0.60001   0.19200   0.86390   0.00000  Uiso   1.00
N715   N     0.61245   0.27553   0.65218   0.00000  Uiso   1.00
N716   N     0.38755   0.05780   0.84783   0.00000  Uiso   1.00
O717   O     0.46179   0.22775   0.75000   0.00000  Uiso   1.00
O718   O     0.53821   0.10558   0.75000   0.00000  Uiso   1.00
O719   O     0.53823   0.22774   0.75000   0.00000  Uiso   1.00
O720   O     0.46177   0.10559   0.75000   0.00000  Uiso   1.00
O721   O     0.43994   0.16667   0.81612   0.00000  Uiso   1.00
O722   O     0.56006   0.16666   0.68388   0.00000  Uiso   1.00
O723   O     0.51639   0.16666   0.81612   0.00000  Uiso   1.00
O724   O     0.48361   0.16667   0.68388   0.00000  Uiso   1.00
Zn725  Zn    0.44896   0.16667   0.75000   0.00000  Uiso   1.00
Zn726  Zn    0.55104   0.16666   0.75000   0.00000  Uiso   1.00
C727   C     0.83371   0.24656   0.74923   0.00000  Uiso   1.00
C728   C     0.79412   0.31095   0.78165   0.00000  Uiso   1.00
C729   C     0.83268   0.04263   0.75122   0.00000  Uiso   1.00
C730   C     0.83398   0.29070   0.74878   0.00000  Uiso   1.00
C731   C     0.96789   0.13478   0.77019   0.00000  Uiso   1.00
C732   C     0.69878   0.19856   0.72981   0.00000  Uiso   1.00
C733   C     0.68242   0.13482   0.77025   0.00000  Uiso   1.00
C734   C     0.98425   0.19852   0.72975   0.00000  Uiso   1.00
C735   C     0.80281   0.16671   0.83783   0.00000  Uiso   1.00
C736   C     0.86386   0.16662   0.66217   0.00000  Uiso   1.00
C737   C     0.78401   0.16923   0.88809   0.00000  Uiso   1.00
C738   C     0.83296   0.08678   0.75077   0.00000  Uiso   1.00
C739   C     0.88265   0.16410   0.61191   0.00000  Uiso   1.00
C740   C     0.72359   0.18983   0.96192   0.00000  Uiso   1.00
C741   C     0.94307   0.14350   0.53808   0.00000  Uiso   1.00
C742   C     0.73753   0.18486   0.91422   0.00000  Uiso   1.00
C743   C     0.92914   0.14847   0.58578   0.00000  Uiso   1.00
C744   C     0.81610   0.15938   0.90951   0.00000  Uiso   1.00
C745   C     0.85057   0.17395   0.59049   0.00000  Uiso   1.00
C746   C     0.80573   0.17006   0.95548   0.00000  Uiso   1.00
C747   C     0.86093   0.16327   0.54452   0.00000  Uiso   1.00
C748   C     0.75711   0.18145   0.98286   0.00000  Uiso   1.00
C749   C     0.77381   0.16900   0.55152   0.00000  Uiso   1.00
C750   C     0.90956   0.15189   0.51714   0.00000  Uiso   1.00
C751   C     0.84148   0.16681   0.97544   0.00000  Uiso   1.00
C752   C     0.82518   0.16652   0.52456   0.00000  Uiso   1.00
C753   C     0.75143   0.15378   0.59858   0.00000  Uiso   1.00
C754   C     0.91524   0.17955   0.90142   0.00000  Uiso   1.00
C755   C     0.91366   0.29205   0.68090   0.00000  Uiso   1.00
C756   C     0.75301   0.04129   0.81910   0.00000  Uiso   1.00
C757   C     0.89286   0.16433   0.94848   0.00000  Uiso   1.00
C758   C     0.74157   0.18059   0.53077   0.00000  Uiso   1.00
C759   C     0.92510   0.15274   0.96923   0.00000  Uiso   1.00
C760   C     0.87342   0.31271   0.71671   0.00000  Uiso   1.00
C761   C     0.79325   0.02063   0.78329   0.00000  Uiso   1.00
C762   C     0.87254   0.02239   0.71835   0.00000  Uiso   1.00
H763   H     0.70313   0.18498   0.55190   0.00000  Uiso   1.00
H764   H     0.76437   0.29311   0.80644   0.00000  Uiso   1.00
H765   H     0.94322   0.10933   0.78656   0.00000  Uiso   1.00
H766   H     0.72345   0.22401   0.71344   0.00000  Uiso   1.00
H767   H     0.69386   0.10937   0.78654   0.00000  Uiso   1.00
H768   H     0.97280   0.22397   0.71346   0.00000  Uiso   1.00
H769   H     0.96353   0.14835   0.94810   0.00000  Uiso   1.00
H770   H     0.81765   0.19086   0.61017   0.00000  Uiso   1.00
H771   H     0.84901   0.14247   0.88983   0.00000  Uiso   1.00
H772   H     0.95448   0.14049   0.60200   0.00000  Uiso   1.00
H773   H     0.71219   0.19284   0.89800   0.00000  Uiso   1.00
H774   H     0.68686   0.20023   0.98235   0.00000  Uiso   1.00
H775   H     0.97981   0.13310   0.51765   0.00000  Uiso   1.00
H776   H     0.90229   0.04022   0.69356   0.00000  Uiso   1.00
N777   N     0.71426   0.16668   0.75001   0.00000  Uiso   1.00
N778   N     0.95241   0.16666   0.74999   0.00000  Uiso   1.00
N779   N     0.73332   0.14133   0.63610   0.00000  Uiso   1.00
N780   N     0.93335   0.19200   0.86390   0.00000  Uiso   1.00
N781   N     0.94579   0.27553   0.65218   0.00000  Uiso   1.00
N782   N     0.72088   0.05780   0.84783   0.00000  Uiso   1.00
O783   O     0.79512   0.22775   0.75000   0.00000  Uiso   1.00
O784   O     0.87154   0.10558   0.75000   0.00000  Uiso   1.00
O785   O     0.87157   0.22774   0.75000   0.00000  Uiso   1.00
O786   O     0.79510   0.10559   0.75000   0.00000  Uiso   1.00
O787   O     0.77328   0.16667   0.81612   0.00000  Uiso   1.00
O788   O     0.89339   0.16666   0.68388   0.00000  Uiso   1.00
O789   O     0.84972   0.16666   0.81612   0.00000  Uiso   1.00
O790   O     0.81695   0.16667   0.68388   0.00000  Uiso   1.00
Zn791  Zn    0.78229   0.16667   0.75000   0.00000  Uiso   1.00
Zn792  Zn    0.88438   0.16666   0.75000   0.00000  Uiso   1.00
C793   C     0.16704   0.57989   0.74923   0.00000  Uiso   1.00
C794   C     0.12746   0.64428   0.78165   0.00000  Uiso   1.00
C795   C     0.16602   0.37597   0.75122   0.00000  Uiso   1.00
C796   C     0.16732   0.62403   0.74878   0.00000  Uiso   1.00
C797   C     0.30122   0.46811   0.77019   0.00000  Uiso   1.00
C798   C     0.03211   0.53189   0.72981   0.00000  Uiso   1.00
C799   C     0.01575   0.46815   0.77025   0.00000  Uiso   1.00
C800   C     0.31758   0.53185   0.72975   0.00000  Uiso   1.00
C801   C     0.13614   0.50005   0.83783   0.00000  Uiso   1.00
C802   C     0.19719   0.49995   0.66217   0.00000  Uiso   1.00
C803   C     0.11735   0.50257   0.88809   0.00000  Uiso   1.00
C804   C     0.16629   0.42011   0.75077   0.00000  Uiso   1.00
C805   C     0.21599   0.49743   0.61191   0.00000  Uiso   1.00
C806   C     0.05693   0.52317   0.96192   0.00000  Uiso   1.00
C807   C     0.27641   0.47683   0.53808   0.00000  Uiso   1.00
C808   C     0.07086   0.51819   0.91422   0.00000  Uiso   1.00
C809   C     0.26247   0.48181   0.58578   0.00000  Uiso   1.00
C810   C     0.14943   0.49271   0.90951   0.00000  Uiso   1.00
C811   C     0.18390   0.50728   0.59049   0.00000  Uiso   1.00
C812   C     0.13907   0.50339   0.95548   0.00000  Uiso   1.00
C813   C     0.19427   0.49661   0.54452   0.00000  Uiso   1.00
C814   C     0.09044   0.51478   0.98286   0.00000  Uiso   1.00
C815   C     0.10714   0.50234   0.55152   0.00000  Uiso   1.00
C816   C     0.24289   0.48522   0.51714   0.00000  Uiso   1.00
C817   C     0.17481   0.50015   0.97544   0.00000  Uiso   1.00
C818   C     0.15852   0.49985   0.52456   0.00000  Uiso   1.00
C819   C     0.08476   0.48711   0.59858   0.00000  Uiso   1.00
C820   C     0.24857   0.51289   0.90142   0.00000  Uiso   1.00
C821   C     0.24699   0.62538   0.68090   0.00000  Uiso   1.00
C822   C     0.08634   0.37462   0.81910   0.00000  Uiso   1.00
C823   C     0.22619   0.49766   0.94848   0.00000  Uiso   1.00
C824   C     0.07490   0.51393   0.53077   0.00000  Uiso   1.00
C825   C     0.25843   0.48607   0.96923   0.00000  Uiso   1.00
C826   C     0.20675   0.64604   0.71671   0.00000  Uiso   1.00
C827   C     0.12658   0.35396   0.78329   0.00000  Uiso   1.00
C828   C     0.20588   0.35572   0.71835   0.00000  Uiso   1.00
H829   H     0.03647   0.51831   0.55190   0.00000  Uiso   1.00
H830   H     0.09771   0.62644   0.80644   0.00000  Uiso   1.00
H831   H     0.27655   0.44266   0.78656   0.00000  Uiso   1.00
H832   H     0.05678   0.55734   0.71344   0.00000  Uiso   1.00
H833   H     0.02720   0.44270   0.78654   0.00000  Uiso   1.00
H834   H     0.30613   0.55730   0.71346   0.00000  Uiso   1.00
H835   H     0.29687   0.48169   0.94810   0.00000  Uiso   1.00
H836   H     0.15099   0.52419   0.61017   0.00000  Uiso   1.00
H837   H     0.18235   0.47581   0.88983   0.00000  Uiso   1.00
H838   H     0.28781   0.47382   0.60200   0.00000  Uiso   1.00
H839   H     0.04552   0.52618   0.89800   0.00000  Uiso   1.00
H840   H     0.02019   0.53356   0.98235   0.00000  Uiso   1.00
H841   H     0.31314   0.46644   0.51765   0.00000  Uiso   1.00
H842   H     0.23563   0.37356   0.69356   0.00000  Uiso   1.00
N843   N     0.04759   0.50001   0.75001   0.00000  Uiso   1.00
N844   N     0.28574   0.49999   0.74999   0.00000  Uiso   1.00
N845   N     0.06665   0.47467   0.63610   0.00000  Uiso   1.00
N846   N     0.26668   0.52533   0.86390   0.00000  Uiso   1.00
N847   N     0.27912   0.60887   0.65218   0.00000  Uiso   1.00
N848   N     0.05422   0.39113   0.84783   0.00000  Uiso   1.00
O849   O     0.12846   0.56108   0.75000   0.00000  Uiso   1.00
O850   O     0.20488   0.43892   0.75000   0.00000  Uiso   1.00
O851   O     0.20490   0.56107   0.75000   0.00000  Uiso   1.00
O852   O     0.12843   0.43893   0.75000   0.00000  Uiso   1.00
O853   O     0.10661   0.50001   0.81612   0.00000  Uiso   1.00
O854   O     0.22672   0.49999   0.68388   0.00000  Uiso   1.00
O855   O     0.18305   0.50000   0.81612   0.00000  Uiso   1.00
O856   O     0.15028   0.50000   0.68388   0.00000  Uiso   1.00
Zn857  Zn    0.11562   0.50001   0.75000   0.00000  Uiso   1.00
Zn858  Zn    0.21771   0.49999   0.75000   0.00000  Uiso   1.00
C859   C     0.50038   0.57989   0.74923   0.00000  Uiso   1.00
C860   C     0.46079   0.64428   0.78165   0.00000  Uiso   1.00
C861   C     0.49935   0.37597   0.75122   0.00000  Uiso   1.00
C862   C     0.50065   0.62403   0.74878   0.00000  Uiso   1.00
C863   C     0.63455   0.46811   0.77019   0.00000  Uiso   1.00
C864   C     0.36545   0.53189   0.72981   0.00000  Uiso   1.00
C865   C     0.34909   0.46815   0.77025   0.00000  Uiso   1.00
C866   C     0.65091   0.53185   0.72975   0.00000  Uiso   1.00
C867   C     0.46947   0.50005   0.83783   0.00000  Uiso   1.00
C868   C     0.53053   0.49995   0.66217   0.00000  Uiso   1.00
C869   C     0.45068   0.50257   0.88809   0.00000  Uiso   1.00
C870   C     0.49962   0.42011   0.75077   0.00000  Uiso   1.00
C871   C     0.54932   0.49743   0.61191   0.00000  Uiso   1.00
C872   C     0.39026   0.52317   0.96192   0.00000  Uiso   1.00
C873   C     0.60974   0.47683   0.53808   0.00000  Uiso   1.00
C874   C     0.40419   0.51819   0.91422   0.00000  Uiso   1.00
C875   C     0.59581   0.48181   0.58578   0.00000  Uiso   1.00
C876   C     0.48277   0.49271   0.90951   0.00000  Uiso   1.00
C877   C     0.51723   0.50728   0.59049   0.00000  Uiso   1.00
C878   C     0.47240   0.50339   0.95548   0.00000  Uiso   1.00
C879   C     0.52760   0.49661   0.54452   0.00000  Uiso   1.00
C880   C     0.42378   0.51478   0.98286   0.00000  Uiso   1.00
C881   C     0.44048   0.50234   0.55152   0.00000  Uiso   1.00
C882   C     0.57622   0.48522   0.51714   0.00000  Uiso   1.00
C883   C     0.50815   0.50015   0.97544   0.00000  Uiso   1.00
C884   C     0.49185   0.49985   0.52456   0.00000  Uiso   1.00
C885   C     0.41809   0.48711   0.59858   0.00000  Uiso   1.00
C886   C     0.58191   0.51289   0.90142   0.00000  Uiso   1.00
C887   C     0.58032   0.62538   0.68090   0.00000  Uiso   1.00
C888   C     0.41968   0.37462   0.81910   0.00000  Uiso   1.00
C889   C     0.55952   0.49766   0.94848   0.00000  Uiso   1.00
C890   C     0.40824   0.51393   0.53077   0.00000  Uiso   1.00
C891   C     0.59176   0.48607   0.96923   0.00000  Uiso   1.00
C892   C     0.54008   0.64604   0.71671   0.00000  Uiso   1.00
C893   C     0.45992   0.35396   0.78329   0.00000  Uiso   1.00
C894   C     0.53921   0.35572   0.71835   0.00000  Uiso   1.00
H895   H     0.36980   0.51831   0.55190   0.00000  Uiso   1.00
H896   H     0.43104   0.62644   0.80644   0.00000  Uiso   1.00
H897   H     0.60988   0.44266   0.78656   0.00000  Uiso   1.00
H898   H     0.39011   0.55734   0.71344   0.00000  Uiso   1.00
H899   H     0.36053   0.44270   0.78654   0.00000  Uiso   1.00
H900   H     0.63947   0.55730   0.71346   0.00000  Uiso   1.00
H901   H     0.63020   0.48169   0.94810   0.00000  Uiso   1.00
H902   H     0.48432   0.52419   0.61017   0.00000  Uiso   1.00
H903   H     0.51568   0.47581   0.88983   0.00000  Uiso   1.00
H904   H     0.62114   0.47382   0.60200   0.00000  Uiso   1.00
H905   H     0.37886   0.52618   0.89800   0.00000  Uiso   1.00
H906   H     0.35352   0.53356   0.98235   0.00000  Uiso   1.00
H907   H     0.64648   0.46644   0.51765   0.00000  Uiso   1.00
H908   H     0.56896   0.37356   0.69356   0.00000  Uiso   1.00
N909   N     0.38093   0.50001   0.75001   0.00000  Uiso   1.00
N910   N     0.61907   0.49999   0.74999   0.00000  Uiso   1.00
N911   N     0.39999   0.47467   0.63610   0.00000  Uiso   1.00
N912   N     0.60001   0.52533   0.86390   0.00000  Uiso   1.00
N913   N     0.61245   0.60887   0.65218   0.00000  Uiso   1.00
N914   N     0.38755   0.39113   0.84783   0.00000  Uiso   1.00
O915   O     0.46179   0.56108   0.75000   0.00000  Uiso   1.00
O916   O     0.53821   0.43892   0.75000   0.00000  Uiso   1.00
O917   O     0.53823   0.56107   0.75000   0.00000  Uiso   1.00
O918   O     0.46177   0.43893   0.75000   0.00000  Uiso   1.00
O919   O     0.43994   0.50001   0.81612   0.00000  Uiso   1.00
O920   O     0.56006   0.49999   0.68388   0.00000  Uiso   1.00
O921   O     0.51639   0.50000   0.81612   0.00000  Uiso   1.00
O922   O     0.48361   0.50000   0.68388   0.00000  Uiso   1.00
Zn923  Zn    0.44896   0.50001   0.75000   0.00000  Uiso   1.00
Zn924  Zn    0.55104   0.49999   0.75000   0.00000  Uiso   1.00
C925   C     0.83371   0.57989   0.74923   0.00000  Uiso   1.00
C926   C     0.79412   0.64428   0.78165   0.00000  Uiso   1.00
C927   C     0.83268   0.37597   0.75122   0.00000  Uiso   1.00
C928   C     0.83398   0.62403   0.74878   0.00000  Uiso   1.00
C929   C     0.96789   0.46811   0.77019   0.00000  Uiso   1.00
C930   C     0.69878   0.53189   0.72981   0.00000  Uiso   1.00
C931   C     0.68242   0.46815   0.77025   0.00000  Uiso   1.00
C932   C     0.98425   0.53185   0.72975   0.00000  Uiso   1.00
C933   C     0.80281   0.50005   0.83783   0.00000  Uiso   1.00
C934   C     0.86386   0.49995   0.66217   0.00000  Uiso   1.00
C935   C     0.78401   0.50257   0.88809   0.00000  Uiso   1.00
C936   C     0.83296   0.42011   0.75077   0.00000  Uiso   1.00
C937   C     0.88265   0.49743   0.61191   0.00000  Uiso   1.00
C938   C     0.72359   0.52317   0.96192   0.00000  Uiso   1.00
C939   C     0.94307   0.47683   0.53808   0.00000  Uiso   1.00
C940   C     0.73753   0.51819   0.91422   0.00000  Uiso   1.00
C941   C     0.92914   0.48181   0.58578   0.00000  Uiso   1.00
C942   C     0.81610   0.49271   0.90951   0.00000  Uiso   1.00
C943   C     0.85057   0.50728   0.59049   0.00000  Uiso   1.00
C944   C     0.80573   0.50339   0.95548   0.00000  Uiso   1.00
C945   C     0.86093   0.49661   0.54452   0.00000  Uiso   1.00
C946   C     0.75711   0.51478   0.98286   0.00000  Uiso   1.00
C947   C     0.77381   0.50234   0.55152   0.00000  Uiso   1.00
C948   C     0.90956   0.48522   0.51714   0.00000  Uiso   1.00
C949   C     0.84148   0.50015   0.97544   0.00000  Uiso   1.00
C950   C     0.82518   0.49985   0.52456   0.00000  Uiso   1.00
C951   C     0.75143   0.48711   0.59858   0.00000  Uiso   1.00
C952   C     0.91524   0.51289   0.90142   0.00000  Uiso   1.00
C953   C     0.91366   0.62538   0.68090   0.00000  Uiso   1.00
C954   C     0.75301   0.37462   0.81910   0.00000  Uiso   1.00
C955   C     0.89286   0.49766   0.94848   0.00000  Uiso   1.00
C956   C     0.74157   0.51393   0.53077   0.00000  Uiso   1.00
C957   C     0.92510   0.48607   0.96923   0.00000  Uiso   1.00
C958   C     0.87342   0.64604   0.71671   0.00000  Uiso   1.00
C959   C     0.79325   0.35396   0.78329   0.00000  Uiso   1.00
C960   C     0.87254   0.35572   0.71835   0.00000  Uiso   1.00
H961   H     0.70313   0.51831   0.55190   0.00000  Uiso   1.00
H962   H     0.76437   0.62644   0.80644   0.00000  Uiso   1.00
H963   H     0.94322   0.44266   0.78656   0.00000  Uiso   1.00
H964   H     0.72345   0.55734   0.71344   0.00000  Uiso   1.00
H965   H     0.69386   0.44270   0.78654   0.00000  Uiso   1.00
H966   H     0.97280   0.55730   0.71346   0.00000  Uiso   1.00
H967   H     0.96353   0.48169   0.94810   0.00000  Uiso   1.00
H968   H     0.81765   0.52419   0.61017   0.00000  Uiso   1.00
H969   H     0.84901   0.47581   0.88983   0.00000  Uiso   1.00
H970   H     0.95448   0.47382   0.60200   0.00000  Uiso   1.00
H971   H     0.71219   0.52618   0.89800   0.00000  Uiso   1.00
H972   H     0.68686   0.53356   0.98235   0.00000  Uiso   1.00
H973   H     0.97981   0.46644   0.51765   0.00000  Uiso   1.00
H974   H     0.90229   0.37356   0.69356   0.00000  Uiso   1.00
N975   N     0.71426   0.50001   0.75001   0.00000  Uiso   1.00
N976   N     0.95241   0.49999   0.74999   0.00000  Uiso   1.00
N977   N     0.73332   0.47467   0.63610   0.00000  Uiso   1.00
N978   N     0.93335   0.52533   0.86390   0.00000  Uiso   1.00
N979   N     0.94579   0.60887   0.65218   0.00000  Uiso   1.00
N980   N     0.72088   0.39113   0.84783   0.00000  Uiso   1.00
O981   O     0.79512   0.56108   0.75000   0.00000  Uiso   1.00
O982   O     0.87154   0.43892   0.75000   0.00000  Uiso   1.00
O983   O     0.87157   0.56107   0.75000   0.00000  Uiso   1.00
O984   O     0.79510   0.43893   0.75000   0.00000  Uiso   1.00
O985   O     0.77328   0.50001   0.81612   0.00000  Uiso   1.00
O986   O     0.89339   0.49999   0.68388   0.00000  Uiso   1.00
O987   O     0.84972   0.50000   0.81612   0.00000  Uiso   1.00
O988   O     0.81695   0.50000   0.68388   0.00000  Uiso   1.00
Zn989  Zn    0.78229   0.50001   0.75000   0.00000  Uiso   1.00
Zn990  Zn    0.88438   0.49999   0.75000   0.00000  Uiso   1.00
C991   C     0.16704   0.91322   0.74923   0.00000  Uiso   1.00
C992   C     0.12746   0.97761   0.78165   0.00000  Uiso   1.00
C993   C     0.16602   0.70930   0.75122   0.00000  Uiso   1.00
C994   C     0.16732   0.95737   0.74878   0.00000  Uiso   1.00
C995   C     0.30122   0.80144   0.77019   0.00000  Uiso   1.00
C996   C     0.03211   0.86522   0.72981   0.00000  Uiso   1.00
C997   C     0.01575   0.80148   0.77025   0.00000  Uiso   1.00
C998   C     0.31758   0.86518   0.72975   0.00000  Uiso   1.00
C999   C     0.13614   0.83338   0.83783   0.00000  Uiso   1.00
C1000  C     0.19719   0.83329   0.66217   0.00000  Uiso   1.00
C1001  C     0.11735   0.83590   0.88809   0.00000  Uiso   1.00
C1002  C     0.16629   0.75344   0.75077   0.00000  Uiso   1.00
C1003  C     0.21599   0.83077   0.61191   0.00000  Uiso   1.00
C1004  C     0.05693   0.85650   0.96192   0.00000  Uiso   1.00
C1005  C     0.27641   0.81017   0.53808   0.00000  Uiso   1.00
C1006  C     0.07086   0.85153   0.91422   0.00000  Uiso   1.00
C1007  C     0.26247   0.81514   0.58578   0.00000  Uiso   1.00
C1008  C     0.14943   0.82605   0.90951   0.00000  Uiso   1.00
C1009  C     0.18390   0.84062   0.59049   0.00000  Uiso   1.00
C1010  C     0.13907   0.83673   0.95548   0.00000  Uiso   1.00
C1011  C     0.19427   0.82994   0.54452   0.00000  Uiso   1.00
C1012  C     0.09044   0.84811   0.98286   0.00000  Uiso   1.00
C1013  C     0.10714   0.83567   0.55152   0.00000  Uiso   1.00
C1014  C     0.24289   0.81855   0.51714   0.00000  Uiso   1.00
C1015  C     0.17481   0.83348   0.97544   0.00000  Uiso   1.00
C1016  C     0.15852   0.83318   0.52456   0.00000  Uiso   1.00
C1017  C     0.08476   0.82045   0.59858   0.00000  Uiso   1.00
C1018  C     0.24857   0.84622   0.90142   0.00000  Uiso   1.00
C1019  C     0.24699   0.95871   0.68090   0.00000  Uiso   1.00
C1020  C     0.08634   0.70795   0.81910   0.00000  Uiso   1.00
C1021  C     0.22619   0.83100   0.94848   0.00000  Uiso   1.00
C1022  C     0.07490   0.84726   0.53077   0.00000  Uiso   1.00
C1023  C     0.25843   0.81941   0.96923   0.00000  Uiso   1.00
C1024  C     0.20675   0.97937   0.71671   0.00000  Uiso   1.00
C1025  C     0.12658   0.68729   0.78329   0.00000  Uiso   1.00
C1026  C     0.20588   0.68905   0.71835   0.00000  Uiso   1.00
H1027  H     0.03647   0.85165   0.55190   0.00000  Uiso   1.00
H1028  H     0.09771   0.95978   0.80644   0.00000  Uiso   1.00
H1029  H     0.27655   0.77599   0.78656   0.00000  Uiso   1.00
H1030  H     0.05678   0.89067   0.71344   0.00000  Uiso   1.00
H1031  H     0.02720   0.77603   0.78654   0.00000  Uiso   1.00
H1032  H     0.30613   0.89063   0.71346   0.00000  Uiso   1.00
H1033  H     0.29687   0.81502   0.94810   0.00000  Uiso   1.00
H1034  H     0.15099   0.85753   0.61017   0.00000  Uiso   1.00
H1035  H     0.18235   0.80914   0.88983   0.00000  Uiso   1.00
H1036  H     0.28781   0.80716   0.60200   0.00000  Uiso   1.00
H1037  H     0.04552   0.85951   0.89800   0.00000  Uiso   1.00
H1038  H     0.02019   0.86690   0.98235   0.00000  Uiso   1.00
H1039  H     0.31314   0.79977   0.51765   0.00000  Uiso   1.00
H1040  H     0.23563   0.70689   0.69356   0.00000  Uiso   1.00
N1041  N     0.04759   0.83334   0.75001   0.00000  Uiso   1.00
N1042  N     0.28574   0.83332   0.74999   0.00000  Uiso   1.00
N1043  N     0.06665   0.80800   0.63610   0.00000  Uiso   1.00
N1044  N     0.26668   0.85866   0.86390   0.00000  Uiso   1.00
N1045  N     0.27912   0.94220   0.65218   0.00000  Uiso   1.00
N1046  N     0.05422   0.72447   0.84783   0.00000  Uiso   1.00
O1047  O     0.12846   0.89442   0.75000   0.00000  Uiso   1.00
O1048  O     0.20488   0.77225   0.75000   0.00000  Uiso   1.00
O1049  O     0.20490   0.89441   0.75000   0.00000  Uiso   1.00
O1050  O     0.12843   0.77226   0.75000   0.00000  Uiso   1.00
O1051  O     0.10661   0.83334   0.81612   0.00000  Uiso   1.00
O1052  O     0.22672   0.83333   0.68388   0.00000  Uiso   1.00
O1053  O     0.18305   0.83333   0.81612   0.00000  Uiso   1.00
O1054  O     0.15028   0.83334   0.68388   0.00000  Uiso   1.00
Zn1055 Zn    0.11562   0.83334   0.75000   0.00000  Uiso   1.00
Zn1056 Zn    0.21771   0.83333   0.75000   0.00000  Uiso   1.00
C1057  C     0.50038   0.91322   0.74923   0.00000  Uiso   1.00
C1058  C     0.46079   0.97761   0.78165   0.00000  Uiso   1.00
C1059  C     0.49935   0.70930   0.75122   0.00000  Uiso   1.00
C1060  C     0.50065   0.95737   0.74878   0.00000  Uiso   1.00
C1061  C     0.63455   0.80144   0.77019   0.00000  Uiso   1.00
C1062  C     0.36545   0.86522   0.72981   0.00000  Uiso   1.00
C1063  C     0.34909   0.80148   0.77025   0.00000  Uiso   1.00
C1064  C     0.65091   0.86518   0.72975   0.00000  Uiso   1.00
C1065  C     0.46947   0.83338   0.83783   0.00000  Uiso   1.00
C1066  C     0.53053   0.83329   0.66217   0.00000  Uiso   1.00
C1067  C     0.45068   0.83590   0.88809   0.00000  Uiso   1.00
C1068  C     0.49962   0.75344   0.75077   0.00000  Uiso   1.00
C1069  C     0.54932   0.83077   0.61191   0.00000  Uiso   1.00
C1070  C     0.39026   0.85650   0.96192   0.00000  Uiso   1.00
C1071  C     0.60974   0.81017   0.53808   0.00000  Uiso   1.00
C1072  C     0.40419   0.85153   0.91422   0.00000  Uiso   1.00
C1073  C     0.59581   0.81514   0.58578   0.00000  Uiso   1.00
C1074  C     0.48277   0.82605   0.90951   0.00000  Uiso   1.00
C1075  C     0.51723   0.84062   0.59049   0.00000  Uiso   1.00
C1076  C     0.47240   0.83673   0.95548   0.00000  Uiso   1.00
C1077  C     0.52760   0.82994   0.54452   0.00000  Uiso   1.00
C1078  C     0.42378   0.84811   0.98286   0.00000  Uiso   1.00
C1079  C     0.44048   0.83567   0.55152   0.00000  Uiso   1.00
C1080  C     0.57622   0.81855   0.51714   0.00000  Uiso   1.00
C1081  C     0.50815   0.83348   0.97544   0.00000  Uiso   1.00
C1082  C     0.49185   0.83318   0.52456   0.00000  Uiso   1.00
C1083  C     0.41809   0.82045   0.59858   0.00000  Uiso   1.00
C1084  C     0.58191   0.84622   0.90142   0.00000  Uiso   1.00
C1085  C     0.58032   0.95871   0.68090   0.00000  Uiso   1.00
C1086  C     0.41968   0.70795   0.81910   0.00000  Uiso   1.00
C1087  C     0.55952   0.83100   0.94848   0.00000  Uiso   1.00
C1088  C     0.40824   0.84726   0.53077   0.00000  Uiso   1.00
C1089  C     0.59176   0.81941   0.96923   0.00000  Uiso   1.00
C1090  C     0.54008   0.97937   0.71671   0.00000  Uiso   1.00
C1091  C     0.45992   0.68729   0.78329   0.00000  Uiso   1.00
C1092  C     0.53921   0.68905   0.71835   0.00000  Uiso   1.00
H1093  H     0.36980   0.85165   0.55190   0.00000  Uiso   1.00
H1094  H     0.43104   0.95978   0.80644   0.00000  Uiso   1.00
H1095  H     0.60988   0.77599   0.78656   0.00000  Uiso   1.00
H1096  H     0.39011   0.89067   0.71344   0.00000  Uiso   1.00
H1097  H     0.36053   0.77603   0.78654   0.00000  Uiso   1.00
H1098  H     0.63947   0.89063   0.71346   0.00000  Uiso   1.00
H1099  H     0.63020   0.81502   0.94810   0.00000  Uiso   1.00
H1100  H     0.48432   0.85753   0.61017   0.00000  Uiso   1.00
H1101  H     0.51568   0.80914   0.88983   0.00000  Uiso   1.00
H1102  H     0.62114   0.80716   0.60200   0.00000  Uiso   1.00
H1103  H     0.37886   0.85951   0.89800   0.00000  Uiso   1.00
H1104  H     0.35352   0.86690   0.98235   0.00000  Uiso   1.00
H1105  H     0.64648   0.79977   0.51765   0.00000  Uiso   1.00
H1106  H     0.56896   0.70689   0.69356   0.00000  Uiso   1.00
N1107  N     0.38093   0.83334   0.75001   0.00000  Uiso   1.00
N1108  N     0.61907   0.83332   0.74999   0.00000  Uiso   1.00
N1109  N     0.39999   0.80800   0.63610   0.00000  Uiso   1.00
N1110  N     0.60001   0.85866   0.86390   0.00000  Uiso   1.00
N1111  N     0.61245   0.94220   0.65218   0.00000  Uiso   1.00
N1112  N     0.38755   0.72447   0.84783   0.00000  Uiso   1.00
O1113  O     0.46179   0.89442   0.75000   0.00000  Uiso   1.00
O1114  O     0.53821   0.77225   0.75000   0.00000  Uiso   1.00
O1115  O     0.53823   0.89441   0.75000   0.00000  Uiso   1.00
O1116  O     0.46177   0.77226   0.75000   0.00000  Uiso   1.00
O1117  O     0.43994   0.83334   0.81612   0.00000  Uiso   1.00
O1118  O     0.56006   0.83333   0.68388   0.00000  Uiso   1.00
O1119  O     0.51639   0.83333   0.81612   0.00000  Uiso   1.00
O1120  O     0.48361   0.83334   0.68388   0.00000  Uiso   1.00
Zn1121 Zn    0.44896   0.83334   0.75000   0.00000  Uiso   1.00
Zn1122 Zn    0.55104   0.83333   0.75000   0.00000  Uiso   1.00
C1123  C     0.83371   0.91322   0.74923   0.00000  Uiso   1.00
C1124  C     0.79412   0.97761   0.78165   0.00000  Uiso   1.00
C1125  C     0.83268   0.70930   0.75122   0.00000  Uiso   1.00
C1126  C     0.83398   0.95737   0.74878   0.00000  Uiso   1.00
C1127  C     0.96789   0.80144   0.77019   0.00000  Uiso   1.00
C1128  C     0.69878   0.86522   0.72981   0.00000  Uiso   1.00
C1129  C     0.68242   0.80148   0.77025   0.00000  Uiso   1.00
C1130  C     0.98425   0.86518   0.72975   0.00000  Uiso   1.00
C1131  C     0.80281   0.83338   0.83783   0.00000  Uiso   1.00
C1132  C     0.86386   0.83329   0.66217   0.00000  Uiso   1.00
C1133  C     0.78401   0.83590   0.88809   0.00000  Uiso   1.00
C1134  C     0.83296   0.75344   0.75077   0.00000  Uiso   1.00
C1135  C     0.88265   0.83077   0.61191   0.00000  Uiso   1.00
C1136  C     0.72359   0.85650   0.96192   0.00000  Uiso   1.00
C1137  C     0.94307   0.81017   0.53808   0.00000  Uiso   1.00
C1138  C     0.73753   0.85153   0.91422   0.00000  Uiso   1.00
C1139  C     0.92914   0.81514   0.58578   0.00000  Uiso   1.00
C1140  C     0.81610   0.82605   0.90951   0.00000  Uiso   1.00
C1141  C     0.85057   0.84062   0.59049   0.00000  Uiso   1.00
C1142  C     0.80573   0.83673   0.95548   0.00000  Uiso   1.00
C1143  C     0.86093   0.82994   0.54452   0.00000  Uiso   1.00
C1144  C     0.75711   0.84811   0.98286   0.00000  Uiso   1.00
C1145  C     0.77381   0.83567   0.55152   0.00000  Uiso   1.00
C1146  C     0.90956   0.81855   0.51714   0.00000  Uiso   1.00
C1147  C     0.84148   0.83348   0.97544   0.00000  Uiso   1.00
C1148  C     0.82518   0.83318   0.52456   0.00000  Uiso   1.00
C1149  C     0.75143   0.82045   0.59858   0.00000  Uiso   1.00
C1150  C     0.91524   0.84622   0.90142   0.00000  Uiso   1.00
C1151  C     0.91366   0.95871   0.68090   0.00000  Uiso   1.00
C1152  C     0.75301   0.70795   0.81910   0.00000  Uiso   1.00
C1153  C     0.89286   0.83100   0.94848   0.00000  Uiso   1.00
C1154  C     0.74157   0.84726   0.53077   0.00000  Uiso   1.00
C1155  C     0.92510   0.81941   0.96923   0.00000  Uiso   1.00
C1156  C     0.87342   0.97937   0.71671   0.00000  Uiso   1.00
C1157  C     0.79325   0.68729   0.78329   0.00000  Uiso   1.00
C1158  C     0.87254   0.68905   0.71835   0.00000  Uiso   1.00
H1159  H     0.70313   0.85165   0.55190   0.00000  Uiso   1.00
H1160  H     0.76437   0.95978   0.80644   0.00000  Uiso   1.00
H1161  H     0.94322   0.77599   0.78656   0.00000  Uiso   1.00
H1162  H     0.72345   0.89067   0.71344   0.00000  Uiso   1.00
H1163  H     0.69386   0.77603   0.78654   0.00000  Uiso   1.00
H1164  H     0.97280   0.89063   0.71346   0.00000  Uiso   1.00
H1165  H     0.96353   0.81502   0.94810   0.00000  Uiso   1.00
H1166  H     0.81765   0.85753   0.61017   0.00000  Uiso   1.00
H1167  H     0.84901   0.80914   0.88983   0.00000  Uiso   1.00
H1168  H     0.95448   0.80716   0.60200   0.00000  Uiso   1.00
H1169  H     0.71219   0.85951   0.89800   0.00000  Uiso   1.00
H1170  H     0.68686   0.86690   0.98235   0.00000  Uiso   1.00
H1171  H     0.97981   0.79977   0.51765   0.00000  Uiso   1.00
H1172  H     0.90229   0.70689   0.69356   0.00000  Uiso   1.00
N1173  N     0.71426   0.83334   0.75001   0.00000  Uiso   1.00
N1174  N     0.95241   0.83332   0.74999   0.00000  Uiso   1.00
N1175  N     0.73332   0.80800   0.63610   0.00000  Uiso   1.00
N1176  N     0.93335   0.85866   0.86390   0.00000  Uiso   1.00
N1177  N     0.94579   0.94220   0.65218   0.00000  Uiso   1.00
N1178  N     0.72088   0.72447   0.84783   0.00000  Uiso   1.00
O1179  O     0.79512   0.89442   0.75000   0.00000  Uiso   1.00
O1180  O     0.87154   0.77225   0.75000   0.00000  Uiso   1.00
O1181  O     0.87157   0.89441   0.75000   0.00000  Uiso   1.00
O1182  O     0.79510   0.77226   0.75000   0.00000  Uiso   1.00
O1183  O     0.77328   0.83334   0.81612   0.00000  Uiso   1.00
O1184  O     0.89339   0.83333   0.68388   0.00000  Uiso   1.00
O1185  O     0.84972   0.83333   0.81612   0.00000  Uiso   1.00
O1186  O     0.81695   0.83334   0.68388   0.00000  Uiso   1.00
Zn1187 Zn    0.78229   0.83334   0.75000   0.00000  Uiso   1.00
Zn1188 Zn    0.88438   0.83333   0.75000   0.00000  Uiso   1.00
loop_
_geom_bond_atom_site_label_1
_geom_bond_atom_site_label_2
_geom_bond_distance
_geom_bond_site_symmetry_2
_ccdc_geom_bond_type
C1     C4      1.410   .     S
C1     O57     1.281   .     A
C1     O59     1.281   .     A
C2     C4      1.394   .     A
C2     H38     1.086   .     S
C2     C233    1.375   .     S
C3     C35     1.403   .     A
C3     C36     1.394   .     A
C3     C12     1.410   .     S
C4     C34     1.403   .     A
C5     N52     1.367   .     A
C5     H39     1.082   .     S
C5     C73     1.417   .     S
C6     N51     1.367   .     A
C6     H40     1.082   .     S
C6     C140    1.417   1_455 S
C7     N51     1.367   .     A
C7     H41     1.081   .     S
C7     C137    1.417   1_455 S
C8     H42     1.081   .     S
C8     N52     1.367   .     A
C8     C72     1.417   .     S
C9     C11     1.453   .     S
C9     O61     1.293   .     A
C9     O63     1.293   .     A
C10    O62     1.293   .     A
C10    O64     1.293   .     A
C10    C13     1.453   .     S
C11    C16     1.399   .     A
C11    C18     1.390   .     A
C12    O58     1.281   .     A
C12    O60     1.281   .     A
C13    C17     1.399   .     A
C13    C19     1.390   .     A
C14    C22     1.406   .     A
C14    H48     1.083   .     S
C14    C16     1.394   .     A
C15    H49     1.083   .     S
C15    C24     1.406   .     A
C15    C17     1.394   .     A
C16    H47     1.083   .     S
C17    H46     1.083   .     S
C18    C20     1.390   .     A
C18    H45     1.079   .     S
C19    C21     1.390   .     A
C19    H44     1.079   .     S
C20    C25     1.421   .     A
C20    C22     1.414   .     A
C21    C26     1.421   .     A
C21    C24     1.414   .     A
C22    C626    1.387   .     S
C23    C32     1.392   .     A
C23    C27     1.447   .     S
C23    C26     1.433   .     A
C24    C627    1.387   1_554 S
C25    C31     1.433   .     A
C25    C620    1.422   .     S
C26    C619    1.422   1_554 S
C27    N53     1.157   .     T
C28    N54     1.157   .     T
C28    C31     1.447   .     S
C29    N55     1.157   .     T
C29    C34     1.447   .     S
C30    C35     1.447   .     S
C30    N56     1.157   .     T
C31    C33     1.392   .     A
C32    H37     1.086   .     S
C32    C616    1.387   1_554 S
C33    H43     1.086   .     S
C33    C618    1.387   .     S
C34    C234    1.375   .     S
C35    C398    1.375   1_545 S
C36    H50     1.086   .     S
C36    C430    1.375   1_545 S
N51    Zn65    2.013   .     S
N52    Zn66    2.013   .     S
O57    Zn65    1.987   .     S
O58    Zn66    1.987   .     S
O59    Zn66    1.989   .     S
O60    Zn65    1.989   .     S
O61    Zn65    1.978   .     S
O62    Zn66    1.978   .     S
O63    Zn66    1.924   .     S
O64    Zn65    1.924   .     S
C67    C70     1.410   .     S
C67    O123    1.281   .     A
C67    O125    1.281   .     A
C68    C70     1.394   .     A
C68    H104    1.086   .     S
C68    C299    1.375   .     S
C69    C101    1.403   .     A
C69    C102    1.394   .     A
C69    C78     1.410   .     S
C70    C100    1.403   .     A
C71    N118    1.367   .     A
C71    H105    1.082   .     S
C71    C139    1.417   .     S
C72    N117    1.367   .     A
C72    H106    1.082   .     S
C73    N117    1.367   .     A
C73    H107    1.081   .     S
C74    H108    1.081   .     S
C74    N118    1.367   .     A
C74    C138    1.417   .     S
C75    C77     1.453   .     S
C75    O127    1.293   .     A
C75    O129    1.293   .     A
C76    O128    1.293   .     A
C76    O130    1.293   .     A
C76    C79     1.453   .     S
C77    C82     1.399   .     A
C77    C84     1.390   .     A
C78    O124    1.281   .     A
C78    O126    1.281   .     A
C79    C83     1.399   .     A
C79    C85     1.390   .     A
C80    C88     1.406   .     A
C80    H114    1.083   .     S
C80    C82     1.394   .     A
C81    H115    1.083   .     S
C81    C90     1.406   .     A
C81    C83     1.394   .     A
C82    H113    1.083   .     S
C83    H112    1.083   .     S
C84    C86     1.390   .     A
C84    H111    1.079   .     S
C85    C87     1.390   .     A
C85    H110    1.079   .     S
C86    C91     1.421   .     A
C86    C88     1.414   .     A
C87    C92     1.421   .     A
C87    C90     1.414   .     A
C88    C692    1.387   .     S
C89    C98     1.392   .     A
C89    C93     1.447   .     S
C89    C92     1.433   .     A
C90    C693    1.387   1_554 S
C91    C97     1.433   .     A
C91    C686    1.422   .     S
C92    C685    1.422   1_554 S
C93    N119    1.157   .     T
C94    N120    1.157   .     T
C94    C97     1.447   .     S
C95    N121    1.157   .     T
C95    C100    1.447   .     S
C96    C101    1.447   .     S
C96    N122    1.157   .     T
C97    C99     1.392   .     A
C98    H103    1.086   .     S
C98    C682    1.387   1_554 S
C99    H109    1.086   .     S
C99    C684    1.387   .     S
C100   C300    1.375   .     S
C101   C464    1.375   1_545 S
C102   H116    1.086   .     S
C102   C496    1.375   1_545 S
N117   Zn131   2.013   .     S
N118   Zn132   2.013   .     S
O123   Zn131   1.987   .     S
O124   Zn132   1.987   .     S
O125   Zn132   1.989   .     S
O126   Zn131   1.989   .     S
O127   Zn131   1.978   .     S
O128   Zn132   1.978   .     S
O129   Zn132   1.924   .     S
O130   Zn131   1.924   .     S
C133   C136    1.410   .     S
C133   O189    1.281   .     A
C133   O191    1.281   .     A
C134   C136    1.394   .     A
C134   H170    1.086   .     S
C134   C365    1.375   .     S
C135   C167    1.403   .     A
C135   C168    1.394   .     A
C135   C144    1.410   .     S
C136   C166    1.403   .     A
C137   N184    1.367   .     A
C137   H171    1.082   .     S
C137   C7      1.417   1_655 S
C138   N183    1.367   .     A
C138   H172    1.082   .     S
C139   N183    1.367   .     A
C139   H173    1.081   .     S
C140   H174    1.081   .     S
C140   N184    1.367   .     A
C140   C6      1.417   1_655 S
C141   C143    1.453   .     S
C141   O193    1.293   .     A
C141   O195    1.293   .     A
C142   O194    1.293   .     A
C142   O196    1.293   .     A
C142   C145    1.453   .     S
C143   C148    1.399   .     A
C143   C150    1.390   .     A
C144   O190    1.281   .     A
C144   O192    1.281   .     A
C145   C149    1.399   .     A
C145   C151    1.390   .     A
C146   C154    1.406   .     A
C146   H180    1.083   .     S
C146   C148    1.394   .     A
C147   H181    1.083   .     S
C147   C156    1.406   .     A
C147   C149    1.394   .     A
C148   H179    1.083   .     S
C149   H178    1.083   .     S
C150   C152    1.390   .     A
C150   H177    1.079   .     S
C151   C153    1.390   .     A
C151   H176    1.079   .     S
C152   C157    1.421   .     A
C152   C154    1.414   .     A
C153   C158    1.421   .     A
C153   C156    1.414   .     A
C154   C758    1.387   .     S
C155   C164    1.392   .     A
C155   C159    1.447   .     S
C155   C158    1.433   .     A
C156   C759    1.387   1_554 S
C157   C163    1.433   .     A
C157   C752    1.422   .     S
C158   C751    1.422   1_554 S
C159   N185    1.157   .     T
C160   N186    1.157   .     T
C160   C163    1.447   .     S
C161   N187    1.157   .     T
C161   C166    1.447   .     S
C162   C167    1.447   .     S
C162   N188    1.157   .     T
C163   C165    1.392   .     A
C164   H169    1.086   .     S
C164   C748    1.387   1_554 S
C165   H175    1.086   .     S
C165   C750    1.387   .     S
C166   C366    1.375   .     S
C167   C530    1.375   1_545 S
C168   H182    1.086   .     S
C168   C562    1.375   1_545 S
N183   Zn197   2.013   .     S
N184   Zn198   2.013   .     S
O189   Zn197   1.987   .     S
O190   Zn198   1.987   .     S
O191   Zn198   1.989   .     S
O192   Zn197   1.989   .     S
O193   Zn197   1.978   .     S
O194   Zn198   1.978   .     S
O195   Zn198   1.924   .     S
O196   Zn197   1.924   .     S
C199   C202    1.410   .     S
C199   O255    1.281   .     A
C199   O257    1.281   .     A
C200   C202    1.394   .     A
C200   H236    1.086   .     S
C200   C431    1.375   .     S
C201   C233    1.403   .     A
C201   C234    1.394   .     A
C201   C210    1.410   .     S
C202   C232    1.403   .     A
C203   N250    1.367   .     A
C203   H237    1.082   .     S
C203   C271    1.417   .     S
C204   N249    1.367   .     A
C204   H238    1.082   .     S
C204   C338    1.417   1_455 S
C205   N249    1.367   .     A
C205   H239    1.081   .     S
C205   C335    1.417   1_455 S
C206   H240    1.081   .     S
C206   N250    1.367   .     A
C206   C270    1.417   .     S
C207   C209    1.453   .     S
C207   O259    1.293   .     A
C207   O261    1.293   .     A
C208   O260    1.293   .     A
C208   O262    1.293   .     A
C208   C211    1.453   .     S
C209   C214    1.399   .     A
C209   C216    1.390   .     A
C210   O256    1.281   .     A
C210   O258    1.281   .     A
C211   C215    1.399   .     A
C211   C217    1.390   .     A
C212   C220    1.406   .     A
C212   H246    1.083   .     S
C212   C214    1.394   .     A
C213   H247    1.083   .     S
C213   C222    1.406   .     A
C213   C215    1.394   .     A
C214   H245    1.083   .     S
C215   H244    1.083   .     S
C216   C218    1.390   .     A
C216   H243    1.079   .     S
C217   C219    1.390   .     A
C217   H242    1.079   .     S
C218   C223    1.421   .     A
C218   C220    1.414   .     A
C219   C224    1.421   .     A
C219   C222    1.414   .     A
C220   C824    1.387   .     S
C221   C230    1.392   .     A
C221   C225    1.447   .     S
C221   C224    1.433   .     A
C222   C825    1.387   1_554 S
C223   C229    1.433   .     A
C223   C818    1.422   .     S
C224   C817    1.422   1_554 S
C225   N251    1.157   .     T
C226   N252    1.157   .     T
C226   C229    1.447   .     S
C227   N253    1.157   .     T
C227   C232    1.447   .     S
C228   C233    1.447   .     S
C228   N254    1.157   .     T
C229   C231    1.392   .     A
C230   H235    1.086   .     S
C230   C814    1.387   1_554 S
C231   H241    1.086   .     S
C231   C816    1.387   .     S
C232   C432    1.375   .     S
C234   H248    1.086   .     S
N249   Zn263   2.013   .     S
N250   Zn264   2.013   .     S
O255   Zn263   1.987   .     S
O256   Zn264   1.987   .     S
O257   Zn264   1.989   .     S
O258   Zn263   1.989   .     S
O259   Zn263   1.978   .     S
O260   Zn264   1.978   .     S
O261   Zn264   1.924   .     S
O262   Zn263   1.924   .     S
C265   C268    1.410   .     S
C265   O321    1.281   .     A
C265   O323    1.281   .     A
C266   C268    1.394   .     A
C266   H302    1.086   .     S
C266   C497    1.375   .     S
C267   C299    1.403   .     A
C267   C300    1.394   .     A
C267   C276    1.410   .     S
C268   C298    1.403   .     A
C269   N316    1.367   .     A
C269   H303    1.082   .     S
C269   C337    1.417   .     S
C270   N315    1.367   .     A
C270   H304    1.082   .     S
C271   N315    1.367   .     A
C271   H305    1.081   .     S
C272   H306    1.081   .     S
C272   N316    1.367   .     A
C272   C336    1.417   .     S
C273   C275    1.453   .     S
C273   O325    1.293   .     A
C273   O327    1.293   .     A
C274   O326    1.293   .     A
C274   O328    1.293   .     A
C274   C277    1.453   .     S
C275   C280    1.399   .     A
C275   C282    1.390   .     A
C276   O322    1.281   .     A
C276   O324    1.281   .     A
C277   C281    1.399   .     A
C277   C283    1.390   .     A
C278   C286    1.406   .     A
C278   H312    1.083   .     S
C278   C280    1.394   .     A
C279   H313    1.083   .     S
C279   C288    1.406   .     A
C279   C281    1.394   .     A
C280   H311    1.083   .     S
C281   H310    1.083   .     S
C282   C284    1.390   .     A
C282   H309    1.079   .     S
C283   C285    1.390   .     A
C283   H308    1.079   .     S
C284   C289    1.421   .     A
C284   C286    1.414   .     A
C285   C290    1.421   .     A
C285   C288    1.414   .     A
C286   C890    1.387   .     S
C287   C296    1.392   .     A
C287   C291    1.447   .     S
C287   C290    1.433   .     A
C288   C891    1.387   1_554 S
C289   C295    1.433   .     A
C289   C884    1.422   .     S
C290   C883    1.422   1_554 S
C291   N317    1.157   .     T
C292   N318    1.157   .     T
C292   C295    1.447   .     S
C293   N319    1.157   .     T
C293   C298    1.447   .     S
C294   C299    1.447   .     S
C294   N320    1.157   .     T
C295   C297    1.392   .     A
C296   H301    1.086   .     S
C296   C880    1.387   1_554 S
C297   H307    1.086   .     S
C297   C882    1.387   .     S
C298   C498    1.375   .     S
C300   H314    1.086   .     S
N315   Zn329   2.013   .     S
N316   Zn330   2.013   .     S
O321   Zn329   1.987   .     S
O322   Zn330   1.987   .     S
O323   Zn330   1.989   .     S
O324   Zn329   1.989   .     S
O325   Zn329   1.978   .     S
O326   Zn330   1.978   .     S
O327   Zn330   1.924   .     S
O328   Zn329   1.924   .     S
C331   C334    1.410   .     S
C331   O387    1.281   .     A
C331   O389    1.281   .     A
C332   C334    1.394   .     A
C332   H368    1.086   .     S
C332   C563    1.375   .     S
C333   C365    1.403   .     A
C333   C366    1.394   .     A
C333   C342    1.410   .     S
C334   C364    1.403   .     A
C335   N382    1.367   .     A
C335   H369    1.082   .     S
C335   C205    1.417   1_655 S
C336   N381    1.367   .     A
C336   H370    1.082   .     S
C337   N381    1.367   .     A
C337   H371    1.081   .     S
C338   H372    1.081   .     S
C338   N382    1.367   .     A
C338   C204    1.417   1_655 S
C339   C341    1.453   .     S
C339   O391    1.293   .     A
C339   O393    1.293   .     A
C340   O392    1.293   .     A
C340   O394    1.293   .     A
C340   C343    1.453   .     S
C341   C346    1.399   .     A
C341   C348    1.390   .     A
C342   O388    1.281   .     A
C342   O390    1.281   .     A
C343   C347    1.399   .     A
C343   C349    1.390   .     A
C344   C352    1.406   .     A
C344   H378    1.083   .     S
C344   C346    1.394   .     A
C345   H379    1.083   .     S
C345   C354    1.406   .     A
C345   C347    1.394   .     A
C346   H377    1.083   .     S
C347   H376    1.083   .     S
C348   C350    1.390   .     A
C348   H375    1.079   .     S
C349   C351    1.390   .     A
C349   H374    1.079   .     S
C350   C355    1.421   .     A
C350   C352    1.414   .     A
C351   C356    1.421   .     A
C351   C354    1.414   .     A
C352   C956    1.387   .     S
C353   C362    1.392   .     A
C353   C357    1.447   .     S
C353   C356    1.433   .     A
C354   C957    1.387   1_554 S
C355   C361    1.433   .     A
C355   C950    1.422   .     S
C356   C949    1.422   1_554 S
C357   N383    1.157   .     T
C358   N384    1.157   .     T
C358   C361    1.447   .     S
C359   N385    1.157   .     T
C359   C364    1.447   .     S
C360   C365    1.447   .     S
C360   N386    1.157   .     T
C361   C363    1.392   .     A
C362   H367    1.086   .     S
C362   C946    1.387   1_554 S
C363   H373    1.086   .     S
C363   C948    1.387   .     S
C364   C564    1.375   .     S
C366   H380    1.086   .     S
N381   Zn395   2.013   .     S
N382   Zn396   2.013   .     S
O387   Zn395   1.987   .     S
O388   Zn396   1.987   .     S
O389   Zn396   1.989   .     S
O390   Zn395   1.989   .     S
O391   Zn395   1.978   .     S
O392   Zn396   1.978   .     S
O393   Zn396   1.924   .     S
O394   Zn395   1.924   .     S
C397   C400    1.410   .     S
C397   O453    1.281   .     A
C397   O455    1.281   .     A
C398   C400    1.394   .     A
C398   H434    1.086   .     S
C398   C35     1.375   1_565 S
C399   C431    1.403   .     A
C399   C432    1.394   .     A
C399   C408    1.410   .     S
C400   C430    1.403   .     A
C401   N448    1.367   .     A
C401   H435    1.082   .     S
C401   C469    1.417   .     S
C402   N447    1.367   .     A
C402   H436    1.082   .     S
C402   C536    1.417   1_455 S
C403   N447    1.367   .     A
C403   H437    1.081   .     S
C403   C533    1.417   1_455 S
C404   H438    1.081   .     S
C404   N448    1.367   .     A
C404   C468    1.417   .     S
C405   C407    1.453   .     S
C405   O457    1.293   .     A
C405   O459    1.293   .     A
C406   O458    1.293   .     A
C406   O460    1.293   .     A
C406   C409    1.453   .     S
C407   C412    1.399   .     A
C407   C414    1.390   .     A
C408   O454    1.281   .     A
C408   O456    1.281   .     A
C409   C413    1.399   .     A
C409   C415    1.390   .     A
C410   C418    1.406   .     A
C410   H444    1.083   .     S
C410   C412    1.394   .     A
C411   H445    1.083   .     S
C411   C420    1.406   .     A
C411   C413    1.394   .     A
C412   H443    1.083   .     S
C413   H442    1.083   .     S
C414   C416    1.390   .     A
C414   H441    1.079   .     S
C415   C417    1.390   .     A
C415   H440    1.079   .     S
C416   C421    1.421   .     A
C416   C418    1.414   .     A
C417   C422    1.421   .     A
C417   C420    1.414   .     A
C418   C1022   1.387   .     S
C419   C428    1.392   .     A
C419   C423    1.447   .     S
C419   C422    1.433   .     A
C420   C1023   1.387   1_554 S
C421   C427    1.433   .     A
C421   C1016   1.422   .     S
C422   C1015   1.422   1_554 S
C423   N449    1.157   .     T
C424   N450    1.157   .     T
C424   C427    1.447   .     S
C425   N451    1.157   .     T
C425   C430    1.447   .     S
C426   C431    1.447   .     S
C426   N452    1.157   .     T
C427   C429    1.392   .     A
C428   H433    1.086   .     S
C428   C1012   1.387   1_554 S
C429   H439    1.086   .     S
C429   C1014   1.387   .     S
C430   C36     1.375   1_565 S
C432   H446    1.086   .     S
N447   Zn461   2.013   .     S
N448   Zn462   2.013   .     S
O453   Zn461   1.987   .     S
O454   Zn462   1.987   .     S
O455   Zn462   1.989   .     S
O456   Zn461   1.989   .     S
O457   Zn461   1.978   .     S
O458   Zn462   1.978   .     S
O459   Zn462   1.924   .     S
O460   Zn461   1.924   .     S
C463   C466    1.410   .     S
C463   O519    1.281   .     A
C463   O521    1.281   .     A
C464   C466    1.394   .     A
C464   H500    1.086   .     S
C464   C101    1.375   1_565 S
C465   C497    1.403   .     A
C465   C498    1.394   .     A
C465   C474    1.410   .     S
C466   C496    1.403   .     A
C467   N514    1.367   .     A
C467   H501    1.082   .     S
C467   C535    1.417   .     S
C468   N513    1.367   .     A
C468   H502    1.082   .     S
C469   N513    1.367   .     A
C469   H503    1.081   .     S
C470   H504    1.081   .     S
C470   N514    1.367   .     A
C470   C534    1.417   .     S
C471   C473    1.453   .     S
C471   O523    1.293   .     A
C471   O525    1.293   .     A
C472   O524    1.293   .     A
C472   O526    1.293   .     A
C472   C475    1.453   .     S
C473   C478    1.399   .     A
C473   C480    1.390   .     A
C474   O520    1.281   .     A
C474   O522    1.281   .     A
C475   C479    1.399   .     A
C475   C481    1.390   .     A
C476   C484    1.406   .     A
C476   H510    1.083   .     S
C476   C478    1.394   .     A
C477   H511    1.083   .     S
C477   C486    1.406   .     A
C477   C479    1.394   .     A
C478   H509    1.083   .     S
C479   H508    1.083   .     S
C480   C482    1.390   .     A
C480   H507    1.079   .     S
C481   C483    1.390   .     A
C481   H506    1.079   .     S
C482   C487    1.421   .     A
C482   C484    1.414   .     A
C483   C488    1.421   .     A
C483   C486    1.414   .     A
C484   C1088   1.387   .     S
C485   C494    1.392   .     A
C485   C489    1.447   .     S
C485   C488    1.433   .     A
C486   C1089   1.387   1_554 S
C487   C493    1.433   .     A
C487   C1082   1.422   .     S
C488   C1081   1.422   1_554 S
C489   N515    1.157   .     T
C490   N516    1.157   .     T
C490   C493    1.447   .     S
C491   N517    1.157   .     T
C491   C496    1.447   .     S
C492   C497    1.447   .     S
C492   N518    1.157   .     T
C493   C495    1.392   .     A
C494   H499    1.086   .     S
C494   C1078   1.387   1_554 S
C495   H505    1.086   .     S
C495   C1080   1.387   .     S
C496   C102    1.375   1_565 S
C498   H512    1.086   .     S
N513   Zn527   2.013   .     S
N514   Zn528   2.013   .     S
O519   Zn527   1.987   .     S
O520   Zn528   1.987   .     S
O521   Zn528   1.989   .     S
O522   Zn527   1.989   .     S
O523   Zn527   1.978   .     S
O524   Zn528   1.978   .     S
O525   Zn528   1.924   .     S
O526   Zn527   1.924   .     S
C529   C532    1.410   .     S
C529   O585    1.281   .     A
C529   O587    1.281   .     A
C530   C532    1.394   .     A
C530   H566    1.086   .     S
C530   C167    1.375   1_565 S
C531   C563    1.403   .     A
C531   C564    1.394   .     A
C531   C540    1.410   .     S
C532   C562    1.403   .     A
C533   N580    1.367   .     A
C533   H567    1.082   .     S
C533   C403    1.417   1_655 S
C534   N579    1.367   .     A
C534   H568    1.082   .     S
C535   N579    1.367   .     A
C535   H569    1.081   .     S
C536   H570    1.081   .     S
C536   N580    1.367   .     A
C536   C402    1.417   1_655 S
C537   C539    1.453   .     S
C537   O589    1.293   .     A
C537   O591    1.293   .     A
C538   O590    1.293   .     A
C538   O592    1.293   .     A
C538   C541    1.453   .     S
C539   C544    1.399   .     A
C539   C546    1.390   .     A
C540   O586    1.281   .     A
C540   O588    1.281   .     A
C541   C545    1.399   .     A
C541   C547    1.390   .     A
C542   C550    1.406   .     A
C542   H576    1.083   .     S
C542   C544    1.394   .     A
C543   H577    1.083   .     S
C543   C552    1.406   .     A
C543   C545    1.394   .     A
C544   H575    1.083   .     S
C545   H574    1.083   .     S
C546   C548    1.390   .     A
C546   H573    1.079   .     S
C547   C549    1.390   .     A
C547   H572    1.079   .     S
C548   C553    1.421   .     A
C548   C550    1.414   .     A
C549   C554    1.421   .     A
C549   C552    1.414   .     A
C550   C1154   1.387   .     S
C551   C560    1.392   .     A
C551   C555    1.447   .     S
C551   C554    1.433   .     A
C552   C1155   1.387   1_554 S
C553   C559    1.433   .     A
C553   C1148   1.422   .     S
C554   C1147   1.422   1_554 S
C555   N581    1.157   .     T
C556   N582    1.157   .     T
C556   C559    1.447   .     S
C557   N583    1.157   .     T
C557   C562    1.447   .     S
C558   C563    1.447   .     S
C558   N584    1.157   .     T
C559   C561    1.392   .     A
C560   H565    1.086   .     S
C560   C1144   1.387   1_554 S
C561   H571    1.086   .     S
C561   C1146   1.387   .     S
C562   C168    1.375   1_565 S
C564   H578    1.086   .     S
N579   Zn593   2.013   .     S
N580   Zn594   2.013   .     S
O585   Zn593   1.987   .     S
O586   Zn594   1.987   .     S
O587   Zn594   1.989   .     S
O588   Zn593   1.989   .     S
O589   Zn593   1.978   .     S
O590   Zn594   1.978   .     S
O591   Zn594   1.924   .     S
O592   Zn593   1.924   .     S
C595   C598    1.410   .     S
C595   O651    1.281   .     A
C595   O653    1.281   .     A
C596   C598    1.394   .     A
C596   H632    1.086   .     S
C596   C827    1.375   .     S
C597   C629    1.403   .     A
C597   C630    1.394   .     A
C597   C606    1.410   .     S
C598   C628    1.403   .     A
C599   N646    1.367   .     A
C599   H633    1.082   .     S
C599   C667    1.417   .     S
C600   N645    1.367   .     A
C600   H634    1.082   .     S
C600   C734    1.417   1_455 S
C601   N645    1.367   .     A
C601   H635    1.081   .     S
C601   C731    1.417   1_455 S
C602   H636    1.081   .     S
C602   N646    1.367   .     A
C602   C666    1.417   .     S
C603   C605    1.453   .     S
C603   O655    1.293   .     A
C603   O657    1.293   .     A
C604   O656    1.293   .     A
C604   O658    1.293   .     A
C604   C607    1.453   .     S
C605   C610    1.399   .     A
C605   C612    1.390   .     A
C606   O652    1.281   .     A
C606   O654    1.281   .     A
C607   C611    1.399   .     A
C607   C613    1.390   .     A
C608   C616    1.406   .     A
C608   H642    1.083   .     S
C608   C610    1.394   .     A
C609   H643    1.083   .     S
C609   C618    1.406   .     A
C609   C611    1.394   .     A
C610   H641    1.083   .     S
C611   H640    1.083   .     S
C612   C614    1.390   .     A
C612   H639    1.079   .     S
C613   C615    1.390   .     A
C613   H638    1.079   .     S
C614   C619    1.421   .     A
C614   C616    1.414   .     A
C615   C620    1.421   .     A
C615   C618    1.414   .     A
C616   C32     1.387   1_556 S
C617   C626    1.392   .     A
C617   C621    1.447   .     S
C617   C620    1.433   .     A
C619   C625    1.433   .     A
C619   C26     1.422   1_556 S
C621   N647    1.157   .     T
C622   N648    1.157   .     T
C622   C625    1.447   .     S
C623   N649    1.157   .     T
C623   C628    1.447   .     S
C624   C629    1.447   .     S
C624   N650    1.157   .     T
C625   C627    1.392   .     A
C626   H631    1.086   .     S
C627   H637    1.086   .     S
C627   C24     1.387   1_556 S
C628   C828    1.375   .     S
C629   C992    1.375   1_545 S
C630   H644    1.086   .     S
C630   C1024   1.375   1_545 S
N645   Zn659   2.013   .     S
N646   Zn660   2.013   .     S
O651   Zn659   1.987   .     S
O652   Zn660   1.987   .     S
O653   Zn660   1.989   .     S
O654   Zn659   1.989   .     S
O655   Zn659   1.978   .     S
O656   Zn660   1.978   .     S
O657   Zn660   1.924   .     S
O658   Zn659   1.924   .     S
C661   C664    1.410   .     S
C661   O717    1.281   .     A
C661   O719    1.281   .     A
C662   C664    1.394   .     A
C662   H698    1.086   .     S
C662   C893    1.375   .     S
C663   C695    1.403   .     A
C663   C696    1.394   .     A
C663   C672    1.410   .     S
C664   C694    1.403   .     A
C665   N712    1.367   .     A
C665   H699    1.082   .     S
C665   C733    1.417   .     S
C666   N711    1.367   .     A
C666   H700    1.082   .     S
C667   N711    1.367   .     A
C667   H701    1.081   .     S
C668   H702    1.081   .     S
C668   N712    1.367   .     A
C668   C732    1.417   .     S
C669   C671    1.453   .     S
C669   O721    1.293   .     A
C669   O723    1.293   .     A
C670   O722    1.293   .     A
C670   O724    1.293   .     A
C670   C673    1.453   .     S
C671   C676    1.399   .     A
C671   C678    1.390   .     A
C672   O718    1.281   .     A
C672   O720    1.281   .     A
C673   C677    1.399   .     A
C673   C679    1.390   .     A
C674   C682    1.406   .     A
C674   H708    1.083   .     S
C674   C676    1.394   .     A
C675   H709    1.083   .     S
C675   C684    1.406   .     A
C675   C677    1.394   .     A
C676   H707    1.083   .     S
C677   H706    1.083   .     S
C678   C680    1.390   .     A
C678   H705    1.079   .     S
C679   C681    1.390   .     A
C679   H704    1.079   .     S
C680   C685    1.421   .     A
C680   C682    1.414   .     A
C681   C686    1.421   .     A
C681   C684    1.414   .     A
C682   C98     1.387   1_556 S
C683   C692    1.392   .     A
C683   C687    1.447   .     S
C683   C686    1.433   .     A
C685   C691    1.433   .     A
C685   C92     1.422   1_556 S
C687   N713    1.157   .     T
C688   N714    1.157   .     T
C688   C691    1.447   .     S
C689   N715    1.157   .     T
C689   C694    1.447   .     S
C690   C695    1.447   .     S
C690   N716    1.157   .     T
C691   C693    1.392   .     A
C692   H697    1.086   .     S
C693   H703    1.086   .     S
C693   C90     1.387   1_556 S
C694   C894    1.375   .     S
C695   C1058   1.375   1_545 S
C696   H710    1.086   .     S
C696   C1090   1.375   1_545 S
N711   Zn725   2.013   .     S
N712   Zn726   2.013   .     S
O717   Zn725   1.987   .     S
O718   Zn726   1.987   .     S
O719   Zn726   1.989   .     S
O720   Zn725   1.989   .     S
O721   Zn725   1.978   .     S
O722   Zn726   1.978   .     S
O723   Zn726   1.924   .     S
O724   Zn725   1.924   .     S
C727   C730    1.410   .     S
C727   O783    1.281   .     A
C727   O785    1.281   .     A
C728   C730    1.394   .     A
C728   H764    1.086   .     S
C728   C959    1.375   .     S
C729   C761    1.403   .     A
C729   C762    1.394   .     A
C729   C738    1.410   .     S
C730   C760    1.403   .     A
C731   N778    1.367   .     A
C731   H765    1.082   .     S
C731   C601    1.417   1_655 S
C732   N777    1.367   .     A
C732   H766    1.082   .     S
C733   N777    1.367   .     A
C733   H767    1.081   .     S
C734   H768    1.081   .     S
C734   N778    1.367   .     A
C734   C600    1.417   1_655 S
C735   C737    1.453   .     S
C735   O787    1.293   .     A
C735   O789    1.293   .     A
C736   O788    1.293   .     A
C736   O790    1.293   .     A
C736   C739    1.453   .     S
C737   C742    1.399   .     A
C737   C744    1.390   .     A
C738   O784    1.281   .     A
C738   O786    1.281   .     A
C739   C743    1.399   .     A
C739   C745    1.390   .     A
C740   C748    1.406   .     A
C740   H774    1.083   .     S
C740   C742    1.394   .     A
C741   H775    1.083   .     S
C741   C750    1.406   .     A
C741   C743    1.394   .     A
C742   H773    1.083   .     S
C743   H772    1.083   .     S
C744   C746    1.390   .     A
C744   H771    1.079   .     S
C745   C747    1.390   .     A
C745   H770    1.079   .     S
C746   C751    1.421   .     A
C746   C748    1.414   .     A
C747   C752    1.421   .     A
C747   C750    1.414   .     A
C748   C164    1.387   1_556 S
C749   C758    1.392   .     A
C749   C753    1.447   .     S
C749   C752    1.433   .     A
C751   C757    1.433   .     A
C751   C158    1.422   1_556 S
C753   N779    1.157   .     T
C754   N780    1.157   .     T
C754   C757    1.447   .     S
C755   N781    1.157   .     T
C755   C760    1.447   .     S
C756   C761    1.447   .     S
C756   N782    1.157   .     T
C757   C759    1.392   .     A
C758   H763    1.086   .     S
C759   H769    1.086   .     S
C759   C156    1.387   1_556 S
C760   C960    1.375   .     S
C761   C1124   1.375   1_545 S
C762   H776    1.086   .     S
C762   C1156   1.375   1_545 S
N777   Zn791   2.013   .     S
N778   Zn792   2.013   .     S
O783   Zn791   1.987   .     S
O784   Zn792   1.987   .     S
O785   Zn792   1.989   .     S
O786   Zn791   1.989   .     S
O787   Zn791   1.978   .     S
O788   Zn792   1.978   .     S
O789   Zn792   1.924   .     S
O790   Zn791   1.924   .     S
C793   C796    1.410   .     S
C793   O849    1.281   .     A
C793   O851    1.281   .     A
C794   C796    1.394   .     A
C794   H830    1.086   .     S
C794   C1025   1.375   .     S
C795   C827    1.403   .     A
C795   C828    1.394   .     A
C795   C804    1.410   .     S
C796   C826    1.403   .     A
C797   N844    1.367   .     A
C797   H831    1.082   .     S
C797   C865    1.417   .     S
C798   N843    1.367   .     A
C798   H832    1.082   .     S
C798   C932    1.417   1_455 S
C799   N843    1.367   .     A
C799   H833    1.081   .     S
C799   C929    1.417   1_455 S
C800   H834    1.081   .     S
C800   N844    1.367   .     A
C800   C864    1.417   .     S
C801   C803    1.453   .     S
C801   O853    1.293   .     A
C801   O855    1.293   .     A
C802   O854    1.293   .     A
C802   O856    1.293   .     A
C802   C805    1.453   .     S
C803   C808    1.399   .     A
C803   C810    1.390   .     A
C804   O850    1.281   .     A
C804   O852    1.281   .     A
C805   C809    1.399   .     A
C805   C811    1.390   .     A
C806   C814    1.406   .     A
C806   H840    1.083   .     S
C806   C808    1.394   .     A
C807   H841    1.083   .     S
C807   C816    1.406   .     A
C807   C809    1.394   .     A
C808   H839    1.083   .     S
C809   H838    1.083   .     S
C810   C812    1.390   .     A
C810   H837    1.079   .     S
C811   C813    1.390   .     A
C811   H836    1.079   .     S
C812   C817    1.421   .     A
C812   C814    1.414   .     A
C813   C818    1.421   .     A
C813   C816    1.414   .     A
C814   C230    1.387   1_556 S
C815   C824    1.392   .     A
C815   C819    1.447   .     S
C815   C818    1.433   .     A
C817   C823    1.433   .     A
C817   C224    1.422   1_556 S
C819   N845    1.157   .     T
C820   N846    1.157   .     T
C820   C823    1.447   .     S
C821   N847    1.157   .     T
C821   C826    1.447   .     S
C822   C827    1.447   .     S
C822   N848    1.157   .     T
C823   C825    1.392   .     A
C824   H829    1.086   .     S
C825   H835    1.086   .     S
C825   C222    1.387   1_556 S
C826   C1026   1.375   .     S
C828   H842    1.086   .     S
N843   Zn857   2.013   .     S
N844   Zn858   2.013   .     S
O849   Zn857   1.987   .     S
O850   Zn858   1.987   .     S
O851   Zn858   1.989   .     S
O852   Zn857   1.989   .     S
O853   Zn857   1.978   .     S
O854   Zn858   1.978   .     S
O855   Zn858   1.924   .     S
O856   Zn857   1.924   .     S
C859   C862    1.410   .     S
C859   O915    1.281   .     A
C859   O917    1.281   .     A
C860   C862    1.394   .     A
C860   H896    1.086   .     S
C860   C1091   1.375   .     S
C861   C893    1.403   .     A
C861   C894    1.394   .     A
C861   C870    1.410   .     S
C862   C892    1.403   .     A
C863   N910    1.367   .     A
C863   H897    1.082   .     S
C863   C931    1.417   .     S
C864   N909    1.367   .     A
C864   H898    1.082   .     S
C865   N909    1.367   .     A
C865   H899    1.081   .     S
C866   H900    1.081   .     S
C866   N910    1.367   .     A
C866   C930    1.417   .     S
C867   C869    1.453   .     S
C867   O919    1.293   .     A
C867   O921    1.293   .     A
C868   O920    1.293   .     A
C868   O922    1.293   .     A
C868   C871    1.453   .     S
C869   C874    1.399   .     A
C869   C876    1.390   .     A
C870   O916    1.281   .     A
C870   O918    1.281   .     A
C871   C875    1.399   .     A
C871   C877    1.390   .     A
C872   C880    1.406   .     A
C872   H906    1.083   .     S
C872   C874    1.394   .     A
C873   H907    1.083   .     S
C873   C882    1.406   .     A
C873   C875    1.394   .     A
C874   H905    1.083   .     S
C875   H904    1.083   .     S
C876   C878    1.390   .     A
C876   H903    1.079   .     S
C877   C879    1.390   .     A
C877   H902    1.079   .     S
C878   C883    1.421   .     A
C878   C880    1.414   .     A
C879   C884    1.421   .     A
C879   C882    1.414   .     A
C880   C296    1.387   1_556 S
C881   C890    1.392   .     A
C881   C885    1.447   .     S
C881   C884    1.433   .     A
C883   C889    1.433   .     A
C883   C290    1.422   1_556 S
C885   N911    1.157   .     T
C886   N912    1.157   .     T
C886   C889    1.447   .     S
C887   N913    1.157   .     T
C887   C892    1.447   .     S
C888   C893    1.447   .     S
C888   N914    1.157   .     T
C889   C891    1.392   .     A
C890   H895    1.086   .     S
C891   H901    1.086   .     S
C891   C288    1.387   1_556 S
C892   C1092   1.375   .     S
C894   H908    1.086   .     S
N909   Zn923   2.013   .     S
N910   Zn924   2.013   .     S
O915   Zn923   1.987   .     S
O916   Zn924   1.987   .     S
O917   Zn924   1.989   .     S
O918   Zn923   1.989   .     S
O919   Zn923   1.978   .     S
O920   Zn924   1.978   .     S
O921   Zn924   1.924   .     S
O922   Zn923   1.924   .     S
C925   C928    1.410   .     S
C925   O981    1.281   .     A
C925   O983    1.281   .     A
C926   C928    1.394   .     A
C926   H962    1.086   .     S
C926   C1157   1.375   .     S
C927   C959    1.403   .     A
C927   C960    1.394   .     A
C927   C936    1.410   .     S
C928   C958    1.403   .     A
C929   N976    1.367   .     A
C929   H963    1.082   .     S
C929   C799    1.417   1_655 S
C930   N975    1.367   .     A
C930   H964    1.082   .     S
C931   N975    1.367   .     A
C931   H965    1.081   .     S
C932   H966    1.081   .     S
C932   N976    1.367   .     A
C932   C798    1.417   1_655 S
C933   C935    1.453   .     S
C933   O985    1.293   .     A
C933   O987    1.293   .     A
C934   O986    1.293   .     A
C934   O988    1.293   .     A
C934   C937    1.453   .     S
C935   C940    1.399   .     A
C935   C942    1.390   .     A
C936   O982    1.281   .     A
C936   O984    1.281   .     A
C937   C941    1.399   .     A
C937   C943    1.390   .     A
C938   C946    1.406   .     A
C938   H972    1.083   .     S
C938   C940    1.394   .     A
C939   H973    1.083   .     S
C939   C948    1.406   .     A
C939   C941    1.394   .     A
C940   H971    1.083   .     S
C941   H970    1.083   .     S
C942   C944    1.390   .     A
C942   H969    1.079   .     S
C943   C945    1.390   .     A
C943   H968    1.079   .     S
C944   C949    1.421   .     A
C944   C946    1.414   .     A
C945   C950    1.421   .     A
C945   C948    1.414   .     A
C946   C362    1.387   1_556 S
C947   C956    1.392   .     A
C947   C951    1.447   .     S
C947   C950    1.433   .     A
C949   C955    1.433   .     A
C949   C356    1.422   1_556 S
C951   N977    1.157   .     T
C952   N978    1.157   .     T
C952   C955    1.447   .     S
C953   N979    1.157   .     T
C953   C958    1.447   .     S
C954   C959    1.447   .     S
C954   N980    1.157   .     T
C955   C957    1.392   .     A
C956   H961    1.086   .     S
C957   H967    1.086   .     S
C957   C354    1.387   1_556 S
C958   C1158   1.375   .     S
C960   H974    1.086   .     S
N975   Zn989   2.013   .     S
N976   Zn990   2.013   .     S
O981   Zn989   1.987   .     S
O982   Zn990   1.987   .     S
O983   Zn990   1.989   .     S
O984   Zn989   1.989   .     S
O985   Zn989   1.978   .     S
O986   Zn990   1.978   .     S
O987   Zn990   1.924   .     S
O988   Zn989   1.924   .     S
C991   C994    1.410   .     S
C991   O1047   1.281   .     A
C991   O1049   1.281   .     A
C992   C994    1.394   .     A
C992   H1028   1.086   .     S
C992   C629    1.375   1_565 S
C993   C1025   1.403   .     A
C993   C1026   1.394   .     A
C993   C1002   1.410   .     S
C994   C1024   1.403   .     A
C995   N1042   1.367   .     A
C995   H1029   1.082   .     S
C995   C1063   1.417   .     S
C996   N1041   1.367   .     A
C996   H1030   1.082   .     S
C996   C1130   1.417   1_455 S
C997   N1041   1.367   .     A
C997   H1031   1.081   .     S
C997   C1127   1.417   1_455 S
C998   H1032   1.081   .     S
C998   N1042   1.367   .     A
C998   C1062   1.417   .     S
C999   C1001   1.453   .     S
C999   O1051   1.293   .     A
C999   O1053   1.293   .     A
C1000  O1052   1.293   .     A
C1000  O1054   1.293   .     A
C1000  C1003   1.453   .     S
C1001  C1006   1.399   .     A
C1001  C1008   1.390   .     A
C1002  O1048   1.281   .     A
C1002  O1050   1.281   .     A
C1003  C1007   1.399   .     A
C1003  C1009   1.390   .     A
C1004  C1012   1.406   .     A
C1004  H1038   1.083   .     S
C1004  C1006   1.394   .     A
C1005  H1039   1.083   .     S
C1005  C1014   1.406   .     A
C1005  C1007   1.394   .     A
C1006  H1037   1.083   .     S
C1007  H1036   1.083   .     S
C1008  C1010   1.390   .     A
C1008  H1035   1.079   .     S
C1009  C1011   1.390   .     A
C1009  H1034   1.079   .     S
C1010  C1015   1.421   .     A
C1010  C1012   1.414   .     A
C1011  C1016   1.421   .     A
C1011  C1014   1.414   .     A
C1012  C428    1.387   1_556 S
C1013  C1022   1.392   .     A
C1013  C1017   1.447   .     S
C1013  C1016   1.433   .     A
C1015  C1021   1.433   .     A
C1015  C422    1.422   1_556 S
C1017  N1043   1.157   .     T
C1018  N1044   1.157   .     T
C1018  C1021   1.447   .     S
C1019  N1045   1.157   .     T
C1019  C1024   1.447   .     S
C1020  C1025   1.447   .     S
C1020  N1046   1.157   .     T
C1021  C1023   1.392   .     A
C1022  H1027   1.086   .     S
C1023  H1033   1.086   .     S
C1023  C420    1.387   1_556 S
C1024  C630    1.375   1_565 S
C1026  H1040   1.086   .     S
N1041  Zn1055  2.013   .     S
N1042  Zn1056  2.013   .     S
O1047  Zn1055  1.987   .     S
O1048  Zn1056  1.987   .     S
O1049  Zn1056  1.989   .     S
O1050  Zn1055  1.989   .     S
O1051  Zn1055  1.978   .     S
O1052  Zn1056  1.978   .     S
O1053  Zn1056  1.924   .     S
O1054  Zn1055  1.924   .     S
C1057  C1060   1.410   .     S
C1057  O1113   1.281   .     A
C1057  O1115   1.281   .     A
C1058  C1060   1.394   .     A
C1058  H1094   1.086   .     S
C1058  C695    1.375   1_565 S
C1059  C1091   1.403   .     A
C1059  C1092   1.394   .     A
C1059  C1068   1.410   .     S
C1060  C1090   1.403   .     A
C1061  N1108   1.367   .     A
C1061  H1095   1.082   .     S
C1061  C1129   1.417   .     S
C1062  N1107   1.367   .     A
C1062  H1096   1.082   .     S
C1063  N1107   1.367   .     A
C1063  H1097   1.081   .     S
C1064  H1098   1.081   .     S
C1064  N1108   1.367   .     A
C1064  C1128   1.417   .     S
C1065  C1067   1.453   .     S
C1065  O1117   1.293   .     A
C1065  O1119   1.293   .     A
C1066  O1118   1.293   .     A
C1066  O1120   1.293   .     A
C1066  C1069   1.453   .     S
C1067  C1072   1.399   .     A
C1067  C1074   1.390   .     A
C1068  O1114   1.281   .     A
C1068  O1116   1.281   .     A
C1069  C1073   1.399   .     A
C1069  C1075   1.390   .     A
C1070  C1078   1.406   .     A
C1070  H1104   1.083   .     S
C1070  C1072   1.394   .     A
C1071  H1105   1.083   .     S
C1071  C1080   1.406   .     A
C1071  C1073   1.394   .     A
C1072  H1103   1.083   .     S
C1073  H1102   1.083   .     S
C1074  C1076   1.390   .     A
C1074  H1101   1.079   .     S
C1075  C1077   1.390   .     A
C1075  H1100   1.079   .     S
C1076  C1081   1.421   .     A
C1076  C1078   1.414   .     A
C1077  C1082   1.421   .     A
C1077  C1080   1.414   .     A
C1078  C494    1.387   1_556 S
C1079  C1088   1.392   .     A
C1079  C1083   1.447   .     S
C1079  C1082   1.433   .     A
C1081  C1087   1.433   .     A
C1081  C488    1.422   1_556 S
C1083  N1109   1.157   .     T
C1084  N1110   1.157   .     T
C1084  C1087   1.447   .     S
C1085  N1111   1.157   .     T
C1085  C1090   1.447   .     S
C1086  C1091   1.447   .     S
C1086  N1112   1.157   .     T
C1087  C1089   1.392   .     A
C1088  H1093   1.086   .     S
C1089  H1099   1.086   .     S
C1089  C486    1.387   1_556 S
C1090  C696    1.375   1_565 S
C1092  H1106   1.086   .     S
N1107  Zn1121  2.013   .     S
N1108  Zn1122  2.013   .     S
O1113  Zn1121  1.987   .     S
O1114  Zn1122  1.987   .     S
O1115  Zn1122  1.989   .     S
O1116  Zn1121  1.989   .     S
O1117  Zn1121  1.978   .     S
O1118  Zn1122  1.978   .     S
O1119  Zn1122  1.924   .     S
O1120  Zn1121  1.924   .     S
C1123  C1126   1.410   .     S
C1123  O1179   1.281   .     A
C1123  O1181   1.281   .     A
C1124  C1126   1.394   .     A
C1124  H1160   1.086   .     S
C1124  C761    1.375   1_565 S
C1125  C1157   1.403   .     A
C1125  C1158   1.394   .     A
C1125  C1134   1.410   .     S
C1126  C1156   1.403   .     A
C1127  N1174   1.367   .     A
C1127  H1161   1.082   .     S
C1127  C997    1.417   1_655 S
C1128  N1173   1.367   .     A
C1128  H1162   1.082   .     S
C1129  N1173   1.367   .     A
C1129  H1163   1.081   .     S
C1130  H1164   1.081   .     S
C1130  N1174   1.367   .     A
C1130  C996    1.417   1_655 S
C1131  C1133   1.453   .     S
C1131  O1183   1.293   .     A
C1131  O1185   1.293   .     A
C1132  O1184   1.293   .     A
C1132  O1186   1.293   .     A
C1132  C1135   1.453   .     S
C1133  C1138   1.399   .     A
C1133  C1140   1.390   .     A
C1134  O1180   1.281   .     A
C1134  O1182   1.281   .     A
C1135  C1139   1.399   .     A
C1135  C1141   1.390   .     A
C1136  C1144   1.406   .     A
C1136  H1170   1.083   .     S
C1136  C1138   1.394   .     A
C1137  H1171   1.083   .     S
C1137  C1146   1.406   .     A
C1137  C1139   1.394   .     A
C1138  H1169   1.083   .     S
C1139  H1168   1.083   .     S
C1140  C1142   1.390   .     A
C1140  H1167   1.079   .     S
C1141  C1143   1.390   .     A
C1141  H1166   1.079   .     S
C1142  C1147   1.421   .     A
C1142  C1144   1.414   .     A
C1143  C1148   1.421   .     A
C1143  C1146   1.414   .     A
C1144  C560    1.387   1_556 S
C1145  C1154   1.392   .     A
C1145  C1149   1.447   .     S
C1145  C1148   1.433   .     A
C1147  C1153   1.433   .     A
C1147  C554    1.422   1_556 S
C1149  N1175   1.157   .     T
C1150  N1176   1.157   .     T
C1150  C1153   1.447   .     S
C1151  N1177   1.157   .     T
C1151  C1156   1.447   .     S
C1152  C1157   1.447   .     S
C1152  N1178   1.157   .     T
C1153  C1155   1.392   .     A
C1154  H1159   1.086   .     S
C1155  H1165   1.086   .     S
C1155  C552    1.387   1_556 S
C1156  C762    1.375   1_565 S
C1158  H1172   1.086   .     S
N1173  Zn1187  2.013   .     S
N1174  Zn1188  2.013   .     S
O1179  Zn1187  1.987   .     S
O1180  Zn1188  1.987   .     S
O1181  Zn1188  1.989   .     S
O1182  Zn1187  1.989   .     S
O1183  Zn1187  1.978   .     S
O1184  Zn1188  1.978   .     S
O1185  Zn1188  1.924   .     S
O1186  Zn1187  1.924   .     S
