data_str_m3_o2_o10_pcu_sym.135
_audit_creation_date              2020-01-03
_audit_creation_method            'Materials Studio'
_symmetry_space_group_name_H-M    'P1'
_symmetry_Int_Tables_number       1
_symmetry_cell_setting            triclinic
loop_
_symmetry_equiv_pos_as_xyz
  x,y,z
_cell_length_a                    25.8654
_cell_length_b                    29.5987
_cell_length_c                    28.3229
_cell_angle_alpha                 90.0600
_cell_angle_beta                  97.7602
_cell_angle_gamma                 89.9853
loop_
_atom_site_label
_atom_site_type_symbol
_atom_site_fract_x
_atom_site_fract_y
_atom_site_fract_z
_atom_site_U_iso_or_equiv
_atom_site_adp_type
_atom_site_occupancy
O1     O     0.16667   0.18453   0.28974   0.00000  Uiso   1.00
O2     O     0.16666   0.31547   0.21026   0.00000  Uiso   1.00
O3     O     0.16667   0.18453   0.21026   0.00000  Uiso   1.00
O4     O     0.16666   0.31547   0.28974   0.00000  Uiso   1.00
C5     C     0.16805   0.16357   0.25013   0.00000  Uiso   1.00
C6     C     0.16808   0.33644   0.25022   0.00000  Uiso   1.00
O7     O     0.09058   0.25000   0.28044   0.00000  Uiso   1.00
O8     O     0.24275   0.25000   0.21955   0.00000  Uiso   1.00
O9     O     0.09058   0.25000   0.20096   0.00000  Uiso   1.00
O10    O     0.24275   0.25000   0.29903   0.00000  Uiso   1.00
C11    C     0.06730   0.24899   0.23809   0.00000  Uiso   1.00
C12    C     0.26603   0.25096   0.26193   0.00000  Uiso   1.00
Zn13   Zn    0.16667   0.25001   0.30307   0.00000  Uiso   1.00
Zn14   Zn    0.16667   0.25000   0.19693   0.00000  Uiso   1.00
C15    C     0.01354   0.24028   0.23381   0.00000  Uiso   1.00
C16    C     0.31981   0.25954   0.26630   0.00000  Uiso   1.00
C17    C     0.17356   0.04387   0.28956   0.00000  Uiso   1.00
C18    C     0.17394   0.45617   0.21231   0.00000  Uiso   1.00
H19    H     0.15830   0.02325   0.31611   0.00000  Uiso   1.00
H20    H     0.15892   0.47680   0.18192   0.00000  Uiso   1.00
C21    C     0.16215   0.08943   0.28760   0.00000  Uiso   1.00
C22    C     0.16255   0.41060   0.21134   0.00000  Uiso   1.00
H23    H     0.13981   0.10395   0.31358   0.00000  Uiso   1.00
H24    H     0.14046   0.39611   0.17971   0.00000  Uiso   1.00
C25    C     0.17807   0.11565   0.25132   0.00000  Uiso   1.00
C26    C     0.17816   0.38435   0.25158   0.00000  Uiso   1.00
C27    C     0.20767   0.09681   0.21832   0.00000  Uiso   1.00
C28    C     0.20744   0.40318   0.29206   0.00000  Uiso   1.00
H29    H     0.22177   0.11798   0.19159   0.00000  Uiso   1.00
H30    H     0.22135   0.38200   0.32231   0.00000  Uiso   1.00
C31    C     0.22078   0.05115   0.22070   0.00000  Uiso   1.00
C32    C     0.22047   0.44886   0.29308   0.00000  Uiso   1.00
C33    C     0.20197   0.02446   0.25595   0.00000  Uiso   1.00
C34    C     0.20199   0.47556   0.25310   0.00000  Uiso   1.00
C35    C     0.12522   0.23393   0.04674   0.00000  Uiso   1.00
C36    C     0.17800   0.28816   0.44960   0.00000  Uiso   1.00
H37    H     0.09106   0.22198   0.02378   0.00000  Uiso   1.00
H38    H     0.18586   0.31934   0.46931   0.00000  Uiso   1.00
C39    C     0.12478   0.23446   0.09630   0.00000  Uiso   1.00
C40    C     0.17716   0.28842   0.39987   0.00000  Uiso   1.00
H41    H     0.09073   0.22242   0.11081   0.00000  Uiso   1.00
H42    H     0.18499   0.31956   0.38223   0.00000  Uiso   1.00
N43    N     0.16667   0.24999   0.12623   0.00000  Uiso   1.00
N44    N     0.16667   0.25001   0.37376   0.00000  Uiso   1.00
C45    C     0.20969   0.26541   0.10829   0.00000  Uiso   1.00
C46    C     0.15671   0.21066   0.39588   0.00000  Uiso   1.00
H47    H     0.24238   0.27771   0.13271   0.00000  Uiso   1.00
H48    H     0.14872   0.18047   0.37468   0.00000  Uiso   1.00
C49    C     0.21295   0.26428   0.05885   0.00000  Uiso   1.00
C50    C     0.15833   0.20820   0.44593   0.00000  Uiso   1.00
C51    C     0.16952   0.24849   0.02704   0.00000  Uiso   1.00
C52    C     0.16898   0.24793   0.47367   0.00000  Uiso   1.00
C53    C     0.32626   0.20310   0.19896   0.00000  Uiso   1.00
H54    H     0.02526   0.18388   0.18617   0.00000  Uiso   1.00
H55    H     0.30280   0.17828   0.21642   0.00000  Uiso   1.00
H56    H     0.30250   0.21781   0.16717   0.00000  Uiso   1.00
C57    C     0.00725   0.29632   0.30159   0.00000  Uiso   1.00
H58    H     0.30835   0.31530   0.31487   0.00000  Uiso   1.00
H59    H     0.03130   0.28120   0.33305   0.00000  Uiso   1.00
H60    H     0.03050   0.32144   0.28430   0.00000  Uiso   1.00
N61    N     0.25264   0.03247   0.18748   0.00000  Uiso   1.00
O62    O     0.28275   0.49791   0.19920   0.00000  Uiso   1.00
O63    O     0.25553   0.05255   0.14706   0.00000  Uiso   1.00
N64    N     0.25188   0.46754   0.33440   0.00000  Uiso   1.00
O65    O     0.28203   0.00214   0.33041   0.00000  Uiso   1.00
O66    O     0.25432   0.44745   0.37550   0.00000  Uiso   1.00
N67    N     0.26092   0.27751   0.04225   0.00000  Uiso   1.00
O68    O     0.27765   0.25612   0.00712   0.00000  Uiso   1.00
O69    O     0.29154   0.30678   0.06625   0.00000  Uiso   1.00
N70    N     0.15104   0.16513   0.46761   0.00000  Uiso   1.00
O71    O     0.17841   0.15425   0.00796   0.00000  Uiso   1.00
O72    O     0.12205   0.13440   0.44420   0.00000  Uiso   1.00
O73    O     0.50000   0.18453   0.28974   0.00000  Uiso   1.00
O74    O     0.50000   0.31547   0.21026   0.00000  Uiso   1.00
O75    O     0.50000   0.18453   0.21026   0.00000  Uiso   1.00
O76    O     0.50000   0.31547   0.28974   0.00000  Uiso   1.00
C77    C     0.50138   0.16357   0.25013   0.00000  Uiso   1.00
C78    C     0.50142   0.33644   0.25022   0.00000  Uiso   1.00
O79    O     0.42392   0.25000   0.28044   0.00000  Uiso   1.00
O80    O     0.57608   0.25000   0.21955   0.00000  Uiso   1.00
O81    O     0.42392   0.25000   0.20096   0.00000  Uiso   1.00
O82    O     0.57608   0.25000   0.29903   0.00000  Uiso   1.00
C83    C     0.40064   0.24899   0.23809   0.00000  Uiso   1.00
C84    C     0.59936   0.25096   0.26193   0.00000  Uiso   1.00
Zn85   Zn    0.50000   0.25001   0.30307   0.00000  Uiso   1.00
Zn86   Zn    0.50000   0.25000   0.19693   0.00000  Uiso   1.00
C87    C     0.34687   0.24028   0.23381   0.00000  Uiso   1.00
C88    C     0.65314   0.25954   0.26630   0.00000  Uiso   1.00
C89    C     0.50689   0.04387   0.28956   0.00000  Uiso   1.00
C90    C     0.50727   0.45617   0.21231   0.00000  Uiso   1.00
H91    H     0.49163   0.02325   0.31611   0.00000  Uiso   1.00
H92    H     0.49226   0.47680   0.18192   0.00000  Uiso   1.00
C93    C     0.49548   0.08943   0.28760   0.00000  Uiso   1.00
C94    C     0.49589   0.41060   0.21134   0.00000  Uiso   1.00
H95    H     0.47314   0.10395   0.31358   0.00000  Uiso   1.00
H96    H     0.47379   0.39611   0.17971   0.00000  Uiso   1.00
C97    C     0.51140   0.11565   0.25132   0.00000  Uiso   1.00
C98    C     0.51150   0.38435   0.25158   0.00000  Uiso   1.00
C99    C     0.54100   0.09681   0.21832   0.00000  Uiso   1.00
C100   C     0.54078   0.40318   0.29206   0.00000  Uiso   1.00
H101   H     0.55510   0.11798   0.19159   0.00000  Uiso   1.00
H102   H     0.55468   0.38200   0.32231   0.00000  Uiso   1.00
C103   C     0.55412   0.05115   0.22070   0.00000  Uiso   1.00
C104   C     0.55380   0.44886   0.29308   0.00000  Uiso   1.00
C105   C     0.53531   0.02446   0.25595   0.00000  Uiso   1.00
C106   C     0.53532   0.47556   0.25310   0.00000  Uiso   1.00
C107   C     0.45855   0.23393   0.04674   0.00000  Uiso   1.00
C108   C     0.51134   0.28816   0.44960   0.00000  Uiso   1.00
H109   H     0.42439   0.22198   0.02378   0.00000  Uiso   1.00
H110   H     0.51919   0.31934   0.46931   0.00000  Uiso   1.00
C111   C     0.45811   0.23446   0.09630   0.00000  Uiso   1.00
C112   C     0.51049   0.28842   0.39987   0.00000  Uiso   1.00
H113   H     0.42406   0.22242   0.11081   0.00000  Uiso   1.00
H114   H     0.51832   0.31956   0.38223   0.00000  Uiso   1.00
N115   N     0.50000   0.24999   0.12623   0.00000  Uiso   1.00
N116   N     0.50000   0.25001   0.37376   0.00000  Uiso   1.00
C117   C     0.54302   0.26541   0.10829   0.00000  Uiso   1.00
C118   C     0.49005   0.21066   0.39588   0.00000  Uiso   1.00
H119   H     0.57571   0.27771   0.13271   0.00000  Uiso   1.00
H120   H     0.48206   0.18047   0.37468   0.00000  Uiso   1.00
C121   C     0.54628   0.26428   0.05885   0.00000  Uiso   1.00
C122   C     0.49167   0.20820   0.44593   0.00000  Uiso   1.00
C123   C     0.50285   0.24849   0.02704   0.00000  Uiso   1.00
C124   C     0.50231   0.24793   0.47367   0.00000  Uiso   1.00
C125   C     0.65959   0.20310   0.19896   0.00000  Uiso   1.00
H126   H     0.35860   0.18388   0.18617   0.00000  Uiso   1.00
H127   H     0.63613   0.17828   0.21642   0.00000  Uiso   1.00
H128   H     0.63583   0.21781   0.16717   0.00000  Uiso   1.00
C129   C     0.34058   0.29632   0.30159   0.00000  Uiso   1.00
H130   H     0.64168   0.31530   0.31487   0.00000  Uiso   1.00
H131   H     0.36464   0.28120   0.33305   0.00000  Uiso   1.00
H132   H     0.36383   0.32144   0.28430   0.00000  Uiso   1.00
N133   N     0.58597   0.03247   0.18748   0.00000  Uiso   1.00
O134   O     0.61609   0.49791   0.19920   0.00000  Uiso   1.00
O135   O     0.58887   0.05255   0.14706   0.00000  Uiso   1.00
N136   N     0.58521   0.46754   0.33440   0.00000  Uiso   1.00
O137   O     0.61536   0.00214   0.33041   0.00000  Uiso   1.00
O138   O     0.58765   0.44745   0.37550   0.00000  Uiso   1.00
N139   N     0.59425   0.27751   0.04225   0.00000  Uiso   1.00
O140   O     0.61098   0.25612   0.00712   0.00000  Uiso   1.00
O141   O     0.62488   0.30678   0.06625   0.00000  Uiso   1.00
N142   N     0.48438   0.16513   0.46761   0.00000  Uiso   1.00
O143   O     0.51174   0.15425   0.00796   0.00000  Uiso   1.00
O144   O     0.45538   0.13440   0.44420   0.00000  Uiso   1.00
O145   O     0.83334   0.18453   0.28974   0.00000  Uiso   1.00
O146   O     0.83333   0.31547   0.21026   0.00000  Uiso   1.00
O147   O     0.83334   0.18453   0.21026   0.00000  Uiso   1.00
O148   O     0.83333   0.31547   0.28974   0.00000  Uiso   1.00
C149   C     0.83472   0.16357   0.25013   0.00000  Uiso   1.00
C150   C     0.83475   0.33644   0.25022   0.00000  Uiso   1.00
O151   O     0.75725   0.25000   0.28044   0.00000  Uiso   1.00
O152   O     0.90942   0.25000   0.21955   0.00000  Uiso   1.00
O153   O     0.75725   0.25000   0.20096   0.00000  Uiso   1.00
O154   O     0.90942   0.25000   0.29903   0.00000  Uiso   1.00
C155   C     0.73397   0.24899   0.23809   0.00000  Uiso   1.00
C156   C     0.93269   0.25096   0.26193   0.00000  Uiso   1.00
Zn157  Zn    0.83333   0.25001   0.30307   0.00000  Uiso   1.00
Zn158  Zn    0.83333   0.25000   0.19693   0.00000  Uiso   1.00
C159   C     0.68021   0.24028   0.23381   0.00000  Uiso   1.00
C160   C     0.98648   0.25954   0.26630   0.00000  Uiso   1.00
C161   C     0.84023   0.04387   0.28956   0.00000  Uiso   1.00
C162   C     0.84061   0.45617   0.21231   0.00000  Uiso   1.00
H163   H     0.82496   0.02325   0.31611   0.00000  Uiso   1.00
H164   H     0.82559   0.47680   0.18192   0.00000  Uiso   1.00
C165   C     0.82882   0.08943   0.28760   0.00000  Uiso   1.00
C166   C     0.82922   0.41060   0.21134   0.00000  Uiso   1.00
H167   H     0.80647   0.10395   0.31358   0.00000  Uiso   1.00
H168   H     0.80712   0.39611   0.17971   0.00000  Uiso   1.00
C169   C     0.84473   0.11565   0.25132   0.00000  Uiso   1.00
C170   C     0.84483   0.38435   0.25158   0.00000  Uiso   1.00
C171   C     0.87434   0.09681   0.21832   0.00000  Uiso   1.00
C172   C     0.87411   0.40318   0.29206   0.00000  Uiso   1.00
H173   H     0.88844   0.11798   0.19159   0.00000  Uiso   1.00
H174   H     0.88802   0.38200   0.32231   0.00000  Uiso   1.00
C175   C     0.88745   0.05115   0.22070   0.00000  Uiso   1.00
C176   C     0.88713   0.44886   0.29308   0.00000  Uiso   1.00
C177   C     0.86864   0.02446   0.25595   0.00000  Uiso   1.00
C178   C     0.86865   0.47556   0.25310   0.00000  Uiso   1.00
C179   C     0.79188   0.23393   0.04674   0.00000  Uiso   1.00
C180   C     0.84467   0.28816   0.44960   0.00000  Uiso   1.00
H181   H     0.75772   0.22198   0.02378   0.00000  Uiso   1.00
H182   H     0.85253   0.31934   0.46931   0.00000  Uiso   1.00
C183   C     0.79145   0.23446   0.09630   0.00000  Uiso   1.00
C184   C     0.84382   0.28842   0.39987   0.00000  Uiso   1.00
H185   H     0.75739   0.22242   0.11081   0.00000  Uiso   1.00
H186   H     0.85166   0.31956   0.38223   0.00000  Uiso   1.00
N187   N     0.83333   0.24999   0.12623   0.00000  Uiso   1.00
N188   N     0.83333   0.25001   0.37376   0.00000  Uiso   1.00
C189   C     0.87636   0.26541   0.10829   0.00000  Uiso   1.00
C190   C     0.82338   0.21066   0.39588   0.00000  Uiso   1.00
H191   H     0.90905   0.27771   0.13271   0.00000  Uiso   1.00
H192   H     0.81539   0.18047   0.37468   0.00000  Uiso   1.00
C193   C     0.87962   0.26428   0.05885   0.00000  Uiso   1.00
C194   C     0.82500   0.20820   0.44593   0.00000  Uiso   1.00
C195   C     0.83619   0.24849   0.02704   0.00000  Uiso   1.00
C196   C     0.83564   0.24793   0.47367   0.00000  Uiso   1.00
C197   C     0.99292   0.20310   0.19896   0.00000  Uiso   1.00
H198   H     0.69193   0.18388   0.18617   0.00000  Uiso   1.00
H199   H     0.96947   0.17828   0.21642   0.00000  Uiso   1.00
H200   H     0.96917   0.21781   0.16717   0.00000  Uiso   1.00
C201   C     0.67391   0.29632   0.30159   0.00000  Uiso   1.00
H202   H     0.97502   0.31530   0.31487   0.00000  Uiso   1.00
H203   H     0.69797   0.28120   0.33305   0.00000  Uiso   1.00
H204   H     0.69716   0.32144   0.28430   0.00000  Uiso   1.00
N205   N     0.91930   0.03247   0.18748   0.00000  Uiso   1.00
O206   O     0.94942   0.49791   0.19920   0.00000  Uiso   1.00
O207   O     0.92220   0.05255   0.14706   0.00000  Uiso   1.00
N208   N     0.91855   0.46754   0.33440   0.00000  Uiso   1.00
O209   O     0.94870   0.00214   0.33041   0.00000  Uiso   1.00
O210   O     0.92098   0.44745   0.37550   0.00000  Uiso   1.00
N211   N     0.92758   0.27751   0.04225   0.00000  Uiso   1.00
O212   O     0.94432   0.25612   0.00712   0.00000  Uiso   1.00
O213   O     0.95821   0.30678   0.06625   0.00000  Uiso   1.00
N214   N     0.81771   0.16513   0.46761   0.00000  Uiso   1.00
O215   O     0.84507   0.15425   0.00796   0.00000  Uiso   1.00
O216   O     0.78872   0.13440   0.44420   0.00000  Uiso   1.00
O217   O     0.16667   0.68453   0.28974   0.00000  Uiso   1.00
O218   O     0.16666   0.81547   0.21026   0.00000  Uiso   1.00
O219   O     0.16667   0.68453   0.21026   0.00000  Uiso   1.00
O220   O     0.16666   0.81547   0.28974   0.00000  Uiso   1.00
C221   C     0.16805   0.66357   0.25013   0.00000  Uiso   1.00
C222   C     0.16808   0.83644   0.25022   0.00000  Uiso   1.00
O223   O     0.09058   0.75000   0.28044   0.00000  Uiso   1.00
O224   O     0.24275   0.75000   0.21955   0.00000  Uiso   1.00
O225   O     0.09058   0.75000   0.20096   0.00000  Uiso   1.00
O226   O     0.24275   0.75000   0.29903   0.00000  Uiso   1.00
C227   C     0.06730   0.74899   0.23809   0.00000  Uiso   1.00
C228   C     0.26603   0.75096   0.26193   0.00000  Uiso   1.00
Zn229  Zn    0.16667   0.75001   0.30307   0.00000  Uiso   1.00
Zn230  Zn    0.16667   0.75000   0.19693   0.00000  Uiso   1.00
C231   C     0.01354   0.74028   0.23381   0.00000  Uiso   1.00
C232   C     0.31981   0.75954   0.26630   0.00000  Uiso   1.00
C233   C     0.17356   0.54387   0.28956   0.00000  Uiso   1.00
C234   C     0.17394   0.95617   0.21231   0.00000  Uiso   1.00
H235   H     0.15830   0.52325   0.31611   0.00000  Uiso   1.00
H236   H     0.15892   0.97680   0.18192   0.00000  Uiso   1.00
C237   C     0.16215   0.58943   0.28760   0.00000  Uiso   1.00
C238   C     0.16255   0.91060   0.21134   0.00000  Uiso   1.00
H239   H     0.13981   0.60395   0.31358   0.00000  Uiso   1.00
H240   H     0.14046   0.89611   0.17971   0.00000  Uiso   1.00
C241   C     0.17807   0.61565   0.25132   0.00000  Uiso   1.00
C242   C     0.17816   0.88435   0.25158   0.00000  Uiso   1.00
C243   C     0.20767   0.59681   0.21832   0.00000  Uiso   1.00
C244   C     0.20744   0.90318   0.29206   0.00000  Uiso   1.00
H245   H     0.22177   0.61798   0.19159   0.00000  Uiso   1.00
H246   H     0.22135   0.88200   0.32231   0.00000  Uiso   1.00
C247   C     0.22078   0.55115   0.22070   0.00000  Uiso   1.00
C248   C     0.22047   0.94886   0.29308   0.00000  Uiso   1.00
C249   C     0.20197   0.52446   0.25595   0.00000  Uiso   1.00
C250   C     0.20199   0.97556   0.25310   0.00000  Uiso   1.00
C251   C     0.12522   0.73393   0.04674   0.00000  Uiso   1.00
C252   C     0.17800   0.78816   0.44960   0.00000  Uiso   1.00
H253   H     0.09106   0.72198   0.02378   0.00000  Uiso   1.00
H254   H     0.18586   0.81934   0.46931   0.00000  Uiso   1.00
C255   C     0.12478   0.73446   0.09630   0.00000  Uiso   1.00
C256   C     0.17716   0.78842   0.39987   0.00000  Uiso   1.00
H257   H     0.09073   0.72242   0.11081   0.00000  Uiso   1.00
H258   H     0.18499   0.81956   0.38223   0.00000  Uiso   1.00
N259   N     0.16667   0.74999   0.12623   0.00000  Uiso   1.00
N260   N     0.16667   0.75001   0.37376   0.00000  Uiso   1.00
C261   C     0.20969   0.76541   0.10829   0.00000  Uiso   1.00
C262   C     0.15671   0.71066   0.39588   0.00000  Uiso   1.00
H263   H     0.24238   0.77771   0.13271   0.00000  Uiso   1.00
H264   H     0.14872   0.68047   0.37468   0.00000  Uiso   1.00
C265   C     0.21295   0.76428   0.05885   0.00000  Uiso   1.00
C266   C     0.15833   0.70820   0.44593   0.00000  Uiso   1.00
C267   C     0.16952   0.74849   0.02704   0.00000  Uiso   1.00
C268   C     0.16898   0.74793   0.47367   0.00000  Uiso   1.00
C269   C     0.32626   0.70310   0.19896   0.00000  Uiso   1.00
H270   H     0.02526   0.68388   0.18617   0.00000  Uiso   1.00
H271   H     0.30280   0.67828   0.21642   0.00000  Uiso   1.00
H272   H     0.30250   0.71781   0.16717   0.00000  Uiso   1.00
C273   C     0.00725   0.79632   0.30159   0.00000  Uiso   1.00
H274   H     0.30835   0.81530   0.31487   0.00000  Uiso   1.00
H275   H     0.03130   0.78120   0.33305   0.00000  Uiso   1.00
H276   H     0.03050   0.82144   0.28430   0.00000  Uiso   1.00
N277   N     0.25264   0.53247   0.18748   0.00000  Uiso   1.00
O278   O     0.28275   0.99791   0.19920   0.00000  Uiso   1.00
O279   O     0.25553   0.55255   0.14706   0.00000  Uiso   1.00
N280   N     0.25188   0.96754   0.33440   0.00000  Uiso   1.00
O281   O     0.28203   0.50214   0.33041   0.00000  Uiso   1.00
O282   O     0.25432   0.94745   0.37550   0.00000  Uiso   1.00
N283   N     0.26092   0.77751   0.04225   0.00000  Uiso   1.00
O284   O     0.27765   0.75612   0.00712   0.00000  Uiso   1.00
O285   O     0.29154   0.80678   0.06625   0.00000  Uiso   1.00
N286   N     0.15104   0.66513   0.46761   0.00000  Uiso   1.00
O287   O     0.17841   0.65425   0.00796   0.00000  Uiso   1.00
O288   O     0.12205   0.63440   0.44420   0.00000  Uiso   1.00
O289   O     0.50000   0.68453   0.28974   0.00000  Uiso   1.00
O290   O     0.50000   0.81547   0.21026   0.00000  Uiso   1.00
O291   O     0.50000   0.68453   0.21026   0.00000  Uiso   1.00
O292   O     0.50000   0.81547   0.28974   0.00000  Uiso   1.00
C293   C     0.50138   0.66357   0.25013   0.00000  Uiso   1.00
C294   C     0.50142   0.83644   0.25022   0.00000  Uiso   1.00
O295   O     0.42392   0.75000   0.28044   0.00000  Uiso   1.00
O296   O     0.57608   0.75000   0.21955   0.00000  Uiso   1.00
O297   O     0.42392   0.75000   0.20096   0.00000  Uiso   1.00
O298   O     0.57608   0.75000   0.29903   0.00000  Uiso   1.00
C299   C     0.40064   0.74899   0.23809   0.00000  Uiso   1.00
C300   C     0.59936   0.75096   0.26193   0.00000  Uiso   1.00
Zn301  Zn    0.50000   0.75001   0.30307   0.00000  Uiso   1.00
Zn302  Zn    0.50000   0.75000   0.19693   0.00000  Uiso   1.00
C303   C     0.34687   0.74028   0.23381   0.00000  Uiso   1.00
C304   C     0.65314   0.75954   0.26630   0.00000  Uiso   1.00
C305   C     0.50689   0.54387   0.28956   0.00000  Uiso   1.00
C306   C     0.50727   0.95617   0.21231   0.00000  Uiso   1.00
H307   H     0.49163   0.52325   0.31611   0.00000  Uiso   1.00
H308   H     0.49226   0.97680   0.18192   0.00000  Uiso   1.00
C309   C     0.49548   0.58943   0.28760   0.00000  Uiso   1.00
C310   C     0.49589   0.91060   0.21134   0.00000  Uiso   1.00
H311   H     0.47314   0.60395   0.31358   0.00000  Uiso   1.00
H312   H     0.47379   0.89611   0.17971   0.00000  Uiso   1.00
C313   C     0.51140   0.61565   0.25132   0.00000  Uiso   1.00
C314   C     0.51150   0.88435   0.25158   0.00000  Uiso   1.00
C315   C     0.54100   0.59681   0.21832   0.00000  Uiso   1.00
C316   C     0.54078   0.90318   0.29206   0.00000  Uiso   1.00
H317   H     0.55510   0.61798   0.19159   0.00000  Uiso   1.00
H318   H     0.55468   0.88200   0.32231   0.00000  Uiso   1.00
C319   C     0.55412   0.55115   0.22070   0.00000  Uiso   1.00
C320   C     0.55380   0.94886   0.29308   0.00000  Uiso   1.00
C321   C     0.53531   0.52446   0.25595   0.00000  Uiso   1.00
C322   C     0.53532   0.97556   0.25310   0.00000  Uiso   1.00
C323   C     0.45855   0.73393   0.04674   0.00000  Uiso   1.00
C324   C     0.51134   0.78816   0.44960   0.00000  Uiso   1.00
H325   H     0.42439   0.72198   0.02378   0.00000  Uiso   1.00
H326   H     0.51919   0.81934   0.46931   0.00000  Uiso   1.00
C327   C     0.45811   0.73446   0.09630   0.00000  Uiso   1.00
C328   C     0.51049   0.78842   0.39987   0.00000  Uiso   1.00
H329   H     0.42406   0.72242   0.11081   0.00000  Uiso   1.00
H330   H     0.51832   0.81956   0.38223   0.00000  Uiso   1.00
N331   N     0.50000   0.74999   0.12623   0.00000  Uiso   1.00
N332   N     0.50000   0.75001   0.37376   0.00000  Uiso   1.00
C333   C     0.54302   0.76541   0.10829   0.00000  Uiso   1.00
C334   C     0.49005   0.71066   0.39588   0.00000  Uiso   1.00
H335   H     0.57571   0.77771   0.13271   0.00000  Uiso   1.00
H336   H     0.48206   0.68047   0.37468   0.00000  Uiso   1.00
C337   C     0.54628   0.76428   0.05885   0.00000  Uiso   1.00
C338   C     0.49167   0.70820   0.44593   0.00000  Uiso   1.00
C339   C     0.50285   0.74849   0.02704   0.00000  Uiso   1.00
C340   C     0.50231   0.74793   0.47367   0.00000  Uiso   1.00
C341   C     0.65959   0.70310   0.19896   0.00000  Uiso   1.00
H342   H     0.35860   0.68388   0.18617   0.00000  Uiso   1.00
H343   H     0.63613   0.67828   0.21642   0.00000  Uiso   1.00
H344   H     0.63583   0.71781   0.16717   0.00000  Uiso   1.00
C345   C     0.34058   0.79632   0.30159   0.00000  Uiso   1.00
H346   H     0.64168   0.81530   0.31487   0.00000  Uiso   1.00
H347   H     0.36464   0.78120   0.33305   0.00000  Uiso   1.00
H348   H     0.36383   0.82144   0.28430   0.00000  Uiso   1.00
N349   N     0.58597   0.53247   0.18748   0.00000  Uiso   1.00
O350   O     0.61609   0.99791   0.19920   0.00000  Uiso   1.00
O351   O     0.58887   0.55255   0.14706   0.00000  Uiso   1.00
N352   N     0.58521   0.96754   0.33440   0.00000  Uiso   1.00
O353   O     0.61536   0.50214   0.33041   0.00000  Uiso   1.00
O354   O     0.58765   0.94745   0.37550   0.00000  Uiso   1.00
N355   N     0.59425   0.77751   0.04225   0.00000  Uiso   1.00
O356   O     0.61098   0.75612   0.00712   0.00000  Uiso   1.00
O357   O     0.62488   0.80678   0.06625   0.00000  Uiso   1.00
N358   N     0.48438   0.66513   0.46761   0.00000  Uiso   1.00
O359   O     0.51174   0.65425   0.00796   0.00000  Uiso   1.00
O360   O     0.45538   0.63440   0.44420   0.00000  Uiso   1.00
O361   O     0.83334   0.68453   0.28974   0.00000  Uiso   1.00
O362   O     0.83333   0.81547   0.21026   0.00000  Uiso   1.00
O363   O     0.83334   0.68453   0.21026   0.00000  Uiso   1.00
O364   O     0.83333   0.81547   0.28974   0.00000  Uiso   1.00
C365   C     0.83472   0.66357   0.25013   0.00000  Uiso   1.00
C366   C     0.83475   0.83644   0.25022   0.00000  Uiso   1.00
O367   O     0.75725   0.75000   0.28044   0.00000  Uiso   1.00
O368   O     0.90942   0.75000   0.21955   0.00000  Uiso   1.00
O369   O     0.75725   0.75000   0.20096   0.00000  Uiso   1.00
O370   O     0.90942   0.75000   0.29903   0.00000  Uiso   1.00
C371   C     0.73397   0.74899   0.23809   0.00000  Uiso   1.00
C372   C     0.93269   0.75096   0.26193   0.00000  Uiso   1.00
Zn373  Zn    0.83333   0.75001   0.30307   0.00000  Uiso   1.00
Zn374  Zn    0.83333   0.75000   0.19693   0.00000  Uiso   1.00
C375   C     0.68021   0.74028   0.23381   0.00000  Uiso   1.00
C376   C     0.98648   0.75954   0.26630   0.00000  Uiso   1.00
C377   C     0.84023   0.54387   0.28956   0.00000  Uiso   1.00
C378   C     0.84061   0.95617   0.21231   0.00000  Uiso   1.00
H379   H     0.82496   0.52325   0.31611   0.00000  Uiso   1.00
H380   H     0.82559   0.97680   0.18192   0.00000  Uiso   1.00
C381   C     0.82882   0.58943   0.28760   0.00000  Uiso   1.00
C382   C     0.82922   0.91060   0.21134   0.00000  Uiso   1.00
H383   H     0.80647   0.60395   0.31358   0.00000  Uiso   1.00
H384   H     0.80712   0.89611   0.17971   0.00000  Uiso   1.00
C385   C     0.84473   0.61565   0.25132   0.00000  Uiso   1.00
C386   C     0.84483   0.88435   0.25158   0.00000  Uiso   1.00
C387   C     0.87434   0.59681   0.21832   0.00000  Uiso   1.00
C388   C     0.87411   0.90318   0.29206   0.00000  Uiso   1.00
H389   H     0.88844   0.61798   0.19159   0.00000  Uiso   1.00
H390   H     0.88802   0.88200   0.32231   0.00000  Uiso   1.00
C391   C     0.88745   0.55115   0.22070   0.00000  Uiso   1.00
C392   C     0.88713   0.94886   0.29308   0.00000  Uiso   1.00
C393   C     0.86864   0.52446   0.25595   0.00000  Uiso   1.00
C394   C     0.86865   0.97556   0.25310   0.00000  Uiso   1.00
C395   C     0.79188   0.73393   0.04674   0.00000  Uiso   1.00
C396   C     0.84467   0.78816   0.44960   0.00000  Uiso   1.00
H397   H     0.75772   0.72198   0.02378   0.00000  Uiso   1.00
H398   H     0.85253   0.81934   0.46931   0.00000  Uiso   1.00
C399   C     0.79145   0.73446   0.09630   0.00000  Uiso   1.00
C400   C     0.84382   0.78842   0.39987   0.00000  Uiso   1.00
H401   H     0.75739   0.72242   0.11081   0.00000  Uiso   1.00
H402   H     0.85166   0.81956   0.38223   0.00000  Uiso   1.00
N403   N     0.83333   0.74999   0.12623   0.00000  Uiso   1.00
N404   N     0.83333   0.75001   0.37376   0.00000  Uiso   1.00
C405   C     0.87636   0.76541   0.10829   0.00000  Uiso   1.00
C406   C     0.82338   0.71066   0.39588   0.00000  Uiso   1.00
H407   H     0.90905   0.77771   0.13271   0.00000  Uiso   1.00
H408   H     0.81539   0.68047   0.37468   0.00000  Uiso   1.00
C409   C     0.87962   0.76428   0.05885   0.00000  Uiso   1.00
C410   C     0.82500   0.70820   0.44593   0.00000  Uiso   1.00
C411   C     0.83619   0.74849   0.02704   0.00000  Uiso   1.00
C412   C     0.83564   0.74793   0.47367   0.00000  Uiso   1.00
C413   C     0.99292   0.70310   0.19896   0.00000  Uiso   1.00
H414   H     0.69193   0.68388   0.18617   0.00000  Uiso   1.00
H415   H     0.96947   0.67828   0.21642   0.00000  Uiso   1.00
H416   H     0.96917   0.71781   0.16717   0.00000  Uiso   1.00
C417   C     0.67391   0.79632   0.30159   0.00000  Uiso   1.00
H418   H     0.97502   0.81530   0.31487   0.00000  Uiso   1.00
H419   H     0.69797   0.78120   0.33305   0.00000  Uiso   1.00
H420   H     0.69716   0.82144   0.28430   0.00000  Uiso   1.00
N421   N     0.91930   0.53247   0.18748   0.00000  Uiso   1.00
O422   O     0.94942   0.99791   0.19920   0.00000  Uiso   1.00
O423   O     0.92220   0.55255   0.14706   0.00000  Uiso   1.00
N424   N     0.91855   0.96754   0.33440   0.00000  Uiso   1.00
O425   O     0.94870   0.50214   0.33041   0.00000  Uiso   1.00
O426   O     0.92098   0.94745   0.37550   0.00000  Uiso   1.00
N427   N     0.92758   0.77751   0.04225   0.00000  Uiso   1.00
O428   O     0.94432   0.75612   0.00712   0.00000  Uiso   1.00
O429   O     0.95821   0.80678   0.06625   0.00000  Uiso   1.00
N430   N     0.81771   0.66513   0.46761   0.00000  Uiso   1.00
O431   O     0.84507   0.65425   0.00796   0.00000  Uiso   1.00
O432   O     0.78872   0.63440   0.44420   0.00000  Uiso   1.00
O433   O     0.16667   0.18453   0.78974   0.00000  Uiso   1.00
O434   O     0.16666   0.31547   0.71026   0.00000  Uiso   1.00
O435   O     0.16667   0.18453   0.71026   0.00000  Uiso   1.00
O436   O     0.16666   0.31547   0.78974   0.00000  Uiso   1.00
C437   C     0.16805   0.16357   0.75013   0.00000  Uiso   1.00
C438   C     0.16808   0.33644   0.75022   0.00000  Uiso   1.00
O439   O     0.09058   0.25000   0.78044   0.00000  Uiso   1.00
O440   O     0.24275   0.25000   0.71955   0.00000  Uiso   1.00
O441   O     0.09058   0.25000   0.70096   0.00000  Uiso   1.00
O442   O     0.24275   0.25000   0.79903   0.00000  Uiso   1.00
C443   C     0.06730   0.24899   0.73809   0.00000  Uiso   1.00
C444   C     0.26603   0.25096   0.76193   0.00000  Uiso   1.00
Zn445  Zn    0.16667   0.25001   0.80307   0.00000  Uiso   1.00
Zn446  Zn    0.16667   0.25000   0.69693   0.00000  Uiso   1.00
C447   C     0.01354   0.24028   0.73381   0.00000  Uiso   1.00
C448   C     0.31981   0.25954   0.76630   0.00000  Uiso   1.00
C449   C     0.17356   0.04387   0.78956   0.00000  Uiso   1.00
C450   C     0.17394   0.45617   0.71231   0.00000  Uiso   1.00
H451   H     0.15830   0.02325   0.81611   0.00000  Uiso   1.00
H452   H     0.15892   0.47680   0.68192   0.00000  Uiso   1.00
C453   C     0.16215   0.08943   0.78760   0.00000  Uiso   1.00
C454   C     0.16255   0.41060   0.71134   0.00000  Uiso   1.00
H455   H     0.13981   0.10395   0.81358   0.00000  Uiso   1.00
H456   H     0.14046   0.39611   0.67971   0.00000  Uiso   1.00
C457   C     0.17807   0.11565   0.75132   0.00000  Uiso   1.00
C458   C     0.17816   0.38435   0.75158   0.00000  Uiso   1.00
C459   C     0.20767   0.09681   0.71832   0.00000  Uiso   1.00
C460   C     0.20744   0.40318   0.79206   0.00000  Uiso   1.00
H461   H     0.22177   0.11798   0.69159   0.00000  Uiso   1.00
H462   H     0.22135   0.38200   0.82231   0.00000  Uiso   1.00
C463   C     0.22078   0.05115   0.72070   0.00000  Uiso   1.00
C464   C     0.22047   0.44886   0.79308   0.00000  Uiso   1.00
C465   C     0.20197   0.02446   0.75595   0.00000  Uiso   1.00
C466   C     0.20199   0.47556   0.75310   0.00000  Uiso   1.00
C467   C     0.12522   0.23393   0.54674   0.00000  Uiso   1.00
C468   C     0.17800   0.28816   0.94960   0.00000  Uiso   1.00
H469   H     0.09106   0.22198   0.52378   0.00000  Uiso   1.00
H470   H     0.18586   0.31934   0.96931   0.00000  Uiso   1.00
C471   C     0.12478   0.23446   0.59630   0.00000  Uiso   1.00
C472   C     0.17716   0.28842   0.89987   0.00000  Uiso   1.00
H473   H     0.09073   0.22242   0.61081   0.00000  Uiso   1.00
H474   H     0.18499   0.31956   0.88223   0.00000  Uiso   1.00
N475   N     0.16667   0.24999   0.62623   0.00000  Uiso   1.00
N476   N     0.16667   0.25001   0.87376   0.00000  Uiso   1.00
C477   C     0.20969   0.26541   0.60829   0.00000  Uiso   1.00
C478   C     0.15671   0.21066   0.89588   0.00000  Uiso   1.00
H479   H     0.24238   0.27771   0.63271   0.00000  Uiso   1.00
H480   H     0.14872   0.18047   0.87468   0.00000  Uiso   1.00
C481   C     0.21295   0.26428   0.55885   0.00000  Uiso   1.00
C482   C     0.15833   0.20820   0.94593   0.00000  Uiso   1.00
C483   C     0.16952   0.24849   0.52704   0.00000  Uiso   1.00
C484   C     0.16898   0.24793   0.97367   0.00000  Uiso   1.00
C485   C     0.32626   0.20310   0.69896   0.00000  Uiso   1.00
H486   H     0.02526   0.18388   0.68617   0.00000  Uiso   1.00
H487   H     0.30280   0.17828   0.71642   0.00000  Uiso   1.00
H488   H     0.30250   0.21781   0.66717   0.00000  Uiso   1.00
C489   C     0.00725   0.29632   0.80159   0.00000  Uiso   1.00
H490   H     0.30835   0.31530   0.81487   0.00000  Uiso   1.00
H491   H     0.03130   0.28120   0.83305   0.00000  Uiso   1.00
H492   H     0.03050   0.32144   0.78430   0.00000  Uiso   1.00
N493   N     0.25264   0.03247   0.68748   0.00000  Uiso   1.00
O494   O     0.28275   0.49791   0.69920   0.00000  Uiso   1.00
O495   O     0.25553   0.05255   0.64706   0.00000  Uiso   1.00
N496   N     0.25188   0.46754   0.83440   0.00000  Uiso   1.00
O497   O     0.28203   0.00214   0.83041   0.00000  Uiso   1.00
O498   O     0.25432   0.44745   0.87550   0.00000  Uiso   1.00
N499   N     0.26092   0.27751   0.54225   0.00000  Uiso   1.00
O500   O     0.27765   0.25612   0.50712   0.00000  Uiso   1.00
O501   O     0.29154   0.30678   0.56625   0.00000  Uiso   1.00
N502   N     0.15104   0.16513   0.96761   0.00000  Uiso   1.00
O503   O     0.17841   0.15425   0.50796   0.00000  Uiso   1.00
O504   O     0.12205   0.13440   0.94420   0.00000  Uiso   1.00
O505   O     0.50000   0.18453   0.78974   0.00000  Uiso   1.00
O506   O     0.50000   0.31547   0.71026   0.00000  Uiso   1.00
O507   O     0.50000   0.18453   0.71026   0.00000  Uiso   1.00
O508   O     0.50000   0.31547   0.78974   0.00000  Uiso   1.00
C509   C     0.50138   0.16357   0.75013   0.00000  Uiso   1.00
C510   C     0.50142   0.33644   0.75022   0.00000  Uiso   1.00
O511   O     0.42392   0.25000   0.78044   0.00000  Uiso   1.00
O512   O     0.57608   0.25000   0.71955   0.00000  Uiso   1.00
O513   O     0.42392   0.25000   0.70096   0.00000  Uiso   1.00
O514   O     0.57608   0.25000   0.79903   0.00000  Uiso   1.00
C515   C     0.40064   0.24899   0.73809   0.00000  Uiso   1.00
C516   C     0.59936   0.25096   0.76193   0.00000  Uiso   1.00
Zn517  Zn    0.50000   0.25001   0.80307   0.00000  Uiso   1.00
Zn518  Zn    0.50000   0.25000   0.69693   0.00000  Uiso   1.00
C519   C     0.34687   0.24028   0.73381   0.00000  Uiso   1.00
C520   C     0.65314   0.25954   0.76630   0.00000  Uiso   1.00
C521   C     0.50689   0.04387   0.78956   0.00000  Uiso   1.00
C522   C     0.50727   0.45617   0.71231   0.00000  Uiso   1.00
H523   H     0.49163   0.02325   0.81611   0.00000  Uiso   1.00
H524   H     0.49226   0.47680   0.68192   0.00000  Uiso   1.00
C525   C     0.49548   0.08943   0.78760   0.00000  Uiso   1.00
C526   C     0.49589   0.41060   0.71134   0.00000  Uiso   1.00
H527   H     0.47314   0.10395   0.81358   0.00000  Uiso   1.00
H528   H     0.47379   0.39611   0.67971   0.00000  Uiso   1.00
C529   C     0.51140   0.11565   0.75132   0.00000  Uiso   1.00
C530   C     0.51150   0.38435   0.75158   0.00000  Uiso   1.00
C531   C     0.54100   0.09681   0.71832   0.00000  Uiso   1.00
C532   C     0.54078   0.40318   0.79206   0.00000  Uiso   1.00
H533   H     0.55510   0.11798   0.69159   0.00000  Uiso   1.00
H534   H     0.55468   0.38200   0.82231   0.00000  Uiso   1.00
C535   C     0.55412   0.05115   0.72070   0.00000  Uiso   1.00
C536   C     0.55380   0.44886   0.79308   0.00000  Uiso   1.00
C537   C     0.53531   0.02446   0.75595   0.00000  Uiso   1.00
C538   C     0.53532   0.47556   0.75310   0.00000  Uiso   1.00
C539   C     0.45855   0.23393   0.54674   0.00000  Uiso   1.00
C540   C     0.51134   0.28816   0.94960   0.00000  Uiso   1.00
H541   H     0.42439   0.22198   0.52378   0.00000  Uiso   1.00
H542   H     0.51919   0.31934   0.96931   0.00000  Uiso   1.00
C543   C     0.45811   0.23446   0.59630   0.00000  Uiso   1.00
C544   C     0.51049   0.28842   0.89987   0.00000  Uiso   1.00
H545   H     0.42406   0.22242   0.61081   0.00000  Uiso   1.00
H546   H     0.51832   0.31956   0.88223   0.00000  Uiso   1.00
N547   N     0.50000   0.24999   0.62623   0.00000  Uiso   1.00
N548   N     0.50000   0.25001   0.87376   0.00000  Uiso   1.00
C549   C     0.54302   0.26541   0.60829   0.00000  Uiso   1.00
C550   C     0.49005   0.21066   0.89588   0.00000  Uiso   1.00
H551   H     0.57571   0.27771   0.63271   0.00000  Uiso   1.00
H552   H     0.48206   0.18047   0.87468   0.00000  Uiso   1.00
C553   C     0.54628   0.26428   0.55885   0.00000  Uiso   1.00
C554   C     0.49167   0.20820   0.94593   0.00000  Uiso   1.00
C555   C     0.50285   0.24849   0.52704   0.00000  Uiso   1.00
C556   C     0.50231   0.24793   0.97367   0.00000  Uiso   1.00
C557   C     0.65959   0.20310   0.69896   0.00000  Uiso   1.00
H558   H     0.35860   0.18388   0.68617   0.00000  Uiso   1.00
H559   H     0.63613   0.17828   0.71642   0.00000  Uiso   1.00
H560   H     0.63583   0.21781   0.66717   0.00000  Uiso   1.00
C561   C     0.34058   0.29632   0.80159   0.00000  Uiso   1.00
H562   H     0.64168   0.31530   0.81487   0.00000  Uiso   1.00
H563   H     0.36464   0.28120   0.83305   0.00000  Uiso   1.00
H564   H     0.36383   0.32144   0.78430   0.00000  Uiso   1.00
N565   N     0.58597   0.03247   0.68748   0.00000  Uiso   1.00
O566   O     0.61609   0.49791   0.69920   0.00000  Uiso   1.00
O567   O     0.58887   0.05255   0.64706   0.00000  Uiso   1.00
N568   N     0.58521   0.46754   0.83440   0.00000  Uiso   1.00
O569   O     0.61536   0.00214   0.83041   0.00000  Uiso   1.00
O570   O     0.58765   0.44745   0.87550   0.00000  Uiso   1.00
N571   N     0.59425   0.27751   0.54225   0.00000  Uiso   1.00
O572   O     0.61098   0.25612   0.50712   0.00000  Uiso   1.00
O573   O     0.62488   0.30678   0.56625   0.00000  Uiso   1.00
N574   N     0.48438   0.16513   0.96761   0.00000  Uiso   1.00
O575   O     0.51174   0.15425   0.50796   0.00000  Uiso   1.00
O576   O     0.45538   0.13440   0.94420   0.00000  Uiso   1.00
O577   O     0.83334   0.18453   0.78974   0.00000  Uiso   1.00
O578   O     0.83333   0.31547   0.71026   0.00000  Uiso   1.00
O579   O     0.83334   0.18453   0.71026   0.00000  Uiso   1.00
O580   O     0.83333   0.31547   0.78974   0.00000  Uiso   1.00
C581   C     0.83472   0.16357   0.75013   0.00000  Uiso   1.00
C582   C     0.83475   0.33644   0.75022   0.00000  Uiso   1.00
O583   O     0.75725   0.25000   0.78044   0.00000  Uiso   1.00
O584   O     0.90942   0.25000   0.71955   0.00000  Uiso   1.00
O585   O     0.75725   0.25000   0.70096   0.00000  Uiso   1.00
O586   O     0.90942   0.25000   0.79903   0.00000  Uiso   1.00
C587   C     0.73397   0.24899   0.73809   0.00000  Uiso   1.00
C588   C     0.93269   0.25096   0.76193   0.00000  Uiso   1.00
Zn589  Zn    0.83333   0.25001   0.80307   0.00000  Uiso   1.00
Zn590  Zn    0.83333   0.25000   0.69693   0.00000  Uiso   1.00
C591   C     0.68021   0.24028   0.73381   0.00000  Uiso   1.00
C592   C     0.98648   0.25954   0.76630   0.00000  Uiso   1.00
C593   C     0.84023   0.04387   0.78956   0.00000  Uiso   1.00
C594   C     0.84061   0.45617   0.71231   0.00000  Uiso   1.00
H595   H     0.82496   0.02325   0.81611   0.00000  Uiso   1.00
H596   H     0.82559   0.47680   0.68192   0.00000  Uiso   1.00
C597   C     0.82882   0.08943   0.78760   0.00000  Uiso   1.00
C598   C     0.82922   0.41060   0.71134   0.00000  Uiso   1.00
H599   H     0.80647   0.10395   0.81358   0.00000  Uiso   1.00
H600   H     0.80712   0.39611   0.67971   0.00000  Uiso   1.00
C601   C     0.84473   0.11565   0.75132   0.00000  Uiso   1.00
C602   C     0.84483   0.38435   0.75158   0.00000  Uiso   1.00
C603   C     0.87434   0.09681   0.71832   0.00000  Uiso   1.00
C604   C     0.87411   0.40318   0.79206   0.00000  Uiso   1.00
H605   H     0.88844   0.11798   0.69159   0.00000  Uiso   1.00
H606   H     0.88802   0.38200   0.82231   0.00000  Uiso   1.00
C607   C     0.88745   0.05115   0.72070   0.00000  Uiso   1.00
C608   C     0.88713   0.44886   0.79308   0.00000  Uiso   1.00
C609   C     0.86864   0.02446   0.75595   0.00000  Uiso   1.00
C610   C     0.86865   0.47556   0.75310   0.00000  Uiso   1.00
C611   C     0.79188   0.23393   0.54674   0.00000  Uiso   1.00
C612   C     0.84467   0.28816   0.94960   0.00000  Uiso   1.00
H613   H     0.75772   0.22198   0.52378   0.00000  Uiso   1.00
H614   H     0.85253   0.31934   0.96931   0.00000  Uiso   1.00
C615   C     0.79145   0.23446   0.59630   0.00000  Uiso   1.00
C616   C     0.84382   0.28842   0.89987   0.00000  Uiso   1.00
H617   H     0.75739   0.22242   0.61081   0.00000  Uiso   1.00
H618   H     0.85166   0.31956   0.88223   0.00000  Uiso   1.00
N619   N     0.83333   0.24999   0.62623   0.00000  Uiso   1.00
N620   N     0.83333   0.25001   0.87376   0.00000  Uiso   1.00
C621   C     0.87636   0.26541   0.60829   0.00000  Uiso   1.00
C622   C     0.82338   0.21066   0.89588   0.00000  Uiso   1.00
H623   H     0.90905   0.27771   0.63271   0.00000  Uiso   1.00
H624   H     0.81539   0.18047   0.87468   0.00000  Uiso   1.00
C625   C     0.87962   0.26428   0.55885   0.00000  Uiso   1.00
C626   C     0.82500   0.20820   0.94593   0.00000  Uiso   1.00
C627   C     0.83619   0.24849   0.52704   0.00000  Uiso   1.00
C628   C     0.83564   0.24793   0.97367   0.00000  Uiso   1.00
C629   C     0.99292   0.20310   0.69896   0.00000  Uiso   1.00
H630   H     0.69193   0.18388   0.68617   0.00000  Uiso   1.00
H631   H     0.96947   0.17828   0.71642   0.00000  Uiso   1.00
H632   H     0.96917   0.21781   0.66717   0.00000  Uiso   1.00
C633   C     0.67391   0.29632   0.80159   0.00000  Uiso   1.00
H634   H     0.97502   0.31530   0.81487   0.00000  Uiso   1.00
H635   H     0.69797   0.28120   0.83305   0.00000  Uiso   1.00
H636   H     0.69716   0.32144   0.78430   0.00000  Uiso   1.00
N637   N     0.91930   0.03247   0.68748   0.00000  Uiso   1.00
O638   O     0.94942   0.49791   0.69920   0.00000  Uiso   1.00
O639   O     0.92220   0.05255   0.64706   0.00000  Uiso   1.00
N640   N     0.91855   0.46754   0.83440   0.00000  Uiso   1.00
O641   O     0.94870   0.00214   0.83041   0.00000  Uiso   1.00
O642   O     0.92098   0.44745   0.87550   0.00000  Uiso   1.00
N643   N     0.92758   0.27751   0.54225   0.00000  Uiso   1.00
O644   O     0.94432   0.25612   0.50712   0.00000  Uiso   1.00
O645   O     0.95821   0.30678   0.56625   0.00000  Uiso   1.00
N646   N     0.81771   0.16513   0.96761   0.00000  Uiso   1.00
O647   O     0.84507   0.15425   0.50796   0.00000  Uiso   1.00
O648   O     0.78872   0.13440   0.94420   0.00000  Uiso   1.00
O649   O     0.16667   0.68453   0.78974   0.00000  Uiso   1.00
O650   O     0.16666   0.81547   0.71026   0.00000  Uiso   1.00
O651   O     0.16667   0.68453   0.71026   0.00000  Uiso   1.00
O652   O     0.16666   0.81547   0.78974   0.00000  Uiso   1.00
C653   C     0.16805   0.66357   0.75013   0.00000  Uiso   1.00
C654   C     0.16808   0.83644   0.75022   0.00000  Uiso   1.00
O655   O     0.09058   0.75000   0.78044   0.00000  Uiso   1.00
O656   O     0.24275   0.75000   0.71955   0.00000  Uiso   1.00
O657   O     0.09058   0.75000   0.70096   0.00000  Uiso   1.00
O658   O     0.24275   0.75000   0.79903   0.00000  Uiso   1.00
C659   C     0.06730   0.74899   0.73809   0.00000  Uiso   1.00
C660   C     0.26603   0.75096   0.76193   0.00000  Uiso   1.00
Zn661  Zn    0.16667   0.75001   0.80307   0.00000  Uiso   1.00
Zn662  Zn    0.16667   0.75000   0.69693   0.00000  Uiso   1.00
C663   C     0.01354   0.74028   0.73381   0.00000  Uiso   1.00
C664   C     0.31981   0.75954   0.76630   0.00000  Uiso   1.00
C665   C     0.17356   0.54387   0.78956   0.00000  Uiso   1.00
C666   C     0.17394   0.95617   0.71231   0.00000  Uiso   1.00
H667   H     0.15830   0.52325   0.81611   0.00000  Uiso   1.00
H668   H     0.15892   0.97680   0.68192   0.00000  Uiso   1.00
C669   C     0.16215   0.58943   0.78760   0.00000  Uiso   1.00
C670   C     0.16255   0.91060   0.71134   0.00000  Uiso   1.00
H671   H     0.13981   0.60395   0.81358   0.00000  Uiso   1.00
H672   H     0.14046   0.89611   0.67971   0.00000  Uiso   1.00
C673   C     0.17807   0.61565   0.75132   0.00000  Uiso   1.00
C674   C     0.17816   0.88435   0.75158   0.00000  Uiso   1.00
C675   C     0.20767   0.59681   0.71832   0.00000  Uiso   1.00
C676   C     0.20744   0.90318   0.79206   0.00000  Uiso   1.00
H677   H     0.22177   0.61798   0.69159   0.00000  Uiso   1.00
H678   H     0.22135   0.88200   0.82231   0.00000  Uiso   1.00
C679   C     0.22078   0.55115   0.72070   0.00000  Uiso   1.00
C680   C     0.22047   0.94886   0.79308   0.00000  Uiso   1.00
C681   C     0.20197   0.52446   0.75595   0.00000  Uiso   1.00
C682   C     0.20199   0.97556   0.75310   0.00000  Uiso   1.00
C683   C     0.12522   0.73393   0.54674   0.00000  Uiso   1.00
C684   C     0.17800   0.78816   0.94960   0.00000  Uiso   1.00
H685   H     0.09106   0.72198   0.52378   0.00000  Uiso   1.00
H686   H     0.18586   0.81934   0.96931   0.00000  Uiso   1.00
C687   C     0.12478   0.73446   0.59630   0.00000  Uiso   1.00
C688   C     0.17716   0.78842   0.89987   0.00000  Uiso   1.00
H689   H     0.09073   0.72242   0.61081   0.00000  Uiso   1.00
H690   H     0.18499   0.81956   0.88223   0.00000  Uiso   1.00
N691   N     0.16667   0.74999   0.62623   0.00000  Uiso   1.00
N692   N     0.16667   0.75001   0.87376   0.00000  Uiso   1.00
C693   C     0.20969   0.76541   0.60829   0.00000  Uiso   1.00
C694   C     0.15671   0.71066   0.89588   0.00000  Uiso   1.00
H695   H     0.24238   0.77771   0.63271   0.00000  Uiso   1.00
H696   H     0.14872   0.68047   0.87468   0.00000  Uiso   1.00
C697   C     0.21295   0.76428   0.55885   0.00000  Uiso   1.00
C698   C     0.15833   0.70820   0.94593   0.00000  Uiso   1.00
C699   C     0.16952   0.74849   0.52704   0.00000  Uiso   1.00
C700   C     0.16898   0.74793   0.97367   0.00000  Uiso   1.00
C701   C     0.32626   0.70310   0.69896   0.00000  Uiso   1.00
H702   H     0.02526   0.68388   0.68617   0.00000  Uiso   1.00
H703   H     0.30280   0.67828   0.71642   0.00000  Uiso   1.00
H704   H     0.30250   0.71781   0.66717   0.00000  Uiso   1.00
C705   C     0.00725   0.79632   0.80159   0.00000  Uiso   1.00
H706   H     0.30835   0.81530   0.81487   0.00000  Uiso   1.00
H707   H     0.03130   0.78120   0.83305   0.00000  Uiso   1.00
H708   H     0.03050   0.82144   0.78430   0.00000  Uiso   1.00
N709   N     0.25264   0.53247   0.68748   0.00000  Uiso   1.00
O710   O     0.28275   0.99791   0.69920   0.00000  Uiso   1.00
O711   O     0.25553   0.55255   0.64706   0.00000  Uiso   1.00
N712   N     0.25188   0.96754   0.83440   0.00000  Uiso   1.00
O713   O     0.28203   0.50214   0.83041   0.00000  Uiso   1.00
O714   O     0.25432   0.94745   0.87550   0.00000  Uiso   1.00
N715   N     0.26092   0.77751   0.54225   0.00000  Uiso   1.00
O716   O     0.27765   0.75612   0.50712   0.00000  Uiso   1.00
O717   O     0.29154   0.80678   0.56625   0.00000  Uiso   1.00
N718   N     0.15104   0.66513   0.96761   0.00000  Uiso   1.00
O719   O     0.17841   0.65425   0.50796   0.00000  Uiso   1.00
O720   O     0.12205   0.63440   0.94420   0.00000  Uiso   1.00
O721   O     0.50000   0.68453   0.78974   0.00000  Uiso   1.00
O722   O     0.50000   0.81547   0.71026   0.00000  Uiso   1.00
O723   O     0.50000   0.68453   0.71026   0.00000  Uiso   1.00
O724   O     0.50000   0.81547   0.78974   0.00000  Uiso   1.00
C725   C     0.50138   0.66357   0.75013   0.00000  Uiso   1.00
C726   C     0.50142   0.83644   0.75022   0.00000  Uiso   1.00
O727   O     0.42392   0.75000   0.78044   0.00000  Uiso   1.00
O728   O     0.57608   0.75000   0.71955   0.00000  Uiso   1.00
O729   O     0.42392   0.75000   0.70096   0.00000  Uiso   1.00
O730   O     0.57608   0.75000   0.79903   0.00000  Uiso   1.00
C731   C     0.40064   0.74899   0.73809   0.00000  Uiso   1.00
C732   C     0.59936   0.75096   0.76193   0.00000  Uiso   1.00
Zn733  Zn    0.50000   0.75001   0.80307   0.00000  Uiso   1.00
Zn734  Zn    0.50000   0.75000   0.69693   0.00000  Uiso   1.00
C735   C     0.34687   0.74028   0.73381   0.00000  Uiso   1.00
C736   C     0.65314   0.75954   0.76630   0.00000  Uiso   1.00
C737   C     0.50689   0.54387   0.78956   0.00000  Uiso   1.00
C738   C     0.50727   0.95617   0.71231   0.00000  Uiso   1.00
H739   H     0.49163   0.52325   0.81611   0.00000  Uiso   1.00
H740   H     0.49226   0.97680   0.68192   0.00000  Uiso   1.00
C741   C     0.49548   0.58943   0.78760   0.00000  Uiso   1.00
C742   C     0.49589   0.91060   0.71134   0.00000  Uiso   1.00
H743   H     0.47314   0.60395   0.81358   0.00000  Uiso   1.00
H744   H     0.47379   0.89611   0.67971   0.00000  Uiso   1.00
C745   C     0.51140   0.61565   0.75132   0.00000  Uiso   1.00
C746   C     0.51150   0.88435   0.75158   0.00000  Uiso   1.00
C747   C     0.54100   0.59681   0.71832   0.00000  Uiso   1.00
C748   C     0.54078   0.90318   0.79206   0.00000  Uiso   1.00
H749   H     0.55510   0.61798   0.69159   0.00000  Uiso   1.00
H750   H     0.55468   0.88200   0.82231   0.00000  Uiso   1.00
C751   C     0.55412   0.55115   0.72070   0.00000  Uiso   1.00
C752   C     0.55380   0.94886   0.79308   0.00000  Uiso   1.00
C753   C     0.53531   0.52446   0.75595   0.00000  Uiso   1.00
C754   C     0.53532   0.97556   0.75310   0.00000  Uiso   1.00
C755   C     0.45855   0.73393   0.54674   0.00000  Uiso   1.00
C756   C     0.51134   0.78816   0.94960   0.00000  Uiso   1.00
H757   H     0.42439   0.72198   0.52378   0.00000  Uiso   1.00
H758   H     0.51919   0.81934   0.96931   0.00000  Uiso   1.00
C759   C     0.45811   0.73446   0.59630   0.00000  Uiso   1.00
C760   C     0.51049   0.78842   0.89987   0.00000  Uiso   1.00
H761   H     0.42406   0.72242   0.61081   0.00000  Uiso   1.00
H762   H     0.51832   0.81956   0.88223   0.00000  Uiso   1.00
N763   N     0.50000   0.74999   0.62623   0.00000  Uiso   1.00
N764   N     0.50000   0.75001   0.87376   0.00000  Uiso   1.00
C765   C     0.54302   0.76541   0.60829   0.00000  Uiso   1.00
C766   C     0.49005   0.71066   0.89588   0.00000  Uiso   1.00
H767   H     0.57571   0.77771   0.63271   0.00000  Uiso   1.00
H768   H     0.48206   0.68047   0.87468   0.00000  Uiso   1.00
C769   C     0.54628   0.76428   0.55885   0.00000  Uiso   1.00
C770   C     0.49167   0.70820   0.94593   0.00000  Uiso   1.00
C771   C     0.50285   0.74849   0.52704   0.00000  Uiso   1.00
C772   C     0.50231   0.74793   0.97367   0.00000  Uiso   1.00
C773   C     0.65959   0.70310   0.69896   0.00000  Uiso   1.00
H774   H     0.35860   0.68388   0.68617   0.00000  Uiso   1.00
H775   H     0.63613   0.67828   0.71642   0.00000  Uiso   1.00
H776   H     0.63583   0.71781   0.66717   0.00000  Uiso   1.00
C777   C     0.34058   0.79632   0.80159   0.00000  Uiso   1.00
H778   H     0.64168   0.81530   0.81487   0.00000  Uiso   1.00
H779   H     0.36464   0.78120   0.83305   0.00000  Uiso   1.00
H780   H     0.36383   0.82144   0.78430   0.00000  Uiso   1.00
N781   N     0.58597   0.53247   0.68748   0.00000  Uiso   1.00
O782   O     0.61609   0.99791   0.69920   0.00000  Uiso   1.00
O783   O     0.58887   0.55255   0.64706   0.00000  Uiso   1.00
N784   N     0.58521   0.96754   0.83440   0.00000  Uiso   1.00
O785   O     0.61536   0.50214   0.83041   0.00000  Uiso   1.00
O786   O     0.58765   0.94745   0.87550   0.00000  Uiso   1.00
N787   N     0.59425   0.77751   0.54225   0.00000  Uiso   1.00
O788   O     0.61098   0.75612   0.50712   0.00000  Uiso   1.00
O789   O     0.62488   0.80678   0.56625   0.00000  Uiso   1.00
N790   N     0.48438   0.66513   0.96761   0.00000  Uiso   1.00
O791   O     0.51174   0.65425   0.50796   0.00000  Uiso   1.00
O792   O     0.45538   0.63440   0.94420   0.00000  Uiso   1.00
O793   O     0.83334   0.68453   0.78974   0.00000  Uiso   1.00
O794   O     0.83333   0.81547   0.71026   0.00000  Uiso   1.00
O795   O     0.83334   0.68453   0.71026   0.00000  Uiso   1.00
O796   O     0.83333   0.81547   0.78974   0.00000  Uiso   1.00
C797   C     0.83472   0.66357   0.75013   0.00000  Uiso   1.00
C798   C     0.83475   0.83644   0.75022   0.00000  Uiso   1.00
O799   O     0.75725   0.75000   0.78044   0.00000  Uiso   1.00
O800   O     0.90942   0.75000   0.71955   0.00000  Uiso   1.00
O801   O     0.75725   0.75000   0.70096   0.00000  Uiso   1.00
O802   O     0.90942   0.75000   0.79903   0.00000  Uiso   1.00
C803   C     0.73397   0.74899   0.73809   0.00000  Uiso   1.00
C804   C     0.93269   0.75096   0.76193   0.00000  Uiso   1.00
Zn805  Zn    0.83333   0.75001   0.80307   0.00000  Uiso   1.00
Zn806  Zn    0.83333   0.75000   0.69693   0.00000  Uiso   1.00
C807   C     0.68021   0.74028   0.73381   0.00000  Uiso   1.00
C808   C     0.98648   0.75954   0.76630   0.00000  Uiso   1.00
C809   C     0.84023   0.54387   0.78956   0.00000  Uiso   1.00
C810   C     0.84061   0.95617   0.71231   0.00000  Uiso   1.00
H811   H     0.82496   0.52325   0.81611   0.00000  Uiso   1.00
H812   H     0.82559   0.97680   0.68192   0.00000  Uiso   1.00
C813   C     0.82882   0.58943   0.78760   0.00000  Uiso   1.00
C814   C     0.82922   0.91060   0.71134   0.00000  Uiso   1.00
H815   H     0.80647   0.60395   0.81358   0.00000  Uiso   1.00
H816   H     0.80712   0.89611   0.67971   0.00000  Uiso   1.00
C817   C     0.84473   0.61565   0.75132   0.00000  Uiso   1.00
C818   C     0.84483   0.88435   0.75158   0.00000  Uiso   1.00
C819   C     0.87434   0.59681   0.71832   0.00000  Uiso   1.00
C820   C     0.87411   0.90318   0.79206   0.00000  Uiso   1.00
H821   H     0.88844   0.61798   0.69159   0.00000  Uiso   1.00
H822   H     0.88802   0.88200   0.82231   0.00000  Uiso   1.00
C823   C     0.88745   0.55115   0.72070   0.00000  Uiso   1.00
C824   C     0.88713   0.94886   0.79308   0.00000  Uiso   1.00
C825   C     0.86864   0.52446   0.75595   0.00000  Uiso   1.00
C826   C     0.86865   0.97556   0.75310   0.00000  Uiso   1.00
C827   C     0.79188   0.73393   0.54674   0.00000  Uiso   1.00
C828   C     0.84467   0.78816   0.94960   0.00000  Uiso   1.00
H829   H     0.75772   0.72198   0.52378   0.00000  Uiso   1.00
H830   H     0.85253   0.81934   0.96931   0.00000  Uiso   1.00
C831   C     0.79145   0.73446   0.59630   0.00000  Uiso   1.00
C832   C     0.84382   0.78842   0.89987   0.00000  Uiso   1.00
H833   H     0.75739   0.72242   0.61081   0.00000  Uiso   1.00
H834   H     0.85166   0.81956   0.88223   0.00000  Uiso   1.00
N835   N     0.83333   0.74999   0.62623   0.00000  Uiso   1.00
N836   N     0.83333   0.75001   0.87376   0.00000  Uiso   1.00
C837   C     0.87636   0.76541   0.60829   0.00000  Uiso   1.00
C838   C     0.82338   0.71066   0.89588   0.00000  Uiso   1.00
H839   H     0.90905   0.77771   0.63271   0.00000  Uiso   1.00
H840   H     0.81539   0.68047   0.87468   0.00000  Uiso   1.00
C841   C     0.87962   0.76428   0.55885   0.00000  Uiso   1.00
C842   C     0.82500   0.70820   0.94593   0.00000  Uiso   1.00
C843   C     0.83619   0.74849   0.52704   0.00000  Uiso   1.00
C844   C     0.83564   0.74793   0.97367   0.00000  Uiso   1.00
C845   C     0.99292   0.70310   0.69896   0.00000  Uiso   1.00
H846   H     0.69193   0.68388   0.68617   0.00000  Uiso   1.00
H847   H     0.96947   0.67828   0.71642   0.00000  Uiso   1.00
H848   H     0.96917   0.71781   0.66717   0.00000  Uiso   1.00
C849   C     0.67391   0.79632   0.80159   0.00000  Uiso   1.00
H850   H     0.97502   0.81530   0.81487   0.00000  Uiso   1.00
H851   H     0.69797   0.78120   0.83305   0.00000  Uiso   1.00
H852   H     0.69716   0.82144   0.78430   0.00000  Uiso   1.00
N853   N     0.91930   0.53247   0.68748   0.00000  Uiso   1.00
O854   O     0.94942   0.99791   0.69920   0.00000  Uiso   1.00
O855   O     0.92220   0.55255   0.64706   0.00000  Uiso   1.00
N856   N     0.91855   0.96754   0.83440   0.00000  Uiso   1.00
O857   O     0.94870   0.50214   0.83041   0.00000  Uiso   1.00
O858   O     0.92098   0.94745   0.87550   0.00000  Uiso   1.00
N859   N     0.92758   0.77751   0.54225   0.00000  Uiso   1.00
O860   O     0.94432   0.75612   0.50712   0.00000  Uiso   1.00
O861   O     0.95821   0.80678   0.56625   0.00000  Uiso   1.00
N862   N     0.81771   0.66513   0.96761   0.00000  Uiso   1.00
O863   O     0.84507   0.65425   0.50796   0.00000  Uiso   1.00
O864   O     0.78872   0.63440   0.94420   0.00000  Uiso   1.00
loop_
_geom_bond_atom_site_label_1
_geom_bond_atom_site_label_2
_geom_bond_distance
_geom_bond_site_symmetry_2
_ccdc_geom_bond_type
O1     C5      1.286   .     A
O1     Zn13    1.974   .     S
O2     C6      1.286   .     A
O2     Zn14    1.974   .     S
O3     Zn14    1.975   .     S
O3     C5      1.285   .     A
O4     C6      1.285   .     A
O4     Zn13    1.975   .     S
C5     C25     1.441   .     S
C6     C26     1.442   .     S
O7     Zn13    1.986   .     S
O7     C11     1.268   .     A
O8     Zn14    1.986   .     S
O8     C12     1.268   .     A
O9     Zn14    1.987   .     S
O9     C11     1.281   .     A
O10    C12     1.280   .     A
O10    Zn13    1.987   .     S
C11    C15     1.404   .     S
C12    C16     1.403   .     S
Zn13   N44     2.002   .     S
Zn14   N43     2.002   .     S
C15    C160    1.355   1_455 S
C15    C197    1.525   1_455 S
C16    C87     1.355   .     S
C16    C129    1.525   .     S
C17    H19     1.084   .     S
C17    C33     1.401   .     A
C17    C21     1.380   .     A
C18    C34     1.401   .     A
C18    H20     1.084   .     S
C18    C22     1.380   .     A
C21    H23     1.084   .     S
C21    C25     1.394   .     A
C22    H24     1.084   .     S
C22    C26     1.394   .     A
C25    C27     1.401   .     A
C26    C28     1.401   .     A
C27    C31     1.393   .     A
C27    H29     1.084   .     S
C28    H30     1.084   .     S
C28    C32     1.393   .     A
C31    C33     1.411   .     A
C31    N61     1.441   .     S
C32    N64     1.441   .     S
C32    C34     1.411   .     A
C33    C250    1.449   1_545 S
C34    C249    1.449   .     S
C35    C39     1.405   .     A
C35    H37     1.083   .     S
C35    C51     1.408   .     A
C36    C52     1.408   .     A
C36    H38     1.083   .     S
C36    C40     1.406   .     A
C39    H41     1.081   .     S
C39    N43     1.362   .     A
C40    N44     1.363   .     A
C40    H42     1.081   .     S
N43    C45     1.363   .     A
N44    C46     1.364   .     A
C45    C49     1.415   .     A
C45    H47     1.081   .     S
C46    C50     1.415   .     A
C46    H48     1.080   .     S
C49    N67     1.439   .     S
C49    C51     1.421   .     A
C50    N70     1.439   .     S
C50    C52     1.420   .     A
C51    C484    1.510   1_554 S
C52    C483    1.510   .     S
C53    H56     1.109   .     S
C53    H55     1.111   .     S
C53    C87     1.525   .     S
C53    H126    1.112   .     S
H54    C197    1.112   1_455 S
C57    H60     1.111   .     S
C57    H59     1.110   .     S
C57    C160    1.525   1_455 S
C57    H202    1.112   1_455 S
H58    C129    1.112   .     S
N61    O63     1.302   .     A
N61    O278    1.302   1_545 S
O62    N277    1.302   .     S
N64    O66     1.302   .     A
N64    O281    1.302   .     S
O65    N280    1.302   1_545 S
N67    O69     1.301   .     A
N67    O68     1.301   .     A
N70    O72     1.302   .     A
N70    O503    1.301   .     S
O71    N502    1.301   1_554 S
O73    C77     1.286   .     A
O73    Zn85    1.974   .     S
O74    C78     1.286   .     A
O74    Zn86    1.974   .     S
O75    Zn86    1.975   .     S
O75    C77     1.285   .     A
O76    C78     1.285   .     A
O76    Zn85    1.975   .     S
C77    C97     1.441   .     S
C78    C98     1.442   .     S
O79    Zn85    1.986   .     S
O79    C83     1.268   .     A
O80    Zn86    1.986   .     S
O80    C84     1.268   .     A
O81    Zn86    1.987   .     S
O81    C83     1.281   .     A
O82    C84     1.280   .     A
O82    Zn85    1.987   .     S
C83    C87     1.404   .     S
C84    C88     1.403   .     S
Zn85   N116    2.002   .     S
Zn86   N115    2.002   .     S
C88    C159    1.355   .     S
C88    C201    1.525   .     S
C89    H91     1.084   .     S
C89    C105    1.401   .     A
C89    C93     1.380   .     A
C90    C106    1.401   .     A
C90    H92     1.084   .     S
C90    C94     1.380   .     A
C93    H95     1.084   .     S
C93    C97     1.394   .     A
C94    H96     1.084   .     S
C94    C98     1.394   .     A
C97    C99     1.401   .     A
C98    C100    1.401   .     A
C99    C103    1.393   .     A
C99    H101    1.084   .     S
C100   H102    1.084   .     S
C100   C104    1.393   .     A
C103   C105    1.411   .     A
C103   N133    1.441   .     S
C104   N136    1.441   .     S
C104   C106    1.411   .     A
C105   C322    1.449   1_545 S
C106   C321    1.449   .     S
C107   C111    1.405   .     A
C107   H109    1.083   .     S
C107   C123    1.408   .     A
C108   C124    1.408   .     A
C108   H110    1.083   .     S
C108   C112    1.406   .     A
C111   H113    1.081   .     S
C111   N115    1.362   .     A
C112   N116    1.363   .     A
C112   H114    1.081   .     S
N115   C117    1.363   .     A
N116   C118    1.364   .     A
C117   C121    1.415   .     A
C117   H119    1.081   .     S
C118   C122    1.415   .     A
C118   H120    1.080   .     S
C121   N139    1.439   .     S
C121   C123    1.421   .     A
C122   N142    1.439   .     S
C122   C124    1.420   .     A
C123   C556    1.510   1_554 S
C124   C555    1.510   .     S
C125   H128    1.109   .     S
C125   H127    1.111   .     S
C125   C159    1.525   .     S
C125   H198    1.112   .     S
C129   H132    1.111   .     S
C129   H131    1.110   .     S
H130   C201    1.112   .     S
N133   O135    1.302   .     A
N133   O350    1.302   1_545 S
O134   N349    1.302   .     S
N136   O138    1.302   .     A
N136   O353    1.302   .     S
O137   N352    1.302   1_545 S
N139   O141    1.301   .     A
N139   O140    1.301   .     A
N142   O144    1.302   .     A
N142   O575    1.301   .     S
O143   N574    1.301   1_554 S
O145   C149    1.286   .     A
O145   Zn157   1.974   .     S
O146   C150    1.286   .     A
O146   Zn158   1.974   .     S
O147   Zn158   1.975   .     S
O147   C149    1.285   .     A
O148   C150    1.285   .     A
O148   Zn157   1.975   .     S
C149   C169    1.441   .     S
C150   C170    1.442   .     S
O151   Zn157   1.986   .     S
O151   C155    1.268   .     A
O152   Zn158   1.986   .     S
O152   C156    1.268   .     A
O153   Zn158   1.987   .     S
O153   C155    1.281   .     A
O154   C156    1.280   .     A
O154   Zn157   1.987   .     S
C155   C159    1.404   .     S
C156   C160    1.403   .     S
Zn157  N188    2.002   .     S
Zn158  N187    2.002   .     S
C160   C15     1.355   1_655 S
C160   C57     1.525   1_655 S
C161   H163    1.084   .     S
C161   C177    1.401   .     A
C161   C165    1.380   .     A
C162   C178    1.401   .     A
C162   H164    1.084   .     S
C162   C166    1.380   .     A
C165   H167    1.084   .     S
C165   C169    1.394   .     A
C166   H168    1.084   .     S
C166   C170    1.394   .     A
C169   C171    1.401   .     A
C170   C172    1.401   .     A
C171   C175    1.393   .     A
C171   H173    1.084   .     S
C172   H174    1.084   .     S
C172   C176    1.393   .     A
C175   C177    1.411   .     A
C175   N205    1.441   .     S
C176   N208    1.441   .     S
C176   C178    1.411   .     A
C177   C394    1.449   1_545 S
C178   C393    1.449   .     S
C179   C183    1.405   .     A
C179   H181    1.083   .     S
C179   C195    1.408   .     A
C180   C196    1.408   .     A
C180   H182    1.083   .     S
C180   C184    1.406   .     A
C183   H185    1.081   .     S
C183   N187    1.362   .     A
C184   N188    1.363   .     A
C184   H186    1.081   .     S
N187   C189    1.363   .     A
N188   C190    1.364   .     A
C189   C193    1.415   .     A
C189   H191    1.081   .     S
C190   C194    1.415   .     A
C190   H192    1.080   .     S
C193   N211    1.439   .     S
C193   C195    1.421   .     A
C194   N214    1.439   .     S
C194   C196    1.420   .     A
C195   C628    1.510   1_554 S
C196   C627    1.510   .     S
C197   H200    1.109   .     S
C197   H199    1.111   .     S
C197   C15     1.525   1_655 S
C197   H54     1.112   1_655 S
C201   H204    1.111   .     S
C201   H203    1.110   .     S
H202   C57     1.112   1_655 S
N205   O207    1.302   .     A
N205   O422    1.302   1_545 S
O206   N421    1.302   .     S
N208   O210    1.302   .     A
N208   O425    1.302   .     S
O209   N424    1.302   1_545 S
N211   O213    1.301   .     A
N211   O212    1.301   .     A
N214   O216    1.302   .     A
N214   O647    1.301   .     S
O215   N646    1.301   1_554 S
O217   C221    1.286   .     A
O217   Zn229   1.974   .     S
O218   C222    1.286   .     A
O218   Zn230   1.974   .     S
O219   Zn230   1.975   .     S
O219   C221    1.285   .     A
O220   C222    1.285   .     A
O220   Zn229   1.975   .     S
C221   C241    1.441   .     S
C222   C242    1.442   .     S
O223   Zn229   1.986   .     S
O223   C227    1.268   .     A
O224   Zn230   1.986   .     S
O224   C228    1.268   .     A
O225   Zn230   1.987   .     S
O225   C227    1.281   .     A
O226   C228    1.280   .     A
O226   Zn229   1.987   .     S
C227   C231    1.404   .     S
C228   C232    1.403   .     S
Zn229  N260    2.002   .     S
Zn230  N259    2.002   .     S
C231   C376    1.355   1_455 S
C231   C413    1.525   1_455 S
C232   C303    1.355   .     S
C232   C345    1.525   .     S
C233   H235    1.084   .     S
C233   C249    1.401   .     A
C233   C237    1.380   .     A
C234   C250    1.401   .     A
C234   H236    1.084   .     S
C234   C238    1.380   .     A
C237   H239    1.084   .     S
C237   C241    1.394   .     A
C238   H240    1.084   .     S
C238   C242    1.394   .     A
C241   C243    1.401   .     A
C242   C244    1.401   .     A
C243   C247    1.393   .     A
C243   H245    1.084   .     S
C244   H246    1.084   .     S
C244   C248    1.393   .     A
C247   C249    1.411   .     A
C247   N277    1.441   .     S
C248   N280    1.441   .     S
C248   C250    1.411   .     A
C250   C33     1.449   1_565 S
C251   C255    1.405   .     A
C251   H253    1.083   .     S
C251   C267    1.408   .     A
C252   C268    1.408   .     A
C252   H254    1.083   .     S
C252   C256    1.406   .     A
C255   H257    1.081   .     S
C255   N259    1.362   .     A
C256   N260    1.363   .     A
C256   H258    1.081   .     S
N259   C261    1.363   .     A
N260   C262    1.364   .     A
C261   C265    1.415   .     A
C261   H263    1.081   .     S
C262   C266    1.415   .     A
C262   H264    1.080   .     S
C265   N283    1.439   .     S
C265   C267    1.421   .     A
C266   N286    1.439   .     S
C266   C268    1.420   .     A
C267   C700    1.510   1_554 S
C268   C699    1.510   .     S
C269   H272    1.109   .     S
C269   H271    1.111   .     S
C269   C303    1.525   .     S
C269   H342    1.112   .     S
H270   C413    1.112   1_455 S
C273   H276    1.111   .     S
C273   H275    1.110   .     S
C273   C376    1.525   1_455 S
C273   H418    1.112   1_455 S
H274   C345    1.112   .     S
N277   O279    1.302   .     A
O278   N61     1.302   1_565 S
N280   O282    1.302   .     A
N280   O65     1.302   1_565 S
N283   O285    1.301   .     A
N283   O284    1.301   .     A
N286   O288    1.302   .     A
N286   O719    1.301   .     S
O287   N718    1.301   1_554 S
O289   C293    1.286   .     A
O289   Zn301   1.974   .     S
O290   C294    1.286   .     A
O290   Zn302   1.974   .     S
O291   Zn302   1.975   .     S
O291   C293    1.285   .     A
O292   C294    1.285   .     A
O292   Zn301   1.975   .     S
C293   C313    1.441   .     S
C294   C314    1.442   .     S
O295   Zn301   1.986   .     S
O295   C299    1.268   .     A
O296   Zn302   1.986   .     S
O296   C300    1.268   .     A
O297   Zn302   1.987   .     S
O297   C299    1.281   .     A
O298   C300    1.280   .     A
O298   Zn301   1.987   .     S
C299   C303    1.404   .     S
C300   C304    1.403   .     S
Zn301  N332    2.002   .     S
Zn302  N331    2.002   .     S
C304   C375    1.355   .     S
C304   C417    1.525   .     S
C305   H307    1.084   .     S
C305   C321    1.401   .     A
C305   C309    1.380   .     A
C306   C322    1.401   .     A
C306   H308    1.084   .     S
C306   C310    1.380   .     A
C309   H311    1.084   .     S
C309   C313    1.394   .     A
C310   H312    1.084   .     S
C310   C314    1.394   .     A
C313   C315    1.401   .     A
C314   C316    1.401   .     A
C315   C319    1.393   .     A
C315   H317    1.084   .     S
C316   H318    1.084   .     S
C316   C320    1.393   .     A
C319   C321    1.411   .     A
C319   N349    1.441   .     S
C320   N352    1.441   .     S
C320   C322    1.411   .     A
C322   C105    1.449   1_565 S
C323   C327    1.405   .     A
C323   H325    1.083   .     S
C323   C339    1.408   .     A
C324   C340    1.408   .     A
C324   H326    1.083   .     S
C324   C328    1.406   .     A
C327   H329    1.081   .     S
C327   N331    1.362   .     A
C328   N332    1.363   .     A
C328   H330    1.081   .     S
N331   C333    1.363   .     A
N332   C334    1.364   .     A
C333   C337    1.415   .     A
C333   H335    1.081   .     S
C334   C338    1.415   .     A
C334   H336    1.080   .     S
C337   N355    1.439   .     S
C337   C339    1.421   .     A
C338   N358    1.439   .     S
C338   C340    1.420   .     A
C339   C772    1.510   1_554 S
C340   C771    1.510   .     S
C341   H344    1.109   .     S
C341   H343    1.111   .     S
C341   C375    1.525   .     S
C341   H414    1.112   .     S
C345   H348    1.111   .     S
C345   H347    1.110   .     S
H346   C417    1.112   .     S
N349   O351    1.302   .     A
O350   N133    1.302   1_565 S
N352   O354    1.302   .     A
N352   O137    1.302   1_565 S
N355   O357    1.301   .     A
N355   O356    1.301   .     A
N358   O360    1.302   .     A
N358   O791    1.301   .     S
O359   N790    1.301   1_554 S
O361   C365    1.286   .     A
O361   Zn373   1.974   .     S
O362   C366    1.286   .     A
O362   Zn374   1.974   .     S
O363   Zn374   1.975   .     S
O363   C365    1.285   .     A
O364   C366    1.285   .     A
O364   Zn373   1.975   .     S
C365   C385    1.441   .     S
C366   C386    1.442   .     S
O367   Zn373   1.986   .     S
O367   C371    1.268   .     A
O368   Zn374   1.986   .     S
O368   C372    1.268   .     A
O369   Zn374   1.987   .     S
O369   C371    1.281   .     A
O370   C372    1.280   .     A
O370   Zn373   1.987   .     S
C371   C375    1.404   .     S
C372   C376    1.403   .     S
Zn373  N404    2.002   .     S
Zn374  N403    2.002   .     S
C376   C231    1.355   1_655 S
C376   C273    1.525   1_655 S
C377   H379    1.084   .     S
C377   C393    1.401   .     A
C377   C381    1.380   .     A
C378   C394    1.401   .     A
C378   H380    1.084   .     S
C378   C382    1.380   .     A
C381   H383    1.084   .     S
C381   C385    1.394   .     A
C382   H384    1.084   .     S
C382   C386    1.394   .     A
C385   C387    1.401   .     A
C386   C388    1.401   .     A
C387   C391    1.393   .     A
C387   H389    1.084   .     S
C388   H390    1.084   .     S
C388   C392    1.393   .     A
C391   C393    1.411   .     A
C391   N421    1.441   .     S
C392   N424    1.441   .     S
C392   C394    1.411   .     A
C394   C177    1.449   1_565 S
C395   C399    1.405   .     A
C395   H397    1.083   .     S
C395   C411    1.408   .     A
C396   C412    1.408   .     A
C396   H398    1.083   .     S
C396   C400    1.406   .     A
C399   H401    1.081   .     S
C399   N403    1.362   .     A
C400   N404    1.363   .     A
C400   H402    1.081   .     S
N403   C405    1.363   .     A
N404   C406    1.364   .     A
C405   C409    1.415   .     A
C405   H407    1.081   .     S
C406   C410    1.415   .     A
C406   H408    1.080   .     S
C409   N427    1.439   .     S
C409   C411    1.421   .     A
C410   N430    1.439   .     S
C410   C412    1.420   .     A
C411   C844    1.510   1_554 S
C412   C843    1.510   .     S
C413   H416    1.109   .     S
C413   H415    1.111   .     S
C413   C231    1.525   1_655 S
C413   H270    1.112   1_655 S
C417   H420    1.111   .     S
C417   H419    1.110   .     S
H418   C273    1.112   1_655 S
N421   O423    1.302   .     A
O422   N205    1.302   1_565 S
N424   O426    1.302   .     A
N424   O209    1.302   1_565 S
N427   O429    1.301   .     A
N427   O428    1.301   .     A
N430   O432    1.302   .     A
N430   O863    1.301   .     S
O431   N862    1.301   1_554 S
O433   C437    1.286   .     A
O433   Zn445   1.974   .     S
O434   C438    1.286   .     A
O434   Zn446   1.974   .     S
O435   Zn446   1.975   .     S
O435   C437    1.285   .     A
O436   C438    1.285   .     A
O436   Zn445   1.975   .     S
C437   C457    1.441   .     S
C438   C458    1.442   .     S
O439   Zn445   1.986   .     S
O439   C443    1.268   .     A
O440   Zn446   1.986   .     S
O440   C444    1.268   .     A
O441   Zn446   1.987   .     S
O441   C443    1.281   .     A
O442   C444    1.280   .     A
O442   Zn445   1.987   .     S
C443   C447    1.404   .     S
C444   C448    1.403   .     S
Zn445  N476    2.002   .     S
Zn446  N475    2.002   .     S
C447   C592    1.355   1_455 S
C447   C629    1.525   1_455 S
C448   C519    1.355   .     S
C448   C561    1.525   .     S
C449   H451    1.084   .     S
C449   C465    1.401   .     A
C449   C453    1.380   .     A
C450   C466    1.401   .     A
C450   H452    1.084   .     S
C450   C454    1.380   .     A
C453   H455    1.084   .     S
C453   C457    1.394   .     A
C454   H456    1.084   .     S
C454   C458    1.394   .     A
C457   C459    1.401   .     A
C458   C460    1.401   .     A
C459   C463    1.393   .     A
C459   H461    1.084   .     S
C460   H462    1.084   .     S
C460   C464    1.393   .     A
C463   C465    1.411   .     A
C463   N493    1.441   .     S
C464   N496    1.441   .     S
C464   C466    1.411   .     A
C465   C682    1.449   1_545 S
C466   C681    1.449   .     S
C467   C471    1.405   .     A
C467   H469    1.083   .     S
C467   C483    1.408   .     A
C468   C484    1.408   .     A
C468   H470    1.083   .     S
C468   C472    1.406   .     A
C471   H473    1.081   .     S
C471   N475    1.362   .     A
C472   N476    1.363   .     A
C472   H474    1.081   .     S
N475   C477    1.363   .     A
N476   C478    1.364   .     A
C477   C481    1.415   .     A
C477   H479    1.081   .     S
C478   C482    1.415   .     A
C478   H480    1.080   .     S
C481   N499    1.439   .     S
C481   C483    1.421   .     A
C482   N502    1.439   .     S
C482   C484    1.420   .     A
C484   C51     1.510   1_556 S
C485   H488    1.109   .     S
C485   H487    1.111   .     S
C485   C519    1.525   .     S
C485   H558    1.112   .     S
H486   C629    1.112   1_455 S
C489   H492    1.111   .     S
C489   H491    1.110   .     S
C489   C592    1.525   1_455 S
C489   H634    1.112   1_455 S
H490   C561    1.112   .     S
N493   O495    1.302   .     A
N493   O710    1.302   1_545 S
O494   N709    1.302   .     S
N496   O498    1.302   .     A
N496   O713    1.302   .     S
O497   N712    1.302   1_545 S
N499   O501    1.301   .     A
N499   O500    1.301   .     A
N502   O504    1.302   .     A
N502   O71     1.301   1_556 S
O505   C509    1.286   .     A
O505   Zn517   1.974   .     S
O506   C510    1.286   .     A
O506   Zn518   1.974   .     S
O507   Zn518   1.975   .     S
O507   C509    1.285   .     A
O508   C510    1.285   .     A
O508   Zn517   1.975   .     S
C509   C529    1.441   .     S
C510   C530    1.442   .     S
O511   Zn517   1.986   .     S
O511   C515    1.268   .     A
O512   Zn518   1.986   .     S
O512   C516    1.268   .     A
O513   Zn518   1.987   .     S
O513   C515    1.281   .     A
O514   C516    1.280   .     A
O514   Zn517   1.987   .     S
C515   C519    1.404   .     S
C516   C520    1.403   .     S
Zn517  N548    2.002   .     S
Zn518  N547    2.002   .     S
C520   C591    1.355   .     S
C520   C633    1.525   .     S
C521   H523    1.084   .     S
C521   C537    1.401   .     A
C521   C525    1.380   .     A
C522   C538    1.401   .     A
C522   H524    1.084   .     S
C522   C526    1.380   .     A
C525   H527    1.084   .     S
C525   C529    1.394   .     A
C526   H528    1.084   .     S
C526   C530    1.394   .     A
C529   C531    1.401   .     A
C530   C532    1.401   .     A
C531   C535    1.393   .     A
C531   H533    1.084   .     S
C532   H534    1.084   .     S
C532   C536    1.393   .     A
C535   C537    1.411   .     A
C535   N565    1.441   .     S
C536   N568    1.441   .     S
C536   C538    1.411   .     A
C537   C754    1.449   1_545 S
C538   C753    1.449   .     S
C539   C543    1.405   .     A
C539   H541    1.083   .     S
C539   C555    1.408   .     A
C540   C556    1.408   .     A
C540   H542    1.083   .     S
C540   C544    1.406   .     A
C543   H545    1.081   .     S
C543   N547    1.362   .     A
C544   N548    1.363   .     A
C544   H546    1.081   .     S
N547   C549    1.363   .     A
N548   C550    1.364   .     A
C549   C553    1.415   .     A
C549   H551    1.081   .     S
C550   C554    1.415   .     A
C550   H552    1.080   .     S
C553   N571    1.439   .     S
C553   C555    1.421   .     A
C554   N574    1.439   .     S
C554   C556    1.420   .     A
C556   C123    1.510   1_556 S
C557   H560    1.109   .     S
C557   H559    1.111   .     S
C557   C591    1.525   .     S
C557   H630    1.112   .     S
C561   H564    1.111   .     S
C561   H563    1.110   .     S
H562   C633    1.112   .     S
N565   O567    1.302   .     A
N565   O782    1.302   1_545 S
O566   N781    1.302   .     S
N568   O570    1.302   .     A
N568   O785    1.302   .     S
O569   N784    1.302   1_545 S
N571   O573    1.301   .     A
N571   O572    1.301   .     A
N574   O576    1.302   .     A
N574   O143    1.301   1_556 S
O577   C581    1.286   .     A
O577   Zn589   1.974   .     S
O578   C582    1.286   .     A
O578   Zn590   1.974   .     S
O579   Zn590   1.975   .     S
O579   C581    1.285   .     A
O580   C582    1.285   .     A
O580   Zn589   1.975   .     S
C581   C601    1.441   .     S
C582   C602    1.442   .     S
O583   Zn589   1.986   .     S
O583   C587    1.268   .     A
O584   Zn590   1.986   .     S
O584   C588    1.268   .     A
O585   Zn590   1.987   .     S
O585   C587    1.281   .     A
O586   C588    1.280   .     A
O586   Zn589   1.987   .     S
C587   C591    1.404   .     S
C588   C592    1.403   .     S
Zn589  N620    2.002   .     S
Zn590  N619    2.002   .     S
C592   C447    1.355   1_655 S
C592   C489    1.525   1_655 S
C593   H595    1.084   .     S
C593   C609    1.401   .     A
C593   C597    1.380   .     A
C594   C610    1.401   .     A
C594   H596    1.084   .     S
C594   C598    1.380   .     A
C597   H599    1.084   .     S
C597   C601    1.394   .     A
C598   H600    1.084   .     S
C598   C602    1.394   .     A
C601   C603    1.401   .     A
C602   C604    1.401   .     A
C603   C607    1.393   .     A
C603   H605    1.084   .     S
C604   H606    1.084   .     S
C604   C608    1.393   .     A
C607   C609    1.411   .     A
C607   N637    1.441   .     S
C608   N640    1.441   .     S
C608   C610    1.411   .     A
C609   C826    1.449   1_545 S
C610   C825    1.449   .     S
C611   C615    1.405   .     A
C611   H613    1.083   .     S
C611   C627    1.408   .     A
C612   C628    1.408   .     A
C612   H614    1.083   .     S
C612   C616    1.406   .     A
C615   H617    1.081   .     S
C615   N619    1.362   .     A
C616   N620    1.363   .     A
C616   H618    1.081   .     S
N619   C621    1.363   .     A
N620   C622    1.364   .     A
C621   C625    1.415   .     A
C621   H623    1.081   .     S
C622   C626    1.415   .     A
C622   H624    1.080   .     S
C625   N643    1.439   .     S
C625   C627    1.421   .     A
C626   N646    1.439   .     S
C626   C628    1.420   .     A
C628   C195    1.510   1_556 S
C629   H632    1.109   .     S
C629   H631    1.111   .     S
C629   C447    1.525   1_655 S
C629   H486    1.112   1_655 S
C633   H636    1.111   .     S
C633   H635    1.110   .     S
H634   C489    1.112   1_655 S
N637   O639    1.302   .     A
N637   O854    1.302   1_545 S
O638   N853    1.302   .     S
N640   O642    1.302   .     A
N640   O857    1.302   .     S
O641   N856    1.302   1_545 S
N643   O645    1.301   .     A
N643   O644    1.301   .     A
N646   O648    1.302   .     A
N646   O215    1.301   1_556 S
O649   C653    1.286   .     A
O649   Zn661   1.974   .     S
O650   C654    1.286   .     A
O650   Zn662   1.974   .     S
O651   Zn662   1.975   .     S
O651   C653    1.285   .     A
O652   C654    1.285   .     A
O652   Zn661   1.975   .     S
C653   C673    1.441   .     S
C654   C674    1.442   .     S
O655   Zn661   1.986   .     S
O655   C659    1.268   .     A
O656   Zn662   1.986   .     S
O656   C660    1.268   .     A
O657   Zn662   1.987   .     S
O657   C659    1.281   .     A
O658   C660    1.280   .     A
O658   Zn661   1.987   .     S
C659   C663    1.404   .     S
C660   C664    1.403   .     S
Zn661  N692    2.002   .     S
Zn662  N691    2.002   .     S
C663   C808    1.355   1_455 S
C663   C845    1.525   1_455 S
C664   C735    1.355   .     S
C664   C777    1.525   .     S
C665   H667    1.084   .     S
C665   C681    1.401   .     A
C665   C669    1.380   .     A
C666   C682    1.401   .     A
C666   H668    1.084   .     S
C666   C670    1.380   .     A
C669   H671    1.084   .     S
C669   C673    1.394   .     A
C670   H672    1.084   .     S
C670   C674    1.394   .     A
C673   C675    1.401   .     A
C674   C676    1.401   .     A
C675   C679    1.393   .     A
C675   H677    1.084   .     S
C676   H678    1.084   .     S
C676   C680    1.393   .     A
C679   C681    1.411   .     A
C679   N709    1.441   .     S
C680   N712    1.441   .     S
C680   C682    1.411   .     A
C682   C465    1.449   1_565 S
C683   C687    1.405   .     A
C683   H685    1.083   .     S
C683   C699    1.408   .     A
C684   C700    1.408   .     A
C684   H686    1.083   .     S
C684   C688    1.406   .     A
C687   H689    1.081   .     S
C687   N691    1.362   .     A
C688   N692    1.363   .     A
C688   H690    1.081   .     S
N691   C693    1.363   .     A
N692   C694    1.364   .     A
C693   C697    1.415   .     A
C693   H695    1.081   .     S
C694   C698    1.415   .     A
C694   H696    1.080   .     S
C697   N715    1.439   .     S
C697   C699    1.421   .     A
C698   N718    1.439   .     S
C698   C700    1.420   .     A
C700   C267    1.510   1_556 S
C701   H704    1.109   .     S
C701   H703    1.111   .     S
C701   C735    1.525   .     S
C701   H774    1.112   .     S
H702   C845    1.112   1_455 S
C705   H708    1.111   .     S
C705   H707    1.110   .     S
C705   C808    1.525   1_455 S
C705   H850    1.112   1_455 S
H706   C777    1.112   .     S
N709   O711    1.302   .     A
O710   N493    1.302   1_565 S
N712   O714    1.302   .     A
N712   O497    1.302   1_565 S
N715   O717    1.301   .     A
N715   O716    1.301   .     A
N718   O720    1.302   .     A
N718   O287    1.301   1_556 S
O721   C725    1.286   .     A
O721   Zn733   1.974   .     S
O722   C726    1.286   .     A
O722   Zn734   1.974   .     S
O723   Zn734   1.975   .     S
O723   C725    1.285   .     A
O724   C726    1.285   .     A
O724   Zn733   1.975   .     S
C725   C745    1.441   .     S
C726   C746    1.442   .     S
O727   Zn733   1.986   .     S
O727   C731    1.268   .     A
O728   Zn734   1.986   .     S
O728   C732    1.268   .     A
O729   Zn734   1.987   .     S
O729   C731    1.281   .     A
O730   C732    1.280   .     A
O730   Zn733   1.987   .     S
C731   C735    1.404   .     S
C732   C736    1.403   .     S
Zn733  N764    2.002   .     S
Zn734  N763    2.002   .     S
C736   C807    1.355   .     S
C736   C849    1.525   .     S
C737   H739    1.084   .     S
C737   C753    1.401   .     A
C737   C741    1.380   .     A
C738   C754    1.401   .     A
C738   H740    1.084   .     S
C738   C742    1.380   .     A
C741   H743    1.084   .     S
C741   C745    1.394   .     A
C742   H744    1.084   .     S
C742   C746    1.394   .     A
C745   C747    1.401   .     A
C746   C748    1.401   .     A
C747   C751    1.393   .     A
C747   H749    1.084   .     S
C748   H750    1.084   .     S
C748   C752    1.393   .     A
C751   C753    1.411   .     A
C751   N781    1.441   .     S
C752   N784    1.441   .     S
C752   C754    1.411   .     A
C754   C537    1.449   1_565 S
C755   C759    1.405   .     A
C755   H757    1.083   .     S
C755   C771    1.408   .     A
C756   C772    1.408   .     A
C756   H758    1.083   .     S
C756   C760    1.406   .     A
C759   H761    1.081   .     S
C759   N763    1.362   .     A
C760   N764    1.363   .     A
C760   H762    1.081   .     S
N763   C765    1.363   .     A
N764   C766    1.364   .     A
C765   C769    1.415   .     A
C765   H767    1.081   .     S
C766   C770    1.415   .     A
C766   H768    1.080   .     S
C769   N787    1.439   .     S
C769   C771    1.421   .     A
C770   N790    1.439   .     S
C770   C772    1.420   .     A
C772   C339    1.510   1_556 S
C773   H776    1.109   .     S
C773   H775    1.111   .     S
C773   C807    1.525   .     S
C773   H846    1.112   .     S
C777   H780    1.111   .     S
C777   H779    1.110   .     S
H778   C849    1.112   .     S
N781   O783    1.302   .     A
O782   N565    1.302   1_565 S
N784   O786    1.302   .     A
N784   O569    1.302   1_565 S
N787   O789    1.301   .     A
N787   O788    1.301   .     A
N790   O792    1.302   .     A
N790   O359    1.301   1_556 S
O793   C797    1.286   .     A
O793   Zn805   1.974   .     S
O794   C798    1.286   .     A
O794   Zn806   1.974   .     S
O795   Zn806   1.975   .     S
O795   C797    1.285   .     A
O796   C798    1.285   .     A
O796   Zn805   1.975   .     S
C797   C817    1.441   .     S
C798   C818    1.442   .     S
O799   Zn805   1.986   .     S
O799   C803    1.268   .     A
O800   Zn806   1.986   .     S
O800   C804    1.268   .     A
O801   Zn806   1.987   .     S
O801   C803    1.281   .     A
O802   C804    1.280   .     A
O802   Zn805   1.987   .     S
C803   C807    1.404   .     S
C804   C808    1.403   .     S
Zn805  N836    2.002   .     S
Zn806  N835    2.002   .     S
C808   C663    1.355   1_655 S
C808   C705    1.525   1_655 S
C809   H811    1.084   .     S
C809   C825    1.401   .     A
C809   C813    1.380   .     A
C810   C826    1.401   .     A
C810   H812    1.084   .     S
C810   C814    1.380   .     A
C813   H815    1.084   .     S
C813   C817    1.394   .     A
C814   H816    1.084   .     S
C814   C818    1.394   .     A
C817   C819    1.401   .     A
C818   C820    1.401   .     A
C819   C823    1.393   .     A
C819   H821    1.084   .     S
C820   H822    1.084   .     S
C820   C824    1.393   .     A
C823   C825    1.411   .     A
C823   N853    1.441   .     S
C824   N856    1.441   .     S
C824   C826    1.411   .     A
C826   C609    1.449   1_565 S
C827   C831    1.405   .     A
C827   H829    1.083   .     S
C827   C843    1.408   .     A
C828   C844    1.408   .     A
C828   H830    1.083   .     S
C828   C832    1.406   .     A
C831   H833    1.081   .     S
C831   N835    1.362   .     A
C832   N836    1.363   .     A
C832   H834    1.081   .     S
N835   C837    1.363   .     A
N836   C838    1.364   .     A
C837   C841    1.415   .     A
C837   H839    1.081   .     S
C838   C842    1.415   .     A
C838   H840    1.080   .     S
C841   N859    1.439   .     S
C841   C843    1.421   .     A
C842   N862    1.439   .     S
C842   C844    1.420   .     A
C844   C411    1.510   1_556 S
C845   H848    1.109   .     S
C845   H847    1.111   .     S
C845   C663    1.525   1_655 S
C845   H702    1.112   1_655 S
C849   H852    1.111   .     S
C849   H851    1.110   .     S
H850   C705    1.112   1_655 S
N853   O855    1.302   .     A
O854   N637    1.302   1_565 S
N856   O858    1.302   .     A
N856   O641    1.302   1_565 S
N859   O861    1.301   .     A
N859   O860    1.301   .     A
N862   O864    1.302   .     A
N862   O431    1.301   1_556 S
