data_str_m3_o2_o10_pcu_sym.8
_audit_creation_date              2020-01-03
_audit_creation_method            'Materials Studio'
_symmetry_space_group_name_H-M    'P1'
_symmetry_Int_Tables_number       1
_symmetry_cell_setting            triclinic
loop_
_symmetry_equiv_pos_as_xyz
  x,y,z
_cell_length_a                    26.0230
_cell_length_b                    29.9802
_cell_length_c                    28.4641
_cell_angle_alpha                 91.1275
_cell_angle_beta                  99.0671
_cell_angle_gamma                 90.9700
loop_
_atom_site_label
_atom_site_type_symbol
_atom_site_fract_x
_atom_site_fract_y
_atom_site_fract_z
_atom_site_U_iso_or_equiv
_atom_site_adp_type
_atom_site_occupancy
O1     O     0.16667   0.18453   0.28974   0.00000  Uiso   1.00
O2     O     0.16666   0.31546   0.21026   0.00000  Uiso   1.00
O3     O     0.16667   0.18453   0.21026   0.00000  Uiso   1.00
O4     O     0.16666   0.31547   0.28974   0.00000  Uiso   1.00
C5     C     0.16627   0.16383   0.24957   0.00000  Uiso   1.00
C6     C     0.16648   0.33599   0.25028   0.00000  Uiso   1.00
O7     O     0.09058   0.25000   0.28044   0.00000  Uiso   1.00
O8     O     0.24275   0.25000   0.21955   0.00000  Uiso   1.00
O9     O     0.09058   0.24999   0.20096   0.00000  Uiso   1.00
O10    O     0.24275   0.25000   0.29903   0.00000  Uiso   1.00
C11    C     0.06720   0.25044   0.23765   0.00000  Uiso   1.00
C12    C     0.26619   0.24976   0.26244   0.00000  Uiso   1.00
Zn13   Zn    0.16667   0.25000   0.30307   0.00000  Uiso   1.00
Zn14   Zn    0.16667   0.24999   0.19693   0.00000  Uiso   1.00
C15    C     0.01264   0.24491   0.23178   0.00000  Uiso   1.00
C16    C     0.32083   0.25565   0.26862   0.00000  Uiso   1.00
C17    C     0.15321   0.04724   0.28879   0.00000  Uiso   1.00
C18    C     0.13406   0.45071   0.21130   0.00000  Uiso   1.00
H19    H     0.14528   0.03006   0.32011   0.00000  Uiso   1.00
H20    H     0.11057   0.46692   0.18193   0.00000  Uiso   1.00
C21    C     0.15448   0.09324   0.28913   0.00000  Uiso   1.00
C22    C     0.13518   0.40468   0.21197   0.00000  Uiso   1.00
H23    H     0.14750   0.11109   0.32090   0.00000  Uiso   1.00
H24    H     0.11264   0.38545   0.18299   0.00000  Uiso   1.00
C25    C     0.16456   0.11572   0.24874   0.00000  Uiso   1.00
C26    C     0.16488   0.38372   0.25024   0.00000  Uiso   1.00
C27    C     0.17274   0.09194   0.20781   0.00000  Uiso   1.00
C28    C     0.19388   0.40851   0.28753   0.00000  Uiso   1.00
H29    H     0.18069   0.10887   0.17638   0.00000  Uiso   1.00
H30    H     0.21834   0.39242   0.31621   0.00000  Uiso   1.00
C31    C     0.17154   0.04582   0.20757   0.00000  Uiso   1.00
C32    C     0.19286   0.45452   0.28687   0.00000  Uiso   1.00
H33    H     0.17892   0.02751   0.17619   0.00000  Uiso   1.00
H34    H     0.21603   0.47371   0.31552   0.00000  Uiso   1.00
C35    C     0.16212   0.02359   0.24819   0.00000  Uiso   1.00
C36    C     0.16287   0.47556   0.24880   0.00000  Uiso   1.00
C37    C     0.12939   0.22745   0.04567   0.00000  Uiso   1.00
C38    C     0.18812   0.28543   0.45181   0.00000  Uiso   1.00
H39    H     0.09827   0.21038   0.02203   0.00000  Uiso   1.00
H40    H     0.20380   0.31436   0.47298   0.00000  Uiso   1.00
C41    C     0.12839   0.22775   0.09496   0.00000  Uiso   1.00
C42    C     0.18746   0.28554   0.40228   0.00000  Uiso   1.00
N43    N     0.16667   0.24999   0.12623   0.00000  Uiso   1.00
N44    N     0.16667   0.25001   0.37376   0.00000  Uiso   1.00
C45    C     0.20527   0.27253   0.10871   0.00000  Uiso   1.00
C46    C     0.14706   0.21397   0.39410   0.00000  Uiso   1.00
H47    H     0.23462   0.29091   0.13298   0.00000  Uiso   1.00
H48    H     0.13080   0.18590   0.37191   0.00000  Uiso   1.00
C49    C     0.20761   0.27219   0.05947   0.00000  Uiso   1.00
C50    C     0.14818   0.21249   0.44376   0.00000  Uiso   1.00
H51    H     0.23960   0.28963   0.04726   0.00000  Uiso   1.00
H52    H     0.13327   0.18283   0.45846   0.00000  Uiso   1.00
C53    C     0.16926   0.24912   0.02689   0.00000  Uiso   1.00
C54    C     0.16898   0.24871   0.47369   0.00000  Uiso   1.00
N55    N     0.32157   0.22076   0.18981   0.00000  Uiso   1.00
O56    O     0.31624   0.23985   0.14880   0.00000  Uiso   1.00
O57    O     0.30522   0.17979   0.19260   0.00000  Uiso   1.00
N58    N     0.01186   0.28003   0.31066   0.00000  Uiso   1.00
O59    O     0.01029   0.26408   0.35260   0.00000  Uiso   1.00
O60    O     0.03150   0.31980   0.30707   0.00000  Uiso   1.00
N61    N     0.08571   0.20506   0.11097   0.00000  Uiso   1.00
O62    O     0.09466   0.17206   0.13974   0.00000  Uiso   1.00
O63    O     0.03964   0.20735   0.08566   0.00000  Uiso   1.00
N64    N     0.20975   0.32334   0.38270   0.00000  Uiso   1.00
O65    O     0.25119   0.31843   0.36309   0.00000  Uiso   1.00
O66    O     0.19789   0.36320   0.39578   0.00000  Uiso   1.00
O67    O     0.50000   0.18453   0.28974   0.00000  Uiso   1.00
O68    O     0.50000   0.31546   0.21026   0.00000  Uiso   1.00
O69    O     0.50000   0.18453   0.21026   0.00000  Uiso   1.00
O70    O     0.50000   0.31547   0.28974   0.00000  Uiso   1.00
C71    C     0.49960   0.16383   0.24957   0.00000  Uiso   1.00
C72    C     0.49981   0.33599   0.25028   0.00000  Uiso   1.00
O73    O     0.42392   0.25000   0.28044   0.00000  Uiso   1.00
O74    O     0.57608   0.25000   0.21955   0.00000  Uiso   1.00
O75    O     0.42392   0.24999   0.20096   0.00000  Uiso   1.00
O76    O     0.57608   0.25000   0.29903   0.00000  Uiso   1.00
C77    C     0.40053   0.25044   0.23765   0.00000  Uiso   1.00
C78    C     0.59953   0.24976   0.26244   0.00000  Uiso   1.00
Zn79   Zn    0.50000   0.25000   0.30307   0.00000  Uiso   1.00
Zn80   Zn    0.50000   0.24999   0.19693   0.00000  Uiso   1.00
C81    C     0.34598   0.24491   0.23178   0.00000  Uiso   1.00
C82    C     0.65417   0.25565   0.26862   0.00000  Uiso   1.00
C83    C     0.48654   0.04724   0.28879   0.00000  Uiso   1.00
C84    C     0.46740   0.45071   0.21130   0.00000  Uiso   1.00
H85    H     0.47862   0.03006   0.32011   0.00000  Uiso   1.00
H86    H     0.44390   0.46692   0.18193   0.00000  Uiso   1.00
C87    C     0.48782   0.09324   0.28913   0.00000  Uiso   1.00
C88    C     0.46852   0.40468   0.21197   0.00000  Uiso   1.00
H89    H     0.48083   0.11109   0.32090   0.00000  Uiso   1.00
H90    H     0.44597   0.38545   0.18299   0.00000  Uiso   1.00
C91    C     0.49790   0.11572   0.24874   0.00000  Uiso   1.00
C92    C     0.49821   0.38372   0.25024   0.00000  Uiso   1.00
C93    C     0.50607   0.09194   0.20781   0.00000  Uiso   1.00
C94    C     0.52721   0.40851   0.28753   0.00000  Uiso   1.00
H95    H     0.51403   0.10887   0.17638   0.00000  Uiso   1.00
H96    H     0.55167   0.39242   0.31621   0.00000  Uiso   1.00
C97    C     0.50488   0.04582   0.20757   0.00000  Uiso   1.00
C98    C     0.52620   0.45452   0.28687   0.00000  Uiso   1.00
H99    H     0.51225   0.02751   0.17619   0.00000  Uiso   1.00
H100   H     0.54936   0.47371   0.31552   0.00000  Uiso   1.00
C101   C     0.49545   0.02359   0.24819   0.00000  Uiso   1.00
C102   C     0.49621   0.47556   0.24880   0.00000  Uiso   1.00
C103   C     0.46273   0.22745   0.04567   0.00000  Uiso   1.00
C104   C     0.52146   0.28543   0.45181   0.00000  Uiso   1.00
H105   H     0.43160   0.21038   0.02203   0.00000  Uiso   1.00
H106   H     0.53713   0.31436   0.47298   0.00000  Uiso   1.00
C107   C     0.46172   0.22775   0.09496   0.00000  Uiso   1.00
C108   C     0.52080   0.28554   0.40228   0.00000  Uiso   1.00
N109   N     0.50000   0.24999   0.12623   0.00000  Uiso   1.00
N110   N     0.50000   0.25001   0.37376   0.00000  Uiso   1.00
C111   C     0.53861   0.27253   0.10871   0.00000  Uiso   1.00
C112   C     0.48039   0.21397   0.39410   0.00000  Uiso   1.00
H113   H     0.56795   0.29091   0.13298   0.00000  Uiso   1.00
H114   H     0.46413   0.18590   0.37191   0.00000  Uiso   1.00
C115   C     0.54094   0.27219   0.05947   0.00000  Uiso   1.00
C116   C     0.48151   0.21249   0.44376   0.00000  Uiso   1.00
H117   H     0.57293   0.28963   0.04726   0.00000  Uiso   1.00
H118   H     0.46661   0.18283   0.45846   0.00000  Uiso   1.00
C119   C     0.50259   0.24912   0.02689   0.00000  Uiso   1.00
C120   C     0.50232   0.24871   0.47369   0.00000  Uiso   1.00
N121   N     0.65490   0.22076   0.18981   0.00000  Uiso   1.00
O122   O     0.64957   0.23985   0.14880   0.00000  Uiso   1.00
O123   O     0.63855   0.17979   0.19260   0.00000  Uiso   1.00
N124   N     0.34519   0.28003   0.31066   0.00000  Uiso   1.00
O125   O     0.34362   0.26408   0.35260   0.00000  Uiso   1.00
O126   O     0.36483   0.31980   0.30707   0.00000  Uiso   1.00
N127   N     0.41904   0.20506   0.11097   0.00000  Uiso   1.00
O128   O     0.42800   0.17206   0.13974   0.00000  Uiso   1.00
O129   O     0.37297   0.20735   0.08566   0.00000  Uiso   1.00
N130   N     0.54309   0.32334   0.38270   0.00000  Uiso   1.00
O131   O     0.58452   0.31843   0.36309   0.00000  Uiso   1.00
O132   O     0.53123   0.36320   0.39578   0.00000  Uiso   1.00
O133   O     0.83334   0.18453   0.28974   0.00000  Uiso   1.00
O134   O     0.83333   0.31546   0.21026   0.00000  Uiso   1.00
O135   O     0.83334   0.18453   0.21026   0.00000  Uiso   1.00
O136   O     0.83333   0.31547   0.28974   0.00000  Uiso   1.00
C137   C     0.83293   0.16383   0.24957   0.00000  Uiso   1.00
C138   C     0.83314   0.33599   0.25028   0.00000  Uiso   1.00
O139   O     0.75725   0.25000   0.28044   0.00000  Uiso   1.00
O140   O     0.90942   0.25000   0.21955   0.00000  Uiso   1.00
O141   O     0.75725   0.24999   0.20096   0.00000  Uiso   1.00
O142   O     0.90942   0.25000   0.29903   0.00000  Uiso   1.00
C143   C     0.73386   0.25044   0.23765   0.00000  Uiso   1.00
C144   C     0.93286   0.24976   0.26244   0.00000  Uiso   1.00
Zn145  Zn    0.83333   0.25000   0.30307   0.00000  Uiso   1.00
Zn146  Zn    0.83333   0.24999   0.19693   0.00000  Uiso   1.00
C147   C     0.67931   0.24491   0.23178   0.00000  Uiso   1.00
C148   C     0.98750   0.25565   0.26862   0.00000  Uiso   1.00
C149   C     0.81987   0.04724   0.28879   0.00000  Uiso   1.00
C150   C     0.80073   0.45071   0.21130   0.00000  Uiso   1.00
H151   H     0.81195   0.03006   0.32011   0.00000  Uiso   1.00
H152   H     0.77723   0.46692   0.18193   0.00000  Uiso   1.00
C153   C     0.82115   0.09324   0.28913   0.00000  Uiso   1.00
C154   C     0.80185   0.40468   0.21197   0.00000  Uiso   1.00
H155   H     0.81417   0.11109   0.32090   0.00000  Uiso   1.00
H156   H     0.77930   0.38545   0.18299   0.00000  Uiso   1.00
C157   C     0.83123   0.11572   0.24874   0.00000  Uiso   1.00
C158   C     0.83155   0.38372   0.25024   0.00000  Uiso   1.00
C159   C     0.83941   0.09194   0.20781   0.00000  Uiso   1.00
C160   C     0.86055   0.40851   0.28753   0.00000  Uiso   1.00
H161   H     0.84736   0.10887   0.17638   0.00000  Uiso   1.00
H162   H     0.88500   0.39242   0.31621   0.00000  Uiso   1.00
C163   C     0.83821   0.04582   0.20757   0.00000  Uiso   1.00
C164   C     0.85953   0.45452   0.28687   0.00000  Uiso   1.00
H165   H     0.84559   0.02751   0.17619   0.00000  Uiso   1.00
H166   H     0.88270   0.47371   0.31552   0.00000  Uiso   1.00
C167   C     0.82879   0.02359   0.24819   0.00000  Uiso   1.00
C168   C     0.82954   0.47556   0.24880   0.00000  Uiso   1.00
C169   C     0.79606   0.22745   0.04567   0.00000  Uiso   1.00
C170   C     0.85479   0.28543   0.45181   0.00000  Uiso   1.00
H171   H     0.76493   0.21038   0.02203   0.00000  Uiso   1.00
H172   H     0.87047   0.31436   0.47298   0.00000  Uiso   1.00
C173   C     0.79505   0.22775   0.09496   0.00000  Uiso   1.00
C174   C     0.85413   0.28554   0.40228   0.00000  Uiso   1.00
N175   N     0.83333   0.24999   0.12623   0.00000  Uiso   1.00
N176   N     0.83333   0.25001   0.37376   0.00000  Uiso   1.00
C177   C     0.87194   0.27253   0.10871   0.00000  Uiso   1.00
C178   C     0.81373   0.21397   0.39410   0.00000  Uiso   1.00
H179   H     0.90129   0.29091   0.13298   0.00000  Uiso   1.00
H180   H     0.79746   0.18590   0.37191   0.00000  Uiso   1.00
C181   C     0.87428   0.27219   0.05947   0.00000  Uiso   1.00
C182   C     0.81484   0.21249   0.44376   0.00000  Uiso   1.00
H183   H     0.90626   0.28963   0.04726   0.00000  Uiso   1.00
H184   H     0.79994   0.18283   0.45846   0.00000  Uiso   1.00
C185   C     0.83592   0.24912   0.02689   0.00000  Uiso   1.00
C186   C     0.83565   0.24871   0.47369   0.00000  Uiso   1.00
N187   N     0.98824   0.22076   0.18981   0.00000  Uiso   1.00
O188   O     0.98290   0.23985   0.14880   0.00000  Uiso   1.00
O189   O     0.97188   0.17979   0.19260   0.00000  Uiso   1.00
N190   N     0.67852   0.28003   0.31066   0.00000  Uiso   1.00
O191   O     0.67696   0.26408   0.35260   0.00000  Uiso   1.00
O192   O     0.69817   0.31980   0.30707   0.00000  Uiso   1.00
N193   N     0.75237   0.20506   0.11097   0.00000  Uiso   1.00
O194   O     0.76133   0.17206   0.13974   0.00000  Uiso   1.00
O195   O     0.70631   0.20735   0.08566   0.00000  Uiso   1.00
N196   N     0.87642   0.32334   0.38270   0.00000  Uiso   1.00
O197   O     0.91785   0.31843   0.36309   0.00000  Uiso   1.00
O198   O     0.86456   0.36320   0.39578   0.00000  Uiso   1.00
O199   O     0.16667   0.68453   0.28974   0.00000  Uiso   1.00
O200   O     0.16666   0.81546   0.21026   0.00000  Uiso   1.00
O201   O     0.16667   0.68453   0.21026   0.00000  Uiso   1.00
O202   O     0.16666   0.81547   0.28974   0.00000  Uiso   1.00
C203   C     0.16627   0.66383   0.24957   0.00000  Uiso   1.00
C204   C     0.16648   0.83599   0.25028   0.00000  Uiso   1.00
O205   O     0.09058   0.75000   0.28044   0.00000  Uiso   1.00
O206   O     0.24275   0.75000   0.21955   0.00000  Uiso   1.00
O207   O     0.09058   0.74999   0.20096   0.00000  Uiso   1.00
O208   O     0.24275   0.75000   0.29903   0.00000  Uiso   1.00
C209   C     0.06720   0.75044   0.23765   0.00000  Uiso   1.00
C210   C     0.26619   0.74976   0.26244   0.00000  Uiso   1.00
Zn211  Zn    0.16667   0.75000   0.30307   0.00000  Uiso   1.00
Zn212  Zn    0.16667   0.74999   0.19693   0.00000  Uiso   1.00
C213   C     0.01264   0.74491   0.23178   0.00000  Uiso   1.00
C214   C     0.32083   0.75565   0.26862   0.00000  Uiso   1.00
C215   C     0.15321   0.54724   0.28879   0.00000  Uiso   1.00
C216   C     0.13406   0.95071   0.21130   0.00000  Uiso   1.00
H217   H     0.14528   0.53006   0.32011   0.00000  Uiso   1.00
H218   H     0.11057   0.96692   0.18193   0.00000  Uiso   1.00
C219   C     0.15448   0.59324   0.28913   0.00000  Uiso   1.00
C220   C     0.13518   0.90468   0.21197   0.00000  Uiso   1.00
H221   H     0.14750   0.61109   0.32090   0.00000  Uiso   1.00
H222   H     0.11264   0.88545   0.18299   0.00000  Uiso   1.00
C223   C     0.16456   0.61572   0.24874   0.00000  Uiso   1.00
C224   C     0.16488   0.88372   0.25024   0.00000  Uiso   1.00
C225   C     0.17274   0.59194   0.20781   0.00000  Uiso   1.00
C226   C     0.19388   0.90851   0.28753   0.00000  Uiso   1.00
H227   H     0.18069   0.60887   0.17638   0.00000  Uiso   1.00
H228   H     0.21834   0.89242   0.31621   0.00000  Uiso   1.00
C229   C     0.17154   0.54582   0.20757   0.00000  Uiso   1.00
C230   C     0.19286   0.95452   0.28687   0.00000  Uiso   1.00
H231   H     0.17892   0.52751   0.17619   0.00000  Uiso   1.00
H232   H     0.21603   0.97371   0.31552   0.00000  Uiso   1.00
C233   C     0.16212   0.52359   0.24819   0.00000  Uiso   1.00
C234   C     0.16287   0.97556   0.24880   0.00000  Uiso   1.00
C235   C     0.12939   0.72745   0.04567   0.00000  Uiso   1.00
C236   C     0.18812   0.78543   0.45181   0.00000  Uiso   1.00
H237   H     0.09827   0.71038   0.02203   0.00000  Uiso   1.00
H238   H     0.20380   0.81436   0.47298   0.00000  Uiso   1.00
C239   C     0.12839   0.72775   0.09496   0.00000  Uiso   1.00
C240   C     0.18746   0.78554   0.40228   0.00000  Uiso   1.00
N241   N     0.16667   0.74999   0.12623   0.00000  Uiso   1.00
N242   N     0.16667   0.75001   0.37376   0.00000  Uiso   1.00
C243   C     0.20527   0.77253   0.10871   0.00000  Uiso   1.00
C244   C     0.14706   0.71397   0.39410   0.00000  Uiso   1.00
H245   H     0.23462   0.79091   0.13298   0.00000  Uiso   1.00
H246   H     0.13080   0.68590   0.37191   0.00000  Uiso   1.00
C247   C     0.20761   0.77219   0.05947   0.00000  Uiso   1.00
C248   C     0.14818   0.71249   0.44376   0.00000  Uiso   1.00
H249   H     0.23960   0.78963   0.04726   0.00000  Uiso   1.00
H250   H     0.13327   0.68283   0.45846   0.00000  Uiso   1.00
C251   C     0.16926   0.74912   0.02689   0.00000  Uiso   1.00
C252   C     0.16898   0.74871   0.47369   0.00000  Uiso   1.00
N253   N     0.32157   0.72076   0.18981   0.00000  Uiso   1.00
O254   O     0.31624   0.73985   0.14880   0.00000  Uiso   1.00
O255   O     0.30522   0.67979   0.19260   0.00000  Uiso   1.00
N256   N     0.01186   0.78003   0.31066   0.00000  Uiso   1.00
O257   O     0.01029   0.76408   0.35260   0.00000  Uiso   1.00
O258   O     0.03150   0.81980   0.30707   0.00000  Uiso   1.00
N259   N     0.08571   0.70506   0.11097   0.00000  Uiso   1.00
O260   O     0.09466   0.67206   0.13974   0.00000  Uiso   1.00
O261   O     0.03964   0.70735   0.08566   0.00000  Uiso   1.00
N262   N     0.20975   0.82334   0.38270   0.00000  Uiso   1.00
O263   O     0.25119   0.81843   0.36309   0.00000  Uiso   1.00
O264   O     0.19789   0.86320   0.39578   0.00000  Uiso   1.00
O265   O     0.50000   0.68453   0.28974   0.00000  Uiso   1.00
O266   O     0.50000   0.81546   0.21026   0.00000  Uiso   1.00
O267   O     0.50000   0.68453   0.21026   0.00000  Uiso   1.00
O268   O     0.50000   0.81547   0.28974   0.00000  Uiso   1.00
C269   C     0.49960   0.66383   0.24957   0.00000  Uiso   1.00
C270   C     0.49981   0.83599   0.25028   0.00000  Uiso   1.00
O271   O     0.42392   0.75000   0.28044   0.00000  Uiso   1.00
O272   O     0.57608   0.75000   0.21955   0.00000  Uiso   1.00
O273   O     0.42392   0.74999   0.20096   0.00000  Uiso   1.00
O274   O     0.57608   0.75000   0.29903   0.00000  Uiso   1.00
C275   C     0.40053   0.75044   0.23765   0.00000  Uiso   1.00
C276   C     0.59953   0.74976   0.26244   0.00000  Uiso   1.00
Zn277  Zn    0.50000   0.75000   0.30307   0.00000  Uiso   1.00
Zn278  Zn    0.50000   0.74999   0.19693   0.00000  Uiso   1.00
C279   C     0.34598   0.74491   0.23178   0.00000  Uiso   1.00
C280   C     0.65417   0.75565   0.26862   0.00000  Uiso   1.00
C281   C     0.48654   0.54724   0.28879   0.00000  Uiso   1.00
C282   C     0.46740   0.95071   0.21130   0.00000  Uiso   1.00
H283   H     0.47862   0.53006   0.32011   0.00000  Uiso   1.00
H284   H     0.44390   0.96692   0.18193   0.00000  Uiso   1.00
C285   C     0.48782   0.59324   0.28913   0.00000  Uiso   1.00
C286   C     0.46852   0.90468   0.21197   0.00000  Uiso   1.00
H287   H     0.48083   0.61109   0.32090   0.00000  Uiso   1.00
H288   H     0.44597   0.88545   0.18299   0.00000  Uiso   1.00
C289   C     0.49790   0.61572   0.24874   0.00000  Uiso   1.00
C290   C     0.49821   0.88372   0.25024   0.00000  Uiso   1.00
C291   C     0.50607   0.59194   0.20781   0.00000  Uiso   1.00
C292   C     0.52721   0.90851   0.28753   0.00000  Uiso   1.00
H293   H     0.51403   0.60887   0.17638   0.00000  Uiso   1.00
H294   H     0.55167   0.89242   0.31621   0.00000  Uiso   1.00
C295   C     0.50488   0.54582   0.20757   0.00000  Uiso   1.00
C296   C     0.52620   0.95452   0.28687   0.00000  Uiso   1.00
H297   H     0.51225   0.52751   0.17619   0.00000  Uiso   1.00
H298   H     0.54936   0.97371   0.31552   0.00000  Uiso   1.00
C299   C     0.49545   0.52359   0.24819   0.00000  Uiso   1.00
C300   C     0.49621   0.97556   0.24880   0.00000  Uiso   1.00
C301   C     0.46273   0.72745   0.04567   0.00000  Uiso   1.00
C302   C     0.52146   0.78543   0.45181   0.00000  Uiso   1.00
H303   H     0.43160   0.71038   0.02203   0.00000  Uiso   1.00
H304   H     0.53713   0.81436   0.47298   0.00000  Uiso   1.00
C305   C     0.46172   0.72775   0.09496   0.00000  Uiso   1.00
C306   C     0.52080   0.78554   0.40228   0.00000  Uiso   1.00
N307   N     0.50000   0.74999   0.12623   0.00000  Uiso   1.00
N308   N     0.50000   0.75001   0.37376   0.00000  Uiso   1.00
C309   C     0.53861   0.77253   0.10871   0.00000  Uiso   1.00
C310   C     0.48039   0.71397   0.39410   0.00000  Uiso   1.00
H311   H     0.56795   0.79091   0.13298   0.00000  Uiso   1.00
H312   H     0.46413   0.68590   0.37191   0.00000  Uiso   1.00
C313   C     0.54094   0.77219   0.05947   0.00000  Uiso   1.00
C314   C     0.48151   0.71249   0.44376   0.00000  Uiso   1.00
H315   H     0.57293   0.78963   0.04726   0.00000  Uiso   1.00
H316   H     0.46661   0.68283   0.45846   0.00000  Uiso   1.00
C317   C     0.50259   0.74912   0.02689   0.00000  Uiso   1.00
C318   C     0.50232   0.74871   0.47369   0.00000  Uiso   1.00
N319   N     0.65490   0.72076   0.18981   0.00000  Uiso   1.00
O320   O     0.64957   0.73985   0.14880   0.00000  Uiso   1.00
O321   O     0.63855   0.67979   0.19260   0.00000  Uiso   1.00
N322   N     0.34519   0.78003   0.31066   0.00000  Uiso   1.00
O323   O     0.34362   0.76408   0.35260   0.00000  Uiso   1.00
O324   O     0.36483   0.81980   0.30707   0.00000  Uiso   1.00
N325   N     0.41904   0.70506   0.11097   0.00000  Uiso   1.00
O326   O     0.42800   0.67206   0.13974   0.00000  Uiso   1.00
O327   O     0.37297   0.70735   0.08566   0.00000  Uiso   1.00
N328   N     0.54309   0.82334   0.38270   0.00000  Uiso   1.00
O329   O     0.58452   0.81843   0.36309   0.00000  Uiso   1.00
O330   O     0.53123   0.86320   0.39578   0.00000  Uiso   1.00
O331   O     0.83334   0.68453   0.28974   0.00000  Uiso   1.00
O332   O     0.83333   0.81546   0.21026   0.00000  Uiso   1.00
O333   O     0.83334   0.68453   0.21026   0.00000  Uiso   1.00
O334   O     0.83333   0.81547   0.28974   0.00000  Uiso   1.00
C335   C     0.83293   0.66383   0.24957   0.00000  Uiso   1.00
C336   C     0.83314   0.83599   0.25028   0.00000  Uiso   1.00
O337   O     0.75725   0.75000   0.28044   0.00000  Uiso   1.00
O338   O     0.90942   0.75000   0.21955   0.00000  Uiso   1.00
O339   O     0.75725   0.74999   0.20096   0.00000  Uiso   1.00
O340   O     0.90942   0.75000   0.29903   0.00000  Uiso   1.00
C341   C     0.73386   0.75044   0.23765   0.00000  Uiso   1.00
C342   C     0.93286   0.74976   0.26244   0.00000  Uiso   1.00
Zn343  Zn    0.83333   0.75000   0.30307   0.00000  Uiso   1.00
Zn344  Zn    0.83333   0.74999   0.19693   0.00000  Uiso   1.00
C345   C     0.67931   0.74491   0.23178   0.00000  Uiso   1.00
C346   C     0.98750   0.75565   0.26862   0.00000  Uiso   1.00
C347   C     0.81987   0.54724   0.28879   0.00000  Uiso   1.00
C348   C     0.80073   0.95071   0.21130   0.00000  Uiso   1.00
H349   H     0.81195   0.53006   0.32011   0.00000  Uiso   1.00
H350   H     0.77723   0.96692   0.18193   0.00000  Uiso   1.00
C351   C     0.82115   0.59324   0.28913   0.00000  Uiso   1.00
C352   C     0.80185   0.90468   0.21197   0.00000  Uiso   1.00
H353   H     0.81417   0.61109   0.32090   0.00000  Uiso   1.00
H354   H     0.77930   0.88545   0.18299   0.00000  Uiso   1.00
C355   C     0.83123   0.61572   0.24874   0.00000  Uiso   1.00
C356   C     0.83155   0.88372   0.25024   0.00000  Uiso   1.00
C357   C     0.83941   0.59194   0.20781   0.00000  Uiso   1.00
C358   C     0.86055   0.90851   0.28753   0.00000  Uiso   1.00
H359   H     0.84736   0.60887   0.17638   0.00000  Uiso   1.00
H360   H     0.88500   0.89242   0.31621   0.00000  Uiso   1.00
C361   C     0.83821   0.54582   0.20757   0.00000  Uiso   1.00
C362   C     0.85953   0.95452   0.28687   0.00000  Uiso   1.00
H363   H     0.84559   0.52751   0.17619   0.00000  Uiso   1.00
H364   H     0.88270   0.97371   0.31552   0.00000  Uiso   1.00
C365   C     0.82879   0.52359   0.24819   0.00000  Uiso   1.00
C366   C     0.82954   0.97556   0.24880   0.00000  Uiso   1.00
C367   C     0.79606   0.72745   0.04567   0.00000  Uiso   1.00
C368   C     0.85479   0.78543   0.45181   0.00000  Uiso   1.00
H369   H     0.76493   0.71038   0.02203   0.00000  Uiso   1.00
H370   H     0.87047   0.81436   0.47298   0.00000  Uiso   1.00
C371   C     0.79505   0.72775   0.09496   0.00000  Uiso   1.00
C372   C     0.85413   0.78554   0.40228   0.00000  Uiso   1.00
N373   N     0.83333   0.74999   0.12623   0.00000  Uiso   1.00
N374   N     0.83333   0.75001   0.37376   0.00000  Uiso   1.00
C375   C     0.87194   0.77253   0.10871   0.00000  Uiso   1.00
C376   C     0.81373   0.71397   0.39410   0.00000  Uiso   1.00
H377   H     0.90129   0.79091   0.13298   0.00000  Uiso   1.00
H378   H     0.79746   0.68590   0.37191   0.00000  Uiso   1.00
C379   C     0.87428   0.77219   0.05947   0.00000  Uiso   1.00
C380   C     0.81484   0.71249   0.44376   0.00000  Uiso   1.00
H381   H     0.90626   0.78963   0.04726   0.00000  Uiso   1.00
H382   H     0.79994   0.68283   0.45846   0.00000  Uiso   1.00
C383   C     0.83592   0.74912   0.02689   0.00000  Uiso   1.00
C384   C     0.83565   0.74871   0.47369   0.00000  Uiso   1.00
N385   N     0.98824   0.72076   0.18981   0.00000  Uiso   1.00
O386   O     0.98290   0.73985   0.14880   0.00000  Uiso   1.00
O387   O     0.97188   0.67979   0.19260   0.00000  Uiso   1.00
N388   N     0.67852   0.78003   0.31066   0.00000  Uiso   1.00
O389   O     0.67696   0.76408   0.35260   0.00000  Uiso   1.00
O390   O     0.69817   0.81980   0.30707   0.00000  Uiso   1.00
N391   N     0.75237   0.70506   0.11097   0.00000  Uiso   1.00
O392   O     0.76133   0.67206   0.13974   0.00000  Uiso   1.00
O393   O     0.70631   0.70735   0.08566   0.00000  Uiso   1.00
N394   N     0.87642   0.82334   0.38270   0.00000  Uiso   1.00
O395   O     0.91785   0.81843   0.36309   0.00000  Uiso   1.00
O396   O     0.86456   0.86320   0.39578   0.00000  Uiso   1.00
O397   O     0.16667   0.18453   0.78974   0.00000  Uiso   1.00
O398   O     0.16666   0.31546   0.71026   0.00000  Uiso   1.00
O399   O     0.16667   0.18453   0.71026   0.00000  Uiso   1.00
O400   O     0.16666   0.31547   0.78974   0.00000  Uiso   1.00
C401   C     0.16627   0.16383   0.74957   0.00000  Uiso   1.00
C402   C     0.16648   0.33599   0.75028   0.00000  Uiso   1.00
O403   O     0.09058   0.25000   0.78044   0.00000  Uiso   1.00
O404   O     0.24275   0.25000   0.71955   0.00000  Uiso   1.00
O405   O     0.09058   0.24999   0.70096   0.00000  Uiso   1.00
O406   O     0.24275   0.25000   0.79903   0.00000  Uiso   1.00
C407   C     0.06720   0.25044   0.73765   0.00000  Uiso   1.00
C408   C     0.26619   0.24976   0.76244   0.00000  Uiso   1.00
Zn409  Zn    0.16667   0.25000   0.80307   0.00000  Uiso   1.00
Zn410  Zn    0.16667   0.24999   0.69693   0.00000  Uiso   1.00
C411   C     0.01264   0.24491   0.73178   0.00000  Uiso   1.00
C412   C     0.32083   0.25565   0.76862   0.00000  Uiso   1.00
C413   C     0.15321   0.04724   0.78879   0.00000  Uiso   1.00
C414   C     0.13406   0.45071   0.71130   0.00000  Uiso   1.00
H415   H     0.14528   0.03006   0.82011   0.00000  Uiso   1.00
H416   H     0.11057   0.46692   0.68193   0.00000  Uiso   1.00
C417   C     0.15448   0.09324   0.78913   0.00000  Uiso   1.00
C418   C     0.13518   0.40468   0.71197   0.00000  Uiso   1.00
H419   H     0.14750   0.11109   0.82090   0.00000  Uiso   1.00
H420   H     0.11264   0.38545   0.68299   0.00000  Uiso   1.00
C421   C     0.16456   0.11572   0.74874   0.00000  Uiso   1.00
C422   C     0.16488   0.38372   0.75024   0.00000  Uiso   1.00
C423   C     0.17274   0.09194   0.70781   0.00000  Uiso   1.00
C424   C     0.19388   0.40851   0.78753   0.00000  Uiso   1.00
H425   H     0.18069   0.10887   0.67638   0.00000  Uiso   1.00
H426   H     0.21834   0.39242   0.81621   0.00000  Uiso   1.00
C427   C     0.17154   0.04582   0.70757   0.00000  Uiso   1.00
C428   C     0.19286   0.45452   0.78687   0.00000  Uiso   1.00
H429   H     0.17892   0.02751   0.67619   0.00000  Uiso   1.00
H430   H     0.21603   0.47371   0.81552   0.00000  Uiso   1.00
C431   C     0.16212   0.02359   0.74819   0.00000  Uiso   1.00
C432   C     0.16287   0.47556   0.74880   0.00000  Uiso   1.00
C433   C     0.12939   0.22745   0.54567   0.00000  Uiso   1.00
C434   C     0.18812   0.28543   0.95181   0.00000  Uiso   1.00
H435   H     0.09827   0.21038   0.52203   0.00000  Uiso   1.00
H436   H     0.20380   0.31436   0.97298   0.00000  Uiso   1.00
C437   C     0.12839   0.22775   0.59496   0.00000  Uiso   1.00
C438   C     0.18746   0.28554   0.90228   0.00000  Uiso   1.00
N439   N     0.16667   0.24999   0.62623   0.00000  Uiso   1.00
N440   N     0.16667   0.25001   0.87376   0.00000  Uiso   1.00
C441   C     0.20527   0.27253   0.60871   0.00000  Uiso   1.00
C442   C     0.14706   0.21397   0.89410   0.00000  Uiso   1.00
H443   H     0.23462   0.29091   0.63298   0.00000  Uiso   1.00
H444   H     0.13080   0.18590   0.87191   0.00000  Uiso   1.00
C445   C     0.20761   0.27219   0.55947   0.00000  Uiso   1.00
C446   C     0.14818   0.21249   0.94376   0.00000  Uiso   1.00
H447   H     0.23960   0.28963   0.54726   0.00000  Uiso   1.00
H448   H     0.13327   0.18283   0.95846   0.00000  Uiso   1.00
C449   C     0.16926   0.24912   0.52689   0.00000  Uiso   1.00
C450   C     0.16898   0.24871   0.97369   0.00000  Uiso   1.00
N451   N     0.32157   0.22076   0.68981   0.00000  Uiso   1.00
O452   O     0.31624   0.23985   0.64880   0.00000  Uiso   1.00
O453   O     0.30522   0.17979   0.69260   0.00000  Uiso   1.00
N454   N     0.01186   0.28003   0.81066   0.00000  Uiso   1.00
O455   O     0.01029   0.26408   0.85260   0.00000  Uiso   1.00
O456   O     0.03150   0.31980   0.80707   0.00000  Uiso   1.00
N457   N     0.08571   0.20506   0.61097   0.00000  Uiso   1.00
O458   O     0.09466   0.17206   0.63974   0.00000  Uiso   1.00
O459   O     0.03964   0.20735   0.58566   0.00000  Uiso   1.00
N460   N     0.20975   0.32334   0.88270   0.00000  Uiso   1.00
O461   O     0.25119   0.31843   0.86309   0.00000  Uiso   1.00
O462   O     0.19789   0.36320   0.89578   0.00000  Uiso   1.00
O463   O     0.50000   0.18453   0.78974   0.00000  Uiso   1.00
O464   O     0.50000   0.31546   0.71026   0.00000  Uiso   1.00
O465   O     0.50000   0.18453   0.71026   0.00000  Uiso   1.00
O466   O     0.50000   0.31547   0.78974   0.00000  Uiso   1.00
C467   C     0.49960   0.16383   0.74957   0.00000  Uiso   1.00
C468   C     0.49981   0.33599   0.75028   0.00000  Uiso   1.00
O469   O     0.42392   0.25000   0.78044   0.00000  Uiso   1.00
O470   O     0.57608   0.25000   0.71955   0.00000  Uiso   1.00
O471   O     0.42392   0.24999   0.70096   0.00000  Uiso   1.00
O472   O     0.57608   0.25000   0.79903   0.00000  Uiso   1.00
C473   C     0.40053   0.25044   0.73765   0.00000  Uiso   1.00
C474   C     0.59953   0.24976   0.76244   0.00000  Uiso   1.00
Zn475  Zn    0.50000   0.25000   0.80307   0.00000  Uiso   1.00
Zn476  Zn    0.50000   0.24999   0.69693   0.00000  Uiso   1.00
C477   C     0.34598   0.24491   0.73178   0.00000  Uiso   1.00
C478   C     0.65417   0.25565   0.76862   0.00000  Uiso   1.00
C479   C     0.48654   0.04724   0.78879   0.00000  Uiso   1.00
C480   C     0.46740   0.45071   0.71130   0.00000  Uiso   1.00
H481   H     0.47862   0.03006   0.82011   0.00000  Uiso   1.00
H482   H     0.44390   0.46692   0.68193   0.00000  Uiso   1.00
C483   C     0.48782   0.09324   0.78913   0.00000  Uiso   1.00
C484   C     0.46852   0.40468   0.71197   0.00000  Uiso   1.00
H485   H     0.48083   0.11109   0.82090   0.00000  Uiso   1.00
H486   H     0.44597   0.38545   0.68299   0.00000  Uiso   1.00
C487   C     0.49790   0.11572   0.74874   0.00000  Uiso   1.00
C488   C     0.49821   0.38372   0.75024   0.00000  Uiso   1.00
C489   C     0.50607   0.09194   0.70781   0.00000  Uiso   1.00
C490   C     0.52721   0.40851   0.78753   0.00000  Uiso   1.00
H491   H     0.51403   0.10887   0.67638   0.00000  Uiso   1.00
H492   H     0.55167   0.39242   0.81621   0.00000  Uiso   1.00
C493   C     0.50488   0.04582   0.70757   0.00000  Uiso   1.00
C494   C     0.52620   0.45452   0.78687   0.00000  Uiso   1.00
H495   H     0.51225   0.02751   0.67619   0.00000  Uiso   1.00
H496   H     0.54936   0.47371   0.81552   0.00000  Uiso   1.00
C497   C     0.49545   0.02359   0.74819   0.00000  Uiso   1.00
C498   C     0.49621   0.47556   0.74880   0.00000  Uiso   1.00
C499   C     0.46273   0.22745   0.54567   0.00000  Uiso   1.00
C500   C     0.52146   0.28543   0.95181   0.00000  Uiso   1.00
H501   H     0.43160   0.21038   0.52203   0.00000  Uiso   1.00
H502   H     0.53713   0.31436   0.97298   0.00000  Uiso   1.00
C503   C     0.46172   0.22775   0.59496   0.00000  Uiso   1.00
C504   C     0.52080   0.28554   0.90228   0.00000  Uiso   1.00
N505   N     0.50000   0.24999   0.62623   0.00000  Uiso   1.00
N506   N     0.50000   0.25001   0.87376   0.00000  Uiso   1.00
C507   C     0.53861   0.27253   0.60871   0.00000  Uiso   1.00
C508   C     0.48039   0.21397   0.89410   0.00000  Uiso   1.00
H509   H     0.56795   0.29091   0.63298   0.00000  Uiso   1.00
H510   H     0.46413   0.18590   0.87191   0.00000  Uiso   1.00
C511   C     0.54094   0.27219   0.55947   0.00000  Uiso   1.00
C512   C     0.48151   0.21249   0.94376   0.00000  Uiso   1.00
H513   H     0.57293   0.28963   0.54726   0.00000  Uiso   1.00
H514   H     0.46661   0.18283   0.95846   0.00000  Uiso   1.00
C515   C     0.50259   0.24912   0.52689   0.00000  Uiso   1.00
C516   C     0.50232   0.24871   0.97369   0.00000  Uiso   1.00
N517   N     0.65490   0.22076   0.68981   0.00000  Uiso   1.00
O518   O     0.64957   0.23985   0.64880   0.00000  Uiso   1.00
O519   O     0.63855   0.17979   0.69260   0.00000  Uiso   1.00
N520   N     0.34519   0.28003   0.81066   0.00000  Uiso   1.00
O521   O     0.34362   0.26408   0.85260   0.00000  Uiso   1.00
O522   O     0.36483   0.31980   0.80707   0.00000  Uiso   1.00
N523   N     0.41904   0.20506   0.61097   0.00000  Uiso   1.00
O524   O     0.42800   0.17206   0.63974   0.00000  Uiso   1.00
O525   O     0.37297   0.20735   0.58566   0.00000  Uiso   1.00
N526   N     0.54309   0.32334   0.88270   0.00000  Uiso   1.00
O527   O     0.58452   0.31843   0.86309   0.00000  Uiso   1.00
O528   O     0.53123   0.36320   0.89578   0.00000  Uiso   1.00
O529   O     0.83334   0.18453   0.78974   0.00000  Uiso   1.00
O530   O     0.83333   0.31546   0.71026   0.00000  Uiso   1.00
O531   O     0.83334   0.18453   0.71026   0.00000  Uiso   1.00
O532   O     0.83333   0.31547   0.78974   0.00000  Uiso   1.00
C533   C     0.83293   0.16383   0.74957   0.00000  Uiso   1.00
C534   C     0.83314   0.33599   0.75028   0.00000  Uiso   1.00
O535   O     0.75725   0.25000   0.78044   0.00000  Uiso   1.00
O536   O     0.90942   0.25000   0.71955   0.00000  Uiso   1.00
O537   O     0.75725   0.24999   0.70096   0.00000  Uiso   1.00
O538   O     0.90942   0.25000   0.79903   0.00000  Uiso   1.00
C539   C     0.73386   0.25044   0.73765   0.00000  Uiso   1.00
C540   C     0.93286   0.24976   0.76244   0.00000  Uiso   1.00
Zn541  Zn    0.83333   0.25000   0.80307   0.00000  Uiso   1.00
Zn542  Zn    0.83333   0.24999   0.69693   0.00000  Uiso   1.00
C543   C     0.67931   0.24491   0.73178   0.00000  Uiso   1.00
C544   C     0.98750   0.25565   0.76862   0.00000  Uiso   1.00
C545   C     0.81987   0.04724   0.78879   0.00000  Uiso   1.00
C546   C     0.80073   0.45071   0.71130   0.00000  Uiso   1.00
H547   H     0.81195   0.03006   0.82011   0.00000  Uiso   1.00
H548   H     0.77723   0.46692   0.68193   0.00000  Uiso   1.00
C549   C     0.82115   0.09324   0.78913   0.00000  Uiso   1.00
C550   C     0.80185   0.40468   0.71197   0.00000  Uiso   1.00
H551   H     0.81417   0.11109   0.82090   0.00000  Uiso   1.00
H552   H     0.77930   0.38545   0.68299   0.00000  Uiso   1.00
C553   C     0.83123   0.11572   0.74874   0.00000  Uiso   1.00
C554   C     0.83155   0.38372   0.75024   0.00000  Uiso   1.00
C555   C     0.83941   0.09194   0.70781   0.00000  Uiso   1.00
C556   C     0.86055   0.40851   0.78753   0.00000  Uiso   1.00
H557   H     0.84736   0.10887   0.67638   0.00000  Uiso   1.00
H558   H     0.88500   0.39242   0.81621   0.00000  Uiso   1.00
C559   C     0.83821   0.04582   0.70757   0.00000  Uiso   1.00
C560   C     0.85953   0.45452   0.78687   0.00000  Uiso   1.00
H561   H     0.84559   0.02751   0.67619   0.00000  Uiso   1.00
H562   H     0.88270   0.47371   0.81552   0.00000  Uiso   1.00
C563   C     0.82879   0.02359   0.74819   0.00000  Uiso   1.00
C564   C     0.82954   0.47556   0.74880   0.00000  Uiso   1.00
C565   C     0.79606   0.22745   0.54567   0.00000  Uiso   1.00
C566   C     0.85479   0.28543   0.95181   0.00000  Uiso   1.00
H567   H     0.76493   0.21038   0.52203   0.00000  Uiso   1.00
H568   H     0.87047   0.31436   0.97298   0.00000  Uiso   1.00
C569   C     0.79505   0.22775   0.59496   0.00000  Uiso   1.00
C570   C     0.85413   0.28554   0.90228   0.00000  Uiso   1.00
N571   N     0.83333   0.24999   0.62623   0.00000  Uiso   1.00
N572   N     0.83333   0.25001   0.87376   0.00000  Uiso   1.00
C573   C     0.87194   0.27253   0.60871   0.00000  Uiso   1.00
C574   C     0.81373   0.21397   0.89410   0.00000  Uiso   1.00
H575   H     0.90129   0.29091   0.63298   0.00000  Uiso   1.00
H576   H     0.79746   0.18590   0.87191   0.00000  Uiso   1.00
C577   C     0.87428   0.27219   0.55947   0.00000  Uiso   1.00
C578   C     0.81484   0.21249   0.94376   0.00000  Uiso   1.00
H579   H     0.90626   0.28963   0.54726   0.00000  Uiso   1.00
H580   H     0.79994   0.18283   0.95846   0.00000  Uiso   1.00
C581   C     0.83592   0.24912   0.52689   0.00000  Uiso   1.00
C582   C     0.83565   0.24871   0.97369   0.00000  Uiso   1.00
N583   N     0.98824   0.22076   0.68981   0.00000  Uiso   1.00
O584   O     0.98290   0.23985   0.64880   0.00000  Uiso   1.00
O585   O     0.97188   0.17979   0.69260   0.00000  Uiso   1.00
N586   N     0.67852   0.28003   0.81066   0.00000  Uiso   1.00
O587   O     0.67696   0.26408   0.85260   0.00000  Uiso   1.00
O588   O     0.69817   0.31980   0.80707   0.00000  Uiso   1.00
N589   N     0.75237   0.20506   0.61097   0.00000  Uiso   1.00
O590   O     0.76133   0.17206   0.63974   0.00000  Uiso   1.00
O591   O     0.70631   0.20735   0.58566   0.00000  Uiso   1.00
N592   N     0.87642   0.32334   0.88270   0.00000  Uiso   1.00
O593   O     0.91785   0.31843   0.86309   0.00000  Uiso   1.00
O594   O     0.86456   0.36320   0.89578   0.00000  Uiso   1.00
O595   O     0.16667   0.68453   0.78974   0.00000  Uiso   1.00
O596   O     0.16666   0.81546   0.71026   0.00000  Uiso   1.00
O597   O     0.16667   0.68453   0.71026   0.00000  Uiso   1.00
O598   O     0.16666   0.81547   0.78974   0.00000  Uiso   1.00
C599   C     0.16627   0.66383   0.74957   0.00000  Uiso   1.00
C600   C     0.16648   0.83599   0.75028   0.00000  Uiso   1.00
O601   O     0.09058   0.75000   0.78044   0.00000  Uiso   1.00
O602   O     0.24275   0.75000   0.71955   0.00000  Uiso   1.00
O603   O     0.09058   0.74999   0.70096   0.00000  Uiso   1.00
O604   O     0.24275   0.75000   0.79903   0.00000  Uiso   1.00
C605   C     0.06720   0.75044   0.73765   0.00000  Uiso   1.00
C606   C     0.26619   0.74976   0.76244   0.00000  Uiso   1.00
Zn607  Zn    0.16667   0.75000   0.80307   0.00000  Uiso   1.00
Zn608  Zn    0.16667   0.74999   0.69693   0.00000  Uiso   1.00
C609   C     0.01264   0.74491   0.73178   0.00000  Uiso   1.00
C610   C     0.32083   0.75565   0.76862   0.00000  Uiso   1.00
C611   C     0.15321   0.54724   0.78879   0.00000  Uiso   1.00
C612   C     0.13406   0.95071   0.71130   0.00000  Uiso   1.00
H613   H     0.14528   0.53006   0.82011   0.00000  Uiso   1.00
H614   H     0.11057   0.96692   0.68193   0.00000  Uiso   1.00
C615   C     0.15448   0.59324   0.78913   0.00000  Uiso   1.00
C616   C     0.13518   0.90468   0.71197   0.00000  Uiso   1.00
H617   H     0.14750   0.61109   0.82090   0.00000  Uiso   1.00
H618   H     0.11264   0.88545   0.68299   0.00000  Uiso   1.00
C619   C     0.16456   0.61572   0.74874   0.00000  Uiso   1.00
C620   C     0.16488   0.88372   0.75024   0.00000  Uiso   1.00
C621   C     0.17274   0.59194   0.70781   0.00000  Uiso   1.00
C622   C     0.19388   0.90851   0.78753   0.00000  Uiso   1.00
H623   H     0.18069   0.60887   0.67638   0.00000  Uiso   1.00
H624   H     0.21834   0.89242   0.81621   0.00000  Uiso   1.00
C625   C     0.17154   0.54582   0.70757   0.00000  Uiso   1.00
C626   C     0.19286   0.95452   0.78687   0.00000  Uiso   1.00
H627   H     0.17892   0.52751   0.67619   0.00000  Uiso   1.00
H628   H     0.21603   0.97371   0.81552   0.00000  Uiso   1.00
C629   C     0.16212   0.52359   0.74819   0.00000  Uiso   1.00
C630   C     0.16287   0.97556   0.74880   0.00000  Uiso   1.00
C631   C     0.12939   0.72745   0.54567   0.00000  Uiso   1.00
C632   C     0.18812   0.78543   0.95181   0.00000  Uiso   1.00
H633   H     0.09827   0.71038   0.52203   0.00000  Uiso   1.00
H634   H     0.20380   0.81436   0.97298   0.00000  Uiso   1.00
C635   C     0.12839   0.72775   0.59496   0.00000  Uiso   1.00
C636   C     0.18746   0.78554   0.90228   0.00000  Uiso   1.00
N637   N     0.16667   0.74999   0.62623   0.00000  Uiso   1.00
N638   N     0.16667   0.75001   0.87376   0.00000  Uiso   1.00
C639   C     0.20527   0.77253   0.60871   0.00000  Uiso   1.00
C640   C     0.14706   0.71397   0.89410   0.00000  Uiso   1.00
H641   H     0.23462   0.79091   0.63298   0.00000  Uiso   1.00
H642   H     0.13080   0.68590   0.87191   0.00000  Uiso   1.00
C643   C     0.20761   0.77219   0.55947   0.00000  Uiso   1.00
C644   C     0.14818   0.71249   0.94376   0.00000  Uiso   1.00
H645   H     0.23960   0.78963   0.54726   0.00000  Uiso   1.00
H646   H     0.13327   0.68283   0.95846   0.00000  Uiso   1.00
C647   C     0.16926   0.74912   0.52689   0.00000  Uiso   1.00
C648   C     0.16898   0.74871   0.97369   0.00000  Uiso   1.00
N649   N     0.32157   0.72076   0.68981   0.00000  Uiso   1.00
O650   O     0.31624   0.73985   0.64880   0.00000  Uiso   1.00
O651   O     0.30522   0.67979   0.69260   0.00000  Uiso   1.00
N652   N     0.01186   0.78003   0.81066   0.00000  Uiso   1.00
O653   O     0.01029   0.76408   0.85260   0.00000  Uiso   1.00
O654   O     0.03150   0.81980   0.80707   0.00000  Uiso   1.00
N655   N     0.08571   0.70506   0.61097   0.00000  Uiso   1.00
O656   O     0.09466   0.67206   0.63974   0.00000  Uiso   1.00
O657   O     0.03964   0.70735   0.58566   0.00000  Uiso   1.00
N658   N     0.20975   0.82334   0.88270   0.00000  Uiso   1.00
O659   O     0.25119   0.81843   0.86309   0.00000  Uiso   1.00
O660   O     0.19789   0.86320   0.89578   0.00000  Uiso   1.00
O661   O     0.50000   0.68453   0.78974   0.00000  Uiso   1.00
O662   O     0.50000   0.81546   0.71026   0.00000  Uiso   1.00
O663   O     0.50000   0.68453   0.71026   0.00000  Uiso   1.00
O664   O     0.50000   0.81547   0.78974   0.00000  Uiso   1.00
C665   C     0.49960   0.66383   0.74957   0.00000  Uiso   1.00
C666   C     0.49981   0.83599   0.75028   0.00000  Uiso   1.00
O667   O     0.42392   0.75000   0.78044   0.00000  Uiso   1.00
O668   O     0.57608   0.75000   0.71955   0.00000  Uiso   1.00
O669   O     0.42392   0.74999   0.70096   0.00000  Uiso   1.00
O670   O     0.57608   0.75000   0.79903   0.00000  Uiso   1.00
C671   C     0.40053   0.75044   0.73765   0.00000  Uiso   1.00
C672   C     0.59953   0.74976   0.76244   0.00000  Uiso   1.00
Zn673  Zn    0.50000   0.75000   0.80307   0.00000  Uiso   1.00
Zn674  Zn    0.50000   0.74999   0.69693   0.00000  Uiso   1.00
C675   C     0.34598   0.74491   0.73178   0.00000  Uiso   1.00
C676   C     0.65417   0.75565   0.76862   0.00000  Uiso   1.00
C677   C     0.48654   0.54724   0.78879   0.00000  Uiso   1.00
C678   C     0.46740   0.95071   0.71130   0.00000  Uiso   1.00
H679   H     0.47862   0.53006   0.82011   0.00000  Uiso   1.00
H680   H     0.44390   0.96692   0.68193   0.00000  Uiso   1.00
C681   C     0.48782   0.59324   0.78913   0.00000  Uiso   1.00
C682   C     0.46852   0.90468   0.71197   0.00000  Uiso   1.00
H683   H     0.48083   0.61109   0.82090   0.00000  Uiso   1.00
H684   H     0.44597   0.88545   0.68299   0.00000  Uiso   1.00
C685   C     0.49790   0.61572   0.74874   0.00000  Uiso   1.00
C686   C     0.49821   0.88372   0.75024   0.00000  Uiso   1.00
C687   C     0.50607   0.59194   0.70781   0.00000  Uiso   1.00
C688   C     0.52721   0.90851   0.78753   0.00000  Uiso   1.00
H689   H     0.51403   0.60887   0.67638   0.00000  Uiso   1.00
H690   H     0.55167   0.89242   0.81621   0.00000  Uiso   1.00
C691   C     0.50488   0.54582   0.70757   0.00000  Uiso   1.00
C692   C     0.52620   0.95452   0.78687   0.00000  Uiso   1.00
H693   H     0.51225   0.52751   0.67619   0.00000  Uiso   1.00
H694   H     0.54936   0.97371   0.81552   0.00000  Uiso   1.00
C695   C     0.49545   0.52359   0.74819   0.00000  Uiso   1.00
C696   C     0.49621   0.97556   0.74880   0.00000  Uiso   1.00
C697   C     0.46273   0.72745   0.54567   0.00000  Uiso   1.00
C698   C     0.52146   0.78543   0.95181   0.00000  Uiso   1.00
H699   H     0.43160   0.71038   0.52203   0.00000  Uiso   1.00
H700   H     0.53713   0.81436   0.97298   0.00000  Uiso   1.00
C701   C     0.46172   0.72775   0.59496   0.00000  Uiso   1.00
C702   C     0.52080   0.78554   0.90228   0.00000  Uiso   1.00
N703   N     0.50000   0.74999   0.62623   0.00000  Uiso   1.00
N704   N     0.50000   0.75001   0.87376   0.00000  Uiso   1.00
C705   C     0.53861   0.77253   0.60871   0.00000  Uiso   1.00
C706   C     0.48039   0.71397   0.89410   0.00000  Uiso   1.00
H707   H     0.56795   0.79091   0.63298   0.00000  Uiso   1.00
H708   H     0.46413   0.68590   0.87191   0.00000  Uiso   1.00
C709   C     0.54094   0.77219   0.55947   0.00000  Uiso   1.00
C710   C     0.48151   0.71249   0.94376   0.00000  Uiso   1.00
H711   H     0.57293   0.78963   0.54726   0.00000  Uiso   1.00
H712   H     0.46661   0.68283   0.95846   0.00000  Uiso   1.00
C713   C     0.50259   0.74912   0.52689   0.00000  Uiso   1.00
C714   C     0.50232   0.74871   0.97369   0.00000  Uiso   1.00
N715   N     0.65490   0.72076   0.68981   0.00000  Uiso   1.00
O716   O     0.64957   0.73985   0.64880   0.00000  Uiso   1.00
O717   O     0.63855   0.67979   0.69260   0.00000  Uiso   1.00
N718   N     0.34519   0.78003   0.81066   0.00000  Uiso   1.00
O719   O     0.34362   0.76408   0.85260   0.00000  Uiso   1.00
O720   O     0.36483   0.81980   0.80707   0.00000  Uiso   1.00
N721   N     0.41904   0.70506   0.61097   0.00000  Uiso   1.00
O722   O     0.42800   0.67206   0.63974   0.00000  Uiso   1.00
O723   O     0.37297   0.70735   0.58566   0.00000  Uiso   1.00
N724   N     0.54309   0.82334   0.88270   0.00000  Uiso   1.00
O725   O     0.58452   0.81843   0.86309   0.00000  Uiso   1.00
O726   O     0.53123   0.86320   0.89578   0.00000  Uiso   1.00
O727   O     0.83334   0.68453   0.78974   0.00000  Uiso   1.00
O728   O     0.83333   0.81546   0.71026   0.00000  Uiso   1.00
O729   O     0.83334   0.68453   0.71026   0.00000  Uiso   1.00
O730   O     0.83333   0.81547   0.78974   0.00000  Uiso   1.00
C731   C     0.83293   0.66383   0.74957   0.00000  Uiso   1.00
C732   C     0.83314   0.83599   0.75028   0.00000  Uiso   1.00
O733   O     0.75725   0.75000   0.78044   0.00000  Uiso   1.00
O734   O     0.90942   0.75000   0.71955   0.00000  Uiso   1.00
O735   O     0.75725   0.74999   0.70096   0.00000  Uiso   1.00
O736   O     0.90942   0.75000   0.79903   0.00000  Uiso   1.00
C737   C     0.73386   0.75044   0.73765   0.00000  Uiso   1.00
C738   C     0.93286   0.74976   0.76244   0.00000  Uiso   1.00
Zn739  Zn    0.83333   0.75000   0.80307   0.00000  Uiso   1.00
Zn740  Zn    0.83333   0.74999   0.69693   0.00000  Uiso   1.00
C741   C     0.67931   0.74491   0.73178   0.00000  Uiso   1.00
C742   C     0.98750   0.75565   0.76862   0.00000  Uiso   1.00
C743   C     0.81987   0.54724   0.78879   0.00000  Uiso   1.00
C744   C     0.80073   0.95071   0.71130   0.00000  Uiso   1.00
H745   H     0.81195   0.53006   0.82011   0.00000  Uiso   1.00
H746   H     0.77723   0.96692   0.68193   0.00000  Uiso   1.00
C747   C     0.82115   0.59324   0.78913   0.00000  Uiso   1.00
C748   C     0.80185   0.90468   0.71197   0.00000  Uiso   1.00
H749   H     0.81417   0.61109   0.82090   0.00000  Uiso   1.00
H750   H     0.77930   0.88545   0.68299   0.00000  Uiso   1.00
C751   C     0.83123   0.61572   0.74874   0.00000  Uiso   1.00
C752   C     0.83155   0.88372   0.75024   0.00000  Uiso   1.00
C753   C     0.83941   0.59194   0.70781   0.00000  Uiso   1.00
C754   C     0.86055   0.90851   0.78753   0.00000  Uiso   1.00
H755   H     0.84736   0.60887   0.67638   0.00000  Uiso   1.00
H756   H     0.88500   0.89242   0.81621   0.00000  Uiso   1.00
C757   C     0.83821   0.54582   0.70757   0.00000  Uiso   1.00
C758   C     0.85953   0.95452   0.78687   0.00000  Uiso   1.00
H759   H     0.84559   0.52751   0.67619   0.00000  Uiso   1.00
H760   H     0.88270   0.97371   0.81552   0.00000  Uiso   1.00
C761   C     0.82879   0.52359   0.74819   0.00000  Uiso   1.00
C762   C     0.82954   0.97556   0.74880   0.00000  Uiso   1.00
C763   C     0.79606   0.72745   0.54567   0.00000  Uiso   1.00
C764   C     0.85479   0.78543   0.95181   0.00000  Uiso   1.00
H765   H     0.76493   0.71038   0.52203   0.00000  Uiso   1.00
H766   H     0.87047   0.81436   0.97298   0.00000  Uiso   1.00
C767   C     0.79505   0.72775   0.59496   0.00000  Uiso   1.00
C768   C     0.85413   0.78554   0.90228   0.00000  Uiso   1.00
N769   N     0.83333   0.74999   0.62623   0.00000  Uiso   1.00
N770   N     0.83333   0.75001   0.87376   0.00000  Uiso   1.00
C771   C     0.87194   0.77253   0.60871   0.00000  Uiso   1.00
C772   C     0.81373   0.71397   0.89410   0.00000  Uiso   1.00
H773   H     0.90129   0.79091   0.63298   0.00000  Uiso   1.00
H774   H     0.79746   0.68590   0.87191   0.00000  Uiso   1.00
C775   C     0.87428   0.77219   0.55947   0.00000  Uiso   1.00
C776   C     0.81484   0.71249   0.94376   0.00000  Uiso   1.00
H777   H     0.90626   0.78963   0.54726   0.00000  Uiso   1.00
H778   H     0.79994   0.68283   0.95846   0.00000  Uiso   1.00
C779   C     0.83592   0.74912   0.52689   0.00000  Uiso   1.00
C780   C     0.83565   0.74871   0.97369   0.00000  Uiso   1.00
N781   N     0.98824   0.72076   0.68981   0.00000  Uiso   1.00
O782   O     0.98290   0.73985   0.64880   0.00000  Uiso   1.00
O783   O     0.97188   0.67979   0.69260   0.00000  Uiso   1.00
N784   N     0.67852   0.78003   0.81066   0.00000  Uiso   1.00
O785   O     0.67696   0.76408   0.85260   0.00000  Uiso   1.00
O786   O     0.69817   0.81980   0.80707   0.00000  Uiso   1.00
N787   N     0.75237   0.70506   0.61097   0.00000  Uiso   1.00
O788   O     0.76133   0.67206   0.63974   0.00000  Uiso   1.00
O789   O     0.70631   0.70735   0.58566   0.00000  Uiso   1.00
N790   N     0.87642   0.82334   0.88270   0.00000  Uiso   1.00
O791   O     0.91785   0.81843   0.86309   0.00000  Uiso   1.00
O792   O     0.86456   0.86320   0.89578   0.00000  Uiso   1.00
loop_
_geom_bond_atom_site_label_1
_geom_bond_atom_site_label_2
_geom_bond_distance
_geom_bond_site_symmetry_2
_ccdc_geom_bond_type
O1     C5      1.289   .     A
O1     Zn13    1.992   .     S
O2     Zn14    1.992   .     S
O2     C6      1.285   .     A
O3     Zn14    2.006   .     S
O3     C5      1.292   .     A
O4     C6      1.291   .     A
O4     Zn13    2.006   .     S
C5     C25     1.442   .     S
C6     C26     1.432   .     S
O7     Zn13    1.983   .     S
O7     C11     1.273   .     A
O8     C12     1.276   .     A
O8     Zn14    1.983   .     S
O9     Zn14    2.001   .     S
O9     C11     1.289   .     A
O10    C12     1.287   .     A
O10    Zn13    2.001   .     S
C11    C15     1.410   .     S
C12    C16     1.413   .     S
Zn13   N44     2.012   .     S
Zn14   N43     2.012   .     S
C15    C148    1.357   1_455 S
C15    N187    1.437   1_455 S
C16    C81     1.357   .     S
C16    N124    1.442   .     S
C17    H19     1.084   .     S
C17    C35     1.397   .     A
C17    C21     1.379   .     A
C18    H20     1.084   .     S
C18    C22     1.381   .     A
C18    C36     1.398   .     A
C21    H23     1.083   .     S
C21    C25     1.401   .     A
C22    H24     1.084   .     S
C22    C26     1.399   .     A
C25    C27     1.400   .     A
C26    C28     1.395   .     A
C27    C31     1.382   .     A
C27    H29     1.083   .     S
C28    H30     1.080   .     S
C28    C32     1.380   .     A
C31    H33     1.084   .     S
C31    C35     1.398   .     A
C32    C36     1.399   .     A
C32    H34     1.084   .     S
C35    C234    1.441   1_545 S
C36    C233    1.441   .     S
C37    C53     1.396   .     A
C37    H39     1.082   .     S
C37    C41     1.407   .     A
C38    C54     1.398   .     A
C38    H40     1.082   .     S
C38    C42     1.407   .     A
C41    N61     1.432   .     S
C41    N43     1.380   .     A
C42    N44     1.376   .     A
C42    N64     1.427   .     S
N43    C45     1.365   .     A
N44    C46     1.365   .     A
C45    C49     1.412   .     A
C45    H47     1.081   .     S
C46    C50     1.411   .     A
C46    H48     1.081   .     S
C49    C53     1.412   .     A
C49    H51     1.082   .     S
C50    H52     1.082   .     S
C50    C54     1.413   .     A
C53    C450    1.513   1_554 S
C54    C449    1.513   .     S
N55    O56     1.299   .     A
N55    O57     1.301   .     A
N55    C81     1.437   .     S
N58    O60     1.302   .     A
N58    O59     1.301   .     A
N58    C148    1.442   1_455 S
N61    O62     1.297   .     A
N61    O63     1.301   .     A
N64    O65     1.299   .     A
N64    O66     1.301   .     A
O67    C71     1.289   .     A
O67    Zn79    1.992   .     S
O68    Zn80    1.992   .     S
O68    C72     1.285   .     A
O69    Zn80    2.006   .     S
O69    C71     1.292   .     A
O70    C72     1.291   .     A
O70    Zn79    2.006   .     S
C71    C91     1.442   .     S
C72    C92     1.432   .     S
O73    Zn79    1.983   .     S
O73    C77     1.273   .     A
O74    C78     1.276   .     A
O74    Zn80    1.983   .     S
O75    Zn80    2.001   .     S
O75    C77     1.289   .     A
O76    C78     1.287   .     A
O76    Zn79    2.001   .     S
C77    C81     1.410   .     S
C78    C82     1.413   .     S
Zn79   N110    2.012   .     S
Zn80   N109    2.012   .     S
C82    C147    1.357   .     S
C82    N190    1.442   .     S
C83    H85     1.084   .     S
C83    C101    1.397   .     A
C83    C87     1.379   .     A
C84    H86     1.084   .     S
C84    C88     1.381   .     A
C84    C102    1.398   .     A
C87    H89     1.083   .     S
C87    C91     1.401   .     A
C88    H90     1.084   .     S
C88    C92     1.399   .     A
C91    C93     1.400   .     A
C92    C94     1.395   .     A
C93    C97     1.382   .     A
C93    H95     1.083   .     S
C94    H96     1.080   .     S
C94    C98     1.380   .     A
C97    H99     1.084   .     S
C97    C101    1.398   .     A
C98    C102    1.399   .     A
C98    H100    1.084   .     S
C101   C300    1.441   1_545 S
C102   C299    1.441   .     S
C103   C119    1.396   .     A
C103   H105    1.082   .     S
C103   C107    1.407   .     A
C104   C120    1.398   .     A
C104   H106    1.082   .     S
C104   C108    1.407   .     A
C107   N127    1.432   .     S
C107   N109    1.380   .     A
C108   N110    1.376   .     A
C108   N130    1.427   .     S
N109   C111    1.365   .     A
N110   C112    1.365   .     A
C111   C115    1.412   .     A
C111   H113    1.081   .     S
C112   C116    1.411   .     A
C112   H114    1.081   .     S
C115   C119    1.412   .     A
C115   H117    1.082   .     S
C116   H118    1.082   .     S
C116   C120    1.413   .     A
C119   C516    1.513   1_554 S
C120   C515    1.513   .     S
N121   O122    1.299   .     A
N121   O123    1.301   .     A
N121   C147    1.437   .     S
N124   O126    1.302   .     A
N124   O125    1.301   .     A
N127   O128    1.297   .     A
N127   O129    1.301   .     A
N130   O131    1.299   .     A
N130   O132    1.301   .     A
O133   C137    1.289   .     A
O133   Zn145   1.992   .     S
O134   Zn146   1.992   .     S
O134   C138    1.285   .     A
O135   Zn146   2.006   .     S
O135   C137    1.292   .     A
O136   C138    1.291   .     A
O136   Zn145   2.006   .     S
C137   C157    1.442   .     S
C138   C158    1.432   .     S
O139   Zn145   1.983   .     S
O139   C143    1.273   .     A
O140   C144    1.276   .     A
O140   Zn146   1.983   .     S
O141   Zn146   2.001   .     S
O141   C143    1.289   .     A
O142   C144    1.287   .     A
O142   Zn145   2.001   .     S
C143   C147    1.410   .     S
C144   C148    1.413   .     S
Zn145  N176    2.012   .     S
Zn146  N175    2.012   .     S
C148   C15     1.357   1_655 S
C148   N58     1.442   1_655 S
C149   H151    1.084   .     S
C149   C167    1.397   .     A
C149   C153    1.379   .     A
C150   H152    1.084   .     S
C150   C154    1.381   .     A
C150   C168    1.398   .     A
C153   H155    1.083   .     S
C153   C157    1.401   .     A
C154   H156    1.084   .     S
C154   C158    1.399   .     A
C157   C159    1.400   .     A
C158   C160    1.395   .     A
C159   C163    1.382   .     A
C159   H161    1.083   .     S
C160   H162    1.080   .     S
C160   C164    1.380   .     A
C163   H165    1.084   .     S
C163   C167    1.398   .     A
C164   C168    1.399   .     A
C164   H166    1.084   .     S
C167   C366    1.441   1_545 S
C168   C365    1.441   .     S
C169   C185    1.396   .     A
C169   H171    1.082   .     S
C169   C173    1.407   .     A
C170   C186    1.398   .     A
C170   H172    1.082   .     S
C170   C174    1.407   .     A
C173   N193    1.432   .     S
C173   N175    1.380   .     A
C174   N176    1.376   .     A
C174   N196    1.427   .     S
N175   C177    1.365   .     A
N176   C178    1.365   .     A
C177   C181    1.412   .     A
C177   H179    1.081   .     S
C178   C182    1.411   .     A
C178   H180    1.081   .     S
C181   C185    1.412   .     A
C181   H183    1.082   .     S
C182   H184    1.082   .     S
C182   C186    1.413   .     A
C185   C582    1.513   1_554 S
C186   C581    1.513   .     S
N187   O188    1.299   .     A
N187   O189    1.301   .     A
N187   C15     1.437   1_655 S
N190   O192    1.302   .     A
N190   O191    1.301   .     A
N193   O194    1.297   .     A
N193   O195    1.301   .     A
N196   O197    1.299   .     A
N196   O198    1.301   .     A
O199   C203    1.289   .     A
O199   Zn211   1.992   .     S
O200   Zn212   1.992   .     S
O200   C204    1.285   .     A
O201   Zn212   2.006   .     S
O201   C203    1.292   .     A
O202   C204    1.291   .     A
O202   Zn211   2.006   .     S
C203   C223    1.442   .     S
C204   C224    1.432   .     S
O205   Zn211   1.983   .     S
O205   C209    1.273   .     A
O206   C210    1.276   .     A
O206   Zn212   1.983   .     S
O207   Zn212   2.001   .     S
O207   C209    1.289   .     A
O208   C210    1.287   .     A
O208   Zn211   2.001   .     S
C209   C213    1.410   .     S
C210   C214    1.413   .     S
Zn211  N242    2.012   .     S
Zn212  N241    2.012   .     S
C213   C346    1.357   1_455 S
C213   N385    1.437   1_455 S
C214   C279    1.357   .     S
C214   N322    1.442   .     S
C215   H217    1.084   .     S
C215   C233    1.397   .     A
C215   C219    1.379   .     A
C216   H218    1.084   .     S
C216   C220    1.381   .     A
C216   C234    1.398   .     A
C219   H221    1.083   .     S
C219   C223    1.401   .     A
C220   H222    1.084   .     S
C220   C224    1.399   .     A
C223   C225    1.400   .     A
C224   C226    1.395   .     A
C225   C229    1.382   .     A
C225   H227    1.083   .     S
C226   H228    1.080   .     S
C226   C230    1.380   .     A
C229   H231    1.084   .     S
C229   C233    1.398   .     A
C230   C234    1.399   .     A
C230   H232    1.084   .     S
C234   C35     1.441   1_565 S
C235   C251    1.396   .     A
C235   H237    1.082   .     S
C235   C239    1.407   .     A
C236   C252    1.398   .     A
C236   H238    1.082   .     S
C236   C240    1.407   .     A
C239   N259    1.432   .     S
C239   N241    1.380   .     A
C240   N242    1.376   .     A
C240   N262    1.427   .     S
N241   C243    1.365   .     A
N242   C244    1.365   .     A
C243   C247    1.412   .     A
C243   H245    1.081   .     S
C244   C248    1.411   .     A
C244   H246    1.081   .     S
C247   C251    1.412   .     A
C247   H249    1.082   .     S
C248   H250    1.082   .     S
C248   C252    1.413   .     A
C251   C648    1.513   1_554 S
C252   C647    1.513   .     S
N253   O254    1.299   .     A
N253   O255    1.301   .     A
N253   C279    1.437   .     S
N256   O258    1.302   .     A
N256   O257    1.301   .     A
N256   C346    1.442   1_455 S
N259   O260    1.297   .     A
N259   O261    1.301   .     A
N262   O263    1.299   .     A
N262   O264    1.301   .     A
O265   C269    1.289   .     A
O265   Zn277   1.992   .     S
O266   Zn278   1.992   .     S
O266   C270    1.285   .     A
O267   Zn278   2.006   .     S
O267   C269    1.292   .     A
O268   C270    1.291   .     A
O268   Zn277   2.006   .     S
C269   C289    1.442   .     S
C270   C290    1.432   .     S
O271   Zn277   1.983   .     S
O271   C275    1.273   .     A
O272   C276    1.276   .     A
O272   Zn278   1.983   .     S
O273   Zn278   2.001   .     S
O273   C275    1.289   .     A
O274   C276    1.287   .     A
O274   Zn277   2.001   .     S
C275   C279    1.410   .     S
C276   C280    1.413   .     S
Zn277  N308    2.012   .     S
Zn278  N307    2.012   .     S
C280   C345    1.357   .     S
C280   N388    1.442   .     S
C281   H283    1.084   .     S
C281   C299    1.397   .     A
C281   C285    1.379   .     A
C282   H284    1.084   .     S
C282   C286    1.381   .     A
C282   C300    1.398   .     A
C285   H287    1.083   .     S
C285   C289    1.401   .     A
C286   H288    1.084   .     S
C286   C290    1.399   .     A
C289   C291    1.400   .     A
C290   C292    1.395   .     A
C291   C295    1.382   .     A
C291   H293    1.083   .     S
C292   H294    1.080   .     S
C292   C296    1.380   .     A
C295   H297    1.084   .     S
C295   C299    1.398   .     A
C296   C300    1.399   .     A
C296   H298    1.084   .     S
C300   C101    1.441   1_565 S
C301   C317    1.396   .     A
C301   H303    1.082   .     S
C301   C305    1.407   .     A
C302   C318    1.398   .     A
C302   H304    1.082   .     S
C302   C306    1.407   .     A
C305   N325    1.432   .     S
C305   N307    1.380   .     A
C306   N308    1.376   .     A
C306   N328    1.427   .     S
N307   C309    1.365   .     A
N308   C310    1.365   .     A
C309   C313    1.412   .     A
C309   H311    1.081   .     S
C310   C314    1.411   .     A
C310   H312    1.081   .     S
C313   C317    1.412   .     A
C313   H315    1.082   .     S
C314   H316    1.082   .     S
C314   C318    1.413   .     A
C317   C714    1.513   1_554 S
C318   C713    1.513   .     S
N319   O320    1.299   .     A
N319   O321    1.301   .     A
N319   C345    1.437   .     S
N322   O324    1.302   .     A
N322   O323    1.301   .     A
N325   O326    1.297   .     A
N325   O327    1.301   .     A
N328   O329    1.299   .     A
N328   O330    1.301   .     A
O331   C335    1.289   .     A
O331   Zn343   1.992   .     S
O332   Zn344   1.992   .     S
O332   C336    1.285   .     A
O333   Zn344   2.006   .     S
O333   C335    1.292   .     A
O334   C336    1.291   .     A
O334   Zn343   2.006   .     S
C335   C355    1.442   .     S
C336   C356    1.432   .     S
O337   Zn343   1.983   .     S
O337   C341    1.273   .     A
O338   C342    1.276   .     A
O338   Zn344   1.983   .     S
O339   Zn344   2.001   .     S
O339   C341    1.289   .     A
O340   C342    1.287   .     A
O340   Zn343   2.001   .     S
C341   C345    1.410   .     S
C342   C346    1.413   .     S
Zn343  N374    2.012   .     S
Zn344  N373    2.012   .     S
C346   C213    1.357   1_655 S
C346   N256    1.442   1_655 S
C347   H349    1.084   .     S
C347   C365    1.397   .     A
C347   C351    1.379   .     A
C348   H350    1.084   .     S
C348   C352    1.381   .     A
C348   C366    1.398   .     A
C351   H353    1.083   .     S
C351   C355    1.401   .     A
C352   H354    1.084   .     S
C352   C356    1.399   .     A
C355   C357    1.400   .     A
C356   C358    1.395   .     A
C357   C361    1.382   .     A
C357   H359    1.083   .     S
C358   H360    1.080   .     S
C358   C362    1.380   .     A
C361   H363    1.084   .     S
C361   C365    1.398   .     A
C362   C366    1.399   .     A
C362   H364    1.084   .     S
C366   C167    1.441   1_565 S
C367   C383    1.396   .     A
C367   H369    1.082   .     S
C367   C371    1.407   .     A
C368   C384    1.398   .     A
C368   H370    1.082   .     S
C368   C372    1.407   .     A
C371   N391    1.432   .     S
C371   N373    1.380   .     A
C372   N374    1.376   .     A
C372   N394    1.427   .     S
N373   C375    1.365   .     A
N374   C376    1.365   .     A
C375   C379    1.412   .     A
C375   H377    1.081   .     S
C376   C380    1.411   .     A
C376   H378    1.081   .     S
C379   C383    1.412   .     A
C379   H381    1.082   .     S
C380   H382    1.082   .     S
C380   C384    1.413   .     A
C383   C780    1.513   1_554 S
C384   C779    1.513   .     S
N385   O386    1.299   .     A
N385   O387    1.301   .     A
N385   C213    1.437   1_655 S
N388   O390    1.302   .     A
N388   O389    1.301   .     A
N391   O392    1.297   .     A
N391   O393    1.301   .     A
N394   O395    1.299   .     A
N394   O396    1.301   .     A
O397   C401    1.289   .     A
O397   Zn409   1.992   .     S
O398   Zn410   1.992   .     S
O398   C402    1.285   .     A
O399   Zn410   2.006   .     S
O399   C401    1.292   .     A
O400   C402    1.291   .     A
O400   Zn409   2.006   .     S
C401   C421    1.442   .     S
C402   C422    1.432   .     S
O403   Zn409   1.983   .     S
O403   C407    1.273   .     A
O404   C408    1.276   .     A
O404   Zn410   1.983   .     S
O405   Zn410   2.001   .     S
O405   C407    1.289   .     A
O406   C408    1.287   .     A
O406   Zn409   2.001   .     S
C407   C411    1.410   .     S
C408   C412    1.413   .     S
Zn409  N440    2.012   .     S
Zn410  N439    2.012   .     S
C411   C544    1.357   1_455 S
C411   N583    1.437   1_455 S
C412   C477    1.357   .     S
C412   N520    1.442   .     S
C413   H415    1.084   .     S
C413   C431    1.397   .     A
C413   C417    1.379   .     A
C414   H416    1.084   .     S
C414   C418    1.381   .     A
C414   C432    1.398   .     A
C417   H419    1.083   .     S
C417   C421    1.401   .     A
C418   H420    1.084   .     S
C418   C422    1.399   .     A
C421   C423    1.400   .     A
C422   C424    1.395   .     A
C423   C427    1.382   .     A
C423   H425    1.083   .     S
C424   H426    1.080   .     S
C424   C428    1.380   .     A
C427   H429    1.084   .     S
C427   C431    1.398   .     A
C428   C432    1.399   .     A
C428   H430    1.084   .     S
C431   C630    1.441   1_545 S
C432   C629    1.441   .     S
C433   C449    1.396   .     A
C433   H435    1.082   .     S
C433   C437    1.407   .     A
C434   C450    1.398   .     A
C434   H436    1.082   .     S
C434   C438    1.407   .     A
C437   N457    1.432   .     S
C437   N439    1.380   .     A
C438   N440    1.376   .     A
C438   N460    1.427   .     S
N439   C441    1.365   .     A
N440   C442    1.365   .     A
C441   C445    1.412   .     A
C441   H443    1.081   .     S
C442   C446    1.411   .     A
C442   H444    1.081   .     S
C445   C449    1.412   .     A
C445   H447    1.082   .     S
C446   H448    1.082   .     S
C446   C450    1.413   .     A
C450   C53     1.513   1_556 S
N451   O452    1.299   .     A
N451   O453    1.301   .     A
N451   C477    1.437   .     S
N454   O456    1.302   .     A
N454   O455    1.301   .     A
N454   C544    1.442   1_455 S
N457   O458    1.297   .     A
N457   O459    1.301   .     A
N460   O461    1.299   .     A
N460   O462    1.301   .     A
O463   C467    1.289   .     A
O463   Zn475   1.992   .     S
O464   Zn476   1.992   .     S
O464   C468    1.285   .     A
O465   Zn476   2.006   .     S
O465   C467    1.292   .     A
O466   C468    1.291   .     A
O466   Zn475   2.006   .     S
C467   C487    1.442   .     S
C468   C488    1.432   .     S
O469   Zn475   1.983   .     S
O469   C473    1.273   .     A
O470   C474    1.276   .     A
O470   Zn476   1.983   .     S
O471   Zn476   2.001   .     S
O471   C473    1.289   .     A
O472   C474    1.287   .     A
O472   Zn475   2.001   .     S
C473   C477    1.410   .     S
C474   C478    1.413   .     S
Zn475  N506    2.012   .     S
Zn476  N505    2.012   .     S
C478   C543    1.357   .     S
C478   N586    1.442   .     S
C479   H481    1.084   .     S
C479   C497    1.397   .     A
C479   C483    1.379   .     A
C480   H482    1.084   .     S
C480   C484    1.381   .     A
C480   C498    1.398   .     A
C483   H485    1.083   .     S
C483   C487    1.401   .     A
C484   H486    1.084   .     S
C484   C488    1.399   .     A
C487   C489    1.400   .     A
C488   C490    1.395   .     A
C489   C493    1.382   .     A
C489   H491    1.083   .     S
C490   H492    1.080   .     S
C490   C494    1.380   .     A
C493   H495    1.084   .     S
C493   C497    1.398   .     A
C494   C498    1.399   .     A
C494   H496    1.084   .     S
C497   C696    1.441   1_545 S
C498   C695    1.441   .     S
C499   C515    1.396   .     A
C499   H501    1.082   .     S
C499   C503    1.407   .     A
C500   C516    1.398   .     A
C500   H502    1.082   .     S
C500   C504    1.407   .     A
C503   N523    1.432   .     S
C503   N505    1.380   .     A
C504   N506    1.376   .     A
C504   N526    1.427   .     S
N505   C507    1.365   .     A
N506   C508    1.365   .     A
C507   C511    1.412   .     A
C507   H509    1.081   .     S
C508   C512    1.411   .     A
C508   H510    1.081   .     S
C511   C515    1.412   .     A
C511   H513    1.082   .     S
C512   H514    1.082   .     S
C512   C516    1.413   .     A
C516   C119    1.513   1_556 S
N517   O518    1.299   .     A
N517   O519    1.301   .     A
N517   C543    1.437   .     S
N520   O522    1.302   .     A
N520   O521    1.301   .     A
N523   O524    1.297   .     A
N523   O525    1.301   .     A
N526   O527    1.299   .     A
N526   O528    1.301   .     A
O529   C533    1.289   .     A
O529   Zn541   1.992   .     S
O530   Zn542   1.992   .     S
O530   C534    1.285   .     A
O531   Zn542   2.006   .     S
O531   C533    1.292   .     A
O532   C534    1.291   .     A
O532   Zn541   2.006   .     S
C533   C553    1.442   .     S
C534   C554    1.432   .     S
O535   Zn541   1.983   .     S
O535   C539    1.273   .     A
O536   C540    1.276   .     A
O536   Zn542   1.983   .     S
O537   Zn542   2.001   .     S
O537   C539    1.289   .     A
O538   C540    1.287   .     A
O538   Zn541   2.001   .     S
C539   C543    1.410   .     S
C540   C544    1.413   .     S
Zn541  N572    2.012   .     S
Zn542  N571    2.012   .     S
C544   C411    1.357   1_655 S
C544   N454    1.442   1_655 S
C545   H547    1.084   .     S
C545   C563    1.397   .     A
C545   C549    1.379   .     A
C546   H548    1.084   .     S
C546   C550    1.381   .     A
C546   C564    1.398   .     A
C549   H551    1.083   .     S
C549   C553    1.401   .     A
C550   H552    1.084   .     S
C550   C554    1.399   .     A
C553   C555    1.400   .     A
C554   C556    1.395   .     A
C555   C559    1.382   .     A
C555   H557    1.083   .     S
C556   H558    1.080   .     S
C556   C560    1.380   .     A
C559   H561    1.084   .     S
C559   C563    1.398   .     A
C560   C564    1.399   .     A
C560   H562    1.084   .     S
C563   C762    1.441   1_545 S
C564   C761    1.441   .     S
C565   C581    1.396   .     A
C565   H567    1.082   .     S
C565   C569    1.407   .     A
C566   C582    1.398   .     A
C566   H568    1.082   .     S
C566   C570    1.407   .     A
C569   N589    1.432   .     S
C569   N571    1.380   .     A
C570   N572    1.376   .     A
C570   N592    1.427   .     S
N571   C573    1.365   .     A
N572   C574    1.365   .     A
C573   C577    1.412   .     A
C573   H575    1.081   .     S
C574   C578    1.411   .     A
C574   H576    1.081   .     S
C577   C581    1.412   .     A
C577   H579    1.082   .     S
C578   H580    1.082   .     S
C578   C582    1.413   .     A
C582   C185    1.513   1_556 S
N583   O584    1.299   .     A
N583   O585    1.301   .     A
N583   C411    1.437   1_655 S
N586   O588    1.302   .     A
N586   O587    1.301   .     A
N589   O590    1.297   .     A
N589   O591    1.301   .     A
N592   O593    1.299   .     A
N592   O594    1.301   .     A
O595   C599    1.289   .     A
O595   Zn607   1.992   .     S
O596   Zn608   1.992   .     S
O596   C600    1.285   .     A
O597   Zn608   2.006   .     S
O597   C599    1.292   .     A
O598   C600    1.291   .     A
O598   Zn607   2.006   .     S
C599   C619    1.442   .     S
C600   C620    1.432   .     S
O601   Zn607   1.983   .     S
O601   C605    1.273   .     A
O602   C606    1.276   .     A
O602   Zn608   1.983   .     S
O603   Zn608   2.001   .     S
O603   C605    1.289   .     A
O604   C606    1.287   .     A
O604   Zn607   2.001   .     S
C605   C609    1.410   .     S
C606   C610    1.413   .     S
Zn607  N638    2.012   .     S
Zn608  N637    2.012   .     S
C609   C742    1.357   1_455 S
C609   N781    1.437   1_455 S
C610   C675    1.357   .     S
C610   N718    1.442   .     S
C611   H613    1.084   .     S
C611   C629    1.397   .     A
C611   C615    1.379   .     A
C612   H614    1.084   .     S
C612   C616    1.381   .     A
C612   C630    1.398   .     A
C615   H617    1.083   .     S
C615   C619    1.401   .     A
C616   H618    1.084   .     S
C616   C620    1.399   .     A
C619   C621    1.400   .     A
C620   C622    1.395   .     A
C621   C625    1.382   .     A
C621   H623    1.083   .     S
C622   H624    1.080   .     S
C622   C626    1.380   .     A
C625   H627    1.084   .     S
C625   C629    1.398   .     A
C626   C630    1.399   .     A
C626   H628    1.084   .     S
C630   C431    1.441   1_565 S
C631   C647    1.396   .     A
C631   H633    1.082   .     S
C631   C635    1.407   .     A
C632   C648    1.398   .     A
C632   H634    1.082   .     S
C632   C636    1.407   .     A
C635   N655    1.432   .     S
C635   N637    1.380   .     A
C636   N638    1.376   .     A
C636   N658    1.427   .     S
N637   C639    1.365   .     A
N638   C640    1.365   .     A
C639   C643    1.412   .     A
C639   H641    1.081   .     S
C640   C644    1.411   .     A
C640   H642    1.081   .     S
C643   C647    1.412   .     A
C643   H645    1.082   .     S
C644   H646    1.082   .     S
C644   C648    1.413   .     A
C648   C251    1.513   1_556 S
N649   O650    1.299   .     A
N649   O651    1.301   .     A
N649   C675    1.437   .     S
N652   O654    1.302   .     A
N652   O653    1.301   .     A
N652   C742    1.442   1_455 S
N655   O656    1.297   .     A
N655   O657    1.301   .     A
N658   O659    1.299   .     A
N658   O660    1.301   .     A
O661   C665    1.289   .     A
O661   Zn673   1.992   .     S
O662   Zn674   1.992   .     S
O662   C666    1.285   .     A
O663   Zn674   2.006   .     S
O663   C665    1.292   .     A
O664   C666    1.291   .     A
O664   Zn673   2.006   .     S
C665   C685    1.442   .     S
C666   C686    1.432   .     S
O667   Zn673   1.983   .     S
O667   C671    1.273   .     A
O668   C672    1.276   .     A
O668   Zn674   1.983   .     S
O669   Zn674   2.001   .     S
O669   C671    1.289   .     A
O670   C672    1.287   .     A
O670   Zn673   2.001   .     S
C671   C675    1.410   .     S
C672   C676    1.413   .     S
Zn673  N704    2.012   .     S
Zn674  N703    2.012   .     S
C676   C741    1.357   .     S
C676   N784    1.442   .     S
C677   H679    1.084   .     S
C677   C695    1.397   .     A
C677   C681    1.379   .     A
C678   H680    1.084   .     S
C678   C682    1.381   .     A
C678   C696    1.398   .     A
C681   H683    1.083   .     S
C681   C685    1.401   .     A
C682   H684    1.084   .     S
C682   C686    1.399   .     A
C685   C687    1.400   .     A
C686   C688    1.395   .     A
C687   C691    1.382   .     A
C687   H689    1.083   .     S
C688   H690    1.080   .     S
C688   C692    1.380   .     A
C691   H693    1.084   .     S
C691   C695    1.398   .     A
C692   C696    1.399   .     A
C692   H694    1.084   .     S
C696   C497    1.441   1_565 S
C697   C713    1.396   .     A
C697   H699    1.082   .     S
C697   C701    1.407   .     A
C698   C714    1.398   .     A
C698   H700    1.082   .     S
C698   C702    1.407   .     A
C701   N721    1.432   .     S
C701   N703    1.380   .     A
C702   N704    1.376   .     A
C702   N724    1.427   .     S
N703   C705    1.365   .     A
N704   C706    1.365   .     A
C705   C709    1.412   .     A
C705   H707    1.081   .     S
C706   C710    1.411   .     A
C706   H708    1.081   .     S
C709   C713    1.412   .     A
C709   H711    1.082   .     S
C710   H712    1.082   .     S
C710   C714    1.413   .     A
C714   C317    1.513   1_556 S
N715   O716    1.299   .     A
N715   O717    1.301   .     A
N715   C741    1.437   .     S
N718   O720    1.302   .     A
N718   O719    1.301   .     A
N721   O722    1.297   .     A
N721   O723    1.301   .     A
N724   O725    1.299   .     A
N724   O726    1.301   .     A
O727   C731    1.289   .     A
O727   Zn739   1.992   .     S
O728   Zn740   1.992   .     S
O728   C732    1.285   .     A
O729   Zn740   2.006   .     S
O729   C731    1.292   .     A
O730   C732    1.291   .     A
O730   Zn739   2.006   .     S
C731   C751    1.442   .     S
C732   C752    1.432   .     S
O733   Zn739   1.983   .     S
O733   C737    1.273   .     A
O734   C738    1.276   .     A
O734   Zn740   1.983   .     S
O735   Zn740   2.001   .     S
O735   C737    1.289   .     A
O736   C738    1.287   .     A
O736   Zn739   2.001   .     S
C737   C741    1.410   .     S
C738   C742    1.413   .     S
Zn739  N770    2.012   .     S
Zn740  N769    2.012   .     S
C742   C609    1.357   1_655 S
C742   N652    1.442   1_655 S
C743   H745    1.084   .     S
C743   C761    1.397   .     A
C743   C747    1.379   .     A
C744   H746    1.084   .     S
C744   C748    1.381   .     A
C744   C762    1.398   .     A
C747   H749    1.083   .     S
C747   C751    1.401   .     A
C748   H750    1.084   .     S
C748   C752    1.399   .     A
C751   C753    1.400   .     A
C752   C754    1.395   .     A
C753   C757    1.382   .     A
C753   H755    1.083   .     S
C754   H756    1.080   .     S
C754   C758    1.380   .     A
C757   H759    1.084   .     S
C757   C761    1.398   .     A
C758   C762    1.399   .     A
C758   H760    1.084   .     S
C762   C563    1.441   1_565 S
C763   C779    1.396   .     A
C763   H765    1.082   .     S
C763   C767    1.407   .     A
C764   C780    1.398   .     A
C764   H766    1.082   .     S
C764   C768    1.407   .     A
C767   N787    1.432   .     S
C767   N769    1.380   .     A
C768   N770    1.376   .     A
C768   N790    1.427   .     S
N769   C771    1.365   .     A
N770   C772    1.365   .     A
C771   C775    1.412   .     A
C771   H773    1.081   .     S
C772   C776    1.411   .     A
C772   H774    1.081   .     S
C775   C779    1.412   .     A
C775   H777    1.082   .     S
C776   H778    1.082   .     S
C776   C780    1.413   .     A
C780   C383    1.513   1_556 S
N781   O782    1.299   .     A
N781   O783    1.301   .     A
N781   C609    1.437   1_655 S
N784   O786    1.302   .     A
N784   O785    1.301   .     A
N787   O788    1.297   .     A
N787   O789    1.301   .     A
N790   O791    1.299   .     A
N790   O792    1.301   .     A
