data_str_m3_o2_o5_pcu_sym.39
_audit_creation_date              2020-01-03
_audit_creation_method            'Materials Studio'
_symmetry_space_group_name_H-M    'P1'
_symmetry_Int_Tables_number       1
_symmetry_cell_setting            triclinic
loop_
_symmetry_equiv_pos_as_xyz
  x,y,z
_cell_length_a                    29.5800
_cell_length_b                    28.3557
_cell_length_c                    26.5966
_cell_angle_alpha                 89.9787
_cell_angle_beta                  89.8429
_cell_angle_gamma                 89.7924
loop_
_atom_site_label
_atom_site_type_symbol
_atom_site_fract_x
_atom_site_fract_y
_atom_site_fract_z
_atom_site_U_iso_or_equiv
_atom_site_adp_type
_atom_site_occupancy
C1     C     0.16351   0.25012   0.16859   0.00000  Uiso   1.00
C2     C     0.21367   0.44748   0.14616   0.00000  Uiso   1.00
C3     C     0.24989   0.25001   0.07287   0.00000  Uiso   1.00
C4     C     0.24984   0.25000   0.26046   0.00000  Uiso   1.00
C5     C     0.24990   0.02667   0.16652   0.00000  Uiso   1.00
C6     C     0.24994   0.47331   0.16650   0.00000  Uiso   1.00
C7     C     0.24976   0.25002   0.02182   0.00000  Uiso   1.00
C8     C     0.24973   0.25002   0.31152   0.00000  Uiso   1.00
C9     C     0.05017   0.28605   0.21882   0.00000  Uiso   1.00
C10    C     0.44883   0.21785   0.22282   0.00000  Uiso   1.00
C11    C     0.45695   0.28763   0.17064   0.00000  Uiso   1.00
C12    C     0.33644   0.24993   0.16836   0.00000  Uiso   1.00
C13    C     0.04328   0.21087   0.17599   0.00000  Uiso   1.00
C14    C     0.09615   0.28665   0.20870   0.00000  Uiso   1.00
C15    C     0.40281   0.21698   0.21289   0.00000  Uiso   1.00
C16    C     0.41165   0.28568   0.15784   0.00000  Uiso   1.00
C17    C     0.08843   0.21234   0.16221   0.00000  Uiso   1.00
C18    C     0.11534   0.25024   0.17892   0.00000  Uiso   1.00
C19    C     0.38438   0.25018   0.17887   0.00000  Uiso   1.00
C20    C     0.02402   0.24842   0.20239   0.00000  Uiso   1.00
C21    C     0.47558   0.25302   0.20171   0.00000  Uiso   1.00
C22    C     0.14257   0.31500   0.27061   0.00000  Uiso   1.00
C23    C     0.22912   0.10239   0.12883   0.00000  Uiso   1.00
C24    C     0.11510   0.33494   0.31467   0.00000  Uiso   1.00
C25    C     0.14126   0.33088   0.03058   0.00000  Uiso   1.00
C26    C     0.35855   0.19559   0.28000   0.00000  Uiso   1.00
C27    C     0.38737   0.17699   0.32356   0.00000  Uiso   1.00
C28    C     0.36131   0.17859   0.03989   0.00000  Uiso   1.00
C29    C     0.39989   0.29931   0.07392   0.00000  Uiso   1.00
C30    C     0.43035   0.33186   0.04304   0.00000  Uiso   1.00
C31    C     0.43713   0.31323   0.32298   0.00000  Uiso   1.00
C32    C     0.10952   0.19093   0.08223   0.00000  Uiso   1.00
C33    C     0.06534   0.18232   0.05362   0.00000  Uiso   1.00
C34    C     0.28553   0.39768   0.18674   0.00000  Uiso   1.00
C35    C     0.07081   0.19278   0.33094   0.00000  Uiso   1.00
C36    C     0.27076   0.10204   0.20444   0.00000  Uiso   1.00
C37    C     0.21443   0.39786   0.14653   0.00000  Uiso   1.00
C38    C     0.22877   0.05276   0.12797   0.00000  Uiso   1.00
C39    C     0.28623   0.44728   0.18691   0.00000  Uiso   1.00
C40    C     0.27103   0.05245   0.20517   0.00000  Uiso   1.00
H41    H     0.21271   0.12187   0.09900   0.00000  Uiso   1.00
H42    H     0.31542   0.46496   0.20235   0.00000  Uiso   1.00
H43    H     0.28715   0.03458   0.23631   0.00000  Uiso   1.00
H44    H     0.18447   0.46532   0.13066   0.00000  Uiso   1.00
H45    H     0.17590   0.33288   0.27001   0.00000  Uiso   1.00
H46    H     0.14954   0.27665   0.27664   0.00000  Uiso   1.00
H47    H     0.10714   0.37269   0.30751   0.00000  Uiso   1.00
H48    H     0.08276   0.31546   0.31828   0.00000  Uiso   1.00
H49    H     0.15167   0.29379   0.03730   0.00000  Uiso   1.00
H50    H     0.11961   0.34273   0.06235   0.00000  Uiso   1.00
H51    H     0.17195   0.35331   0.02924   0.00000  Uiso   1.00
H52    H     0.31363   0.37829   0.20261   0.00000  Uiso   1.00
H53    H     0.32444   0.17979   0.28311   0.00000  Uiso   1.00
H54    H     0.35370   0.23455   0.28348   0.00000  Uiso   1.00
H55    H     0.39762   0.13992   0.31594   0.00000  Uiso   1.00
H56    H     0.41840   0.19865   0.32698   0.00000  Uiso   1.00
H57    H     0.34773   0.21451   0.04686   0.00000  Uiso   1.00
H58    H     0.38411   0.16876   0.07133   0.00000  Uiso   1.00
H59    H     0.33268   0.15336   0.03899   0.00000  Uiso   1.00
H60    H     0.36595   0.29836   0.05614   0.00000  Uiso   1.00
H61    H     0.41394   0.26266   0.07222   0.00000  Uiso   1.00
H62    H     0.41490   0.36761   0.04130   0.00000  Uiso   1.00
H63    H     0.28708   0.12118   0.23438   0.00000  Uiso   1.00
H64    H     0.46386   0.33475   0.06156   0.00000  Uiso   1.00
H65    H     0.45463   0.27852   0.32381   0.00000  Uiso   1.00
H66    H     0.45831   0.33826   0.30118   0.00000  Uiso   1.00
H67    H     0.40408   0.30941   0.30369   0.00000  Uiso   1.00
H68    H     0.13682   0.16968   0.06442   0.00000  Uiso   1.00
H69    H     0.11978   0.22851   0.07837   0.00000  Uiso   1.00
H70    H     0.05491   0.14498   0.05849   0.00000  Uiso   1.00
H71    H     0.03823   0.20543   0.06899   0.00000  Uiso   1.00
H72    H     0.08126   0.22993   0.32518   0.00000  Uiso   1.00
H73    H     0.03811   0.18716   0.31146   0.00000  Uiso   1.00
H74    H     0.18635   0.37860   0.13075   0.00000  Uiso   1.00
H75    H     0.09661   0.16902   0.31401   0.00000  Uiso   1.00
H76    H     0.03454   0.31562   0.23807   0.00000  Uiso   1.00
H77    H     0.46395   0.19041   0.24570   0.00000  Uiso   1.00
H78    H     0.47832   0.31397   0.15316   0.00000  Uiso   1.00
H79    H     0.02235   0.18234   0.16227   0.00000  Uiso   1.00
H80    H     0.21256   0.03512   0.09682   0.00000  Uiso   1.00
N81    N     0.25000   0.12623   0.16667   0.00000  Uiso   1.00
N82    N     0.25000   0.37376   0.16667   0.00000  Uiso   1.00
O83    O     0.18453   0.28974   0.16667   0.00000  Uiso   1.00
O84    O     0.37688   0.18117   0.23320   0.00000  Uiso   1.00
O85    O     0.39467   0.31759   0.12326   0.00000  Uiso   1.00
O86    O     0.10577   0.17607   0.13297   0.00000  Uiso   1.00
O87    O     0.31547   0.21026   0.16666   0.00000  Uiso   1.00
O88    O     0.31547   0.28974   0.16666   0.00000  Uiso   1.00
O89    O     0.18453   0.21026   0.16667   0.00000  Uiso   1.00
O90    O     0.25000   0.28973   0.09511   0.00000  Uiso   1.00
O91    O     0.25000   0.21027   0.23822   0.00000  Uiso   1.00
O92    O     0.25000   0.28973   0.23822   0.00000  Uiso   1.00
O93    O     0.25000   0.21027   0.09511   0.00000  Uiso   1.00
O94    O     0.12105   0.32516   0.22434   0.00000  Uiso   1.00
Zn95   Zn    0.25000   0.30307   0.16667   0.00000  Uiso   1.00
Zn96   Zn    0.25000   0.19693   0.16667   0.00000  Uiso   1.00
C97    C     0.66351   0.25012   0.16859   0.00000  Uiso   1.00
C98    C     0.71367   0.44748   0.14616   0.00000  Uiso   1.00
C99    C     0.74989   0.25001   0.07287   0.00000  Uiso   1.00
C100   C     0.74984   0.25000   0.26046   0.00000  Uiso   1.00
C101   C     0.74990   0.02667   0.16652   0.00000  Uiso   1.00
C102   C     0.74994   0.47331   0.16650   0.00000  Uiso   1.00
C103   C     0.74976   0.25002   0.02182   0.00000  Uiso   1.00
C104   C     0.74973   0.25002   0.31152   0.00000  Uiso   1.00
C105   C     0.55017   0.28605   0.21882   0.00000  Uiso   1.00
C106   C     0.94883   0.21785   0.22282   0.00000  Uiso   1.00
C107   C     0.95695   0.28763   0.17064   0.00000  Uiso   1.00
C108   C     0.83644   0.24993   0.16836   0.00000  Uiso   1.00
C109   C     0.54328   0.21087   0.17599   0.00000  Uiso   1.00
C110   C     0.59615   0.28665   0.20870   0.00000  Uiso   1.00
C111   C     0.90281   0.21698   0.21289   0.00000  Uiso   1.00
C112   C     0.91165   0.28568   0.15784   0.00000  Uiso   1.00
C113   C     0.58843   0.21234   0.16221   0.00000  Uiso   1.00
C114   C     0.61534   0.25024   0.17892   0.00000  Uiso   1.00
C115   C     0.88438   0.25018   0.17887   0.00000  Uiso   1.00
C116   C     0.52402   0.24842   0.20239   0.00000  Uiso   1.00
C117   C     0.97558   0.25302   0.20171   0.00000  Uiso   1.00
C118   C     0.64257   0.31500   0.27061   0.00000  Uiso   1.00
C119   C     0.72912   0.10239   0.12883   0.00000  Uiso   1.00
C120   C     0.61510   0.33494   0.31467   0.00000  Uiso   1.00
C121   C     0.64126   0.33088   0.03058   0.00000  Uiso   1.00
C122   C     0.85855   0.19559   0.28000   0.00000  Uiso   1.00
C123   C     0.88737   0.17699   0.32356   0.00000  Uiso   1.00
C124   C     0.86131   0.17859   0.03989   0.00000  Uiso   1.00
C125   C     0.89989   0.29931   0.07392   0.00000  Uiso   1.00
C126   C     0.93035   0.33186   0.04304   0.00000  Uiso   1.00
C127   C     0.93713   0.31323   0.32298   0.00000  Uiso   1.00
C128   C     0.60952   0.19093   0.08223   0.00000  Uiso   1.00
C129   C     0.56534   0.18232   0.05362   0.00000  Uiso   1.00
C130   C     0.78553   0.39768   0.18674   0.00000  Uiso   1.00
C131   C     0.57081   0.19278   0.33094   0.00000  Uiso   1.00
C132   C     0.77076   0.10204   0.20444   0.00000  Uiso   1.00
C133   C     0.71443   0.39786   0.14653   0.00000  Uiso   1.00
C134   C     0.72877   0.05276   0.12797   0.00000  Uiso   1.00
C135   C     0.78623   0.44728   0.18691   0.00000  Uiso   1.00
C136   C     0.77103   0.05245   0.20517   0.00000  Uiso   1.00
H137   H     0.71271   0.12187   0.09900   0.00000  Uiso   1.00
H138   H     0.81542   0.46496   0.20235   0.00000  Uiso   1.00
H139   H     0.78715   0.03458   0.23631   0.00000  Uiso   1.00
H140   H     0.68447   0.46532   0.13066   0.00000  Uiso   1.00
H141   H     0.67590   0.33288   0.27001   0.00000  Uiso   1.00
H142   H     0.64954   0.27665   0.27664   0.00000  Uiso   1.00
H143   H     0.60714   0.37269   0.30751   0.00000  Uiso   1.00
H144   H     0.58276   0.31546   0.31828   0.00000  Uiso   1.00
H145   H     0.65167   0.29379   0.03730   0.00000  Uiso   1.00
H146   H     0.61961   0.34273   0.06235   0.00000  Uiso   1.00
H147   H     0.67195   0.35331   0.02924   0.00000  Uiso   1.00
H148   H     0.81363   0.37829   0.20261   0.00000  Uiso   1.00
H149   H     0.82444   0.17979   0.28311   0.00000  Uiso   1.00
H150   H     0.85370   0.23455   0.28348   0.00000  Uiso   1.00
H151   H     0.89762   0.13992   0.31594   0.00000  Uiso   1.00
H152   H     0.91840   0.19865   0.32698   0.00000  Uiso   1.00
H153   H     0.84773   0.21451   0.04686   0.00000  Uiso   1.00
H154   H     0.88411   0.16876   0.07133   0.00000  Uiso   1.00
H155   H     0.83268   0.15336   0.03899   0.00000  Uiso   1.00
H156   H     0.86595   0.29836   0.05614   0.00000  Uiso   1.00
H157   H     0.91394   0.26266   0.07222   0.00000  Uiso   1.00
H158   H     0.91490   0.36761   0.04130   0.00000  Uiso   1.00
H159   H     0.78708   0.12118   0.23438   0.00000  Uiso   1.00
H160   H     0.96386   0.33475   0.06156   0.00000  Uiso   1.00
H161   H     0.95463   0.27852   0.32381   0.00000  Uiso   1.00
H162   H     0.95831   0.33826   0.30118   0.00000  Uiso   1.00
H163   H     0.90408   0.30941   0.30369   0.00000  Uiso   1.00
H164   H     0.63682   0.16968   0.06442   0.00000  Uiso   1.00
H165   H     0.61978   0.22851   0.07837   0.00000  Uiso   1.00
H166   H     0.55491   0.14498   0.05849   0.00000  Uiso   1.00
H167   H     0.53823   0.20543   0.06899   0.00000  Uiso   1.00
H168   H     0.58126   0.22993   0.32518   0.00000  Uiso   1.00
H169   H     0.53811   0.18716   0.31146   0.00000  Uiso   1.00
H170   H     0.68635   0.37860   0.13075   0.00000  Uiso   1.00
H171   H     0.59661   0.16902   0.31401   0.00000  Uiso   1.00
H172   H     0.53454   0.31562   0.23807   0.00000  Uiso   1.00
H173   H     0.96395   0.19041   0.24570   0.00000  Uiso   1.00
H174   H     0.97832   0.31397   0.15316   0.00000  Uiso   1.00
H175   H     0.52235   0.18234   0.16227   0.00000  Uiso   1.00
H176   H     0.71256   0.03512   0.09682   0.00000  Uiso   1.00
N177   N     0.75000   0.12623   0.16667   0.00000  Uiso   1.00
N178   N     0.75000   0.37376   0.16667   0.00000  Uiso   1.00
O179   O     0.68453   0.28974   0.16667   0.00000  Uiso   1.00
O180   O     0.87688   0.18117   0.23320   0.00000  Uiso   1.00
O181   O     0.89467   0.31759   0.12326   0.00000  Uiso   1.00
O182   O     0.60577   0.17607   0.13297   0.00000  Uiso   1.00
O183   O     0.81547   0.21026   0.16666   0.00000  Uiso   1.00
O184   O     0.81547   0.28974   0.16666   0.00000  Uiso   1.00
O185   O     0.68453   0.21026   0.16667   0.00000  Uiso   1.00
O186   O     0.75000   0.28973   0.09511   0.00000  Uiso   1.00
O187   O     0.75000   0.21027   0.23822   0.00000  Uiso   1.00
O188   O     0.75000   0.28973   0.23822   0.00000  Uiso   1.00
O189   O     0.75000   0.21027   0.09511   0.00000  Uiso   1.00
O190   O     0.62105   0.32516   0.22434   0.00000  Uiso   1.00
Zn191  Zn    0.75000   0.30307   0.16667   0.00000  Uiso   1.00
Zn192  Zn    0.75000   0.19693   0.16667   0.00000  Uiso   1.00
C193   C     0.16351   0.75012   0.16859   0.00000  Uiso   1.00
C194   C     0.21367   0.94748   0.14616   0.00000  Uiso   1.00
C195   C     0.24989   0.75001   0.07287   0.00000  Uiso   1.00
C196   C     0.24984   0.75000   0.26046   0.00000  Uiso   1.00
C197   C     0.24990   0.52667   0.16652   0.00000  Uiso   1.00
C198   C     0.24994   0.97331   0.16650   0.00000  Uiso   1.00
C199   C     0.24976   0.75002   0.02182   0.00000  Uiso   1.00
C200   C     0.24973   0.75002   0.31152   0.00000  Uiso   1.00
C201   C     0.05017   0.78605   0.21882   0.00000  Uiso   1.00
C202   C     0.44883   0.71785   0.22282   0.00000  Uiso   1.00
C203   C     0.45695   0.78763   0.17064   0.00000  Uiso   1.00
C204   C     0.33644   0.74993   0.16836   0.00000  Uiso   1.00
C205   C     0.04328   0.71087   0.17599   0.00000  Uiso   1.00
C206   C     0.09615   0.78665   0.20870   0.00000  Uiso   1.00
C207   C     0.40281   0.71698   0.21289   0.00000  Uiso   1.00
C208   C     0.41165   0.78568   0.15784   0.00000  Uiso   1.00
C209   C     0.08843   0.71234   0.16221   0.00000  Uiso   1.00
C210   C     0.11534   0.75024   0.17892   0.00000  Uiso   1.00
C211   C     0.38438   0.75018   0.17887   0.00000  Uiso   1.00
C212   C     0.02402   0.74842   0.20239   0.00000  Uiso   1.00
C213   C     0.47558   0.75302   0.20171   0.00000  Uiso   1.00
C214   C     0.14257   0.81500   0.27061   0.00000  Uiso   1.00
C215   C     0.22912   0.60239   0.12883   0.00000  Uiso   1.00
C216   C     0.11510   0.83494   0.31467   0.00000  Uiso   1.00
C217   C     0.14126   0.83088   0.03058   0.00000  Uiso   1.00
C218   C     0.35855   0.69559   0.28000   0.00000  Uiso   1.00
C219   C     0.38737   0.67699   0.32356   0.00000  Uiso   1.00
C220   C     0.36131   0.67859   0.03989   0.00000  Uiso   1.00
C221   C     0.39989   0.79931   0.07392   0.00000  Uiso   1.00
C222   C     0.43035   0.83186   0.04304   0.00000  Uiso   1.00
C223   C     0.43713   0.81323   0.32298   0.00000  Uiso   1.00
C224   C     0.10952   0.69093   0.08223   0.00000  Uiso   1.00
C225   C     0.06534   0.68232   0.05362   0.00000  Uiso   1.00
C226   C     0.28553   0.89768   0.18674   0.00000  Uiso   1.00
C227   C     0.07081   0.69278   0.33094   0.00000  Uiso   1.00
C228   C     0.27076   0.60204   0.20444   0.00000  Uiso   1.00
C229   C     0.21443   0.89786   0.14653   0.00000  Uiso   1.00
C230   C     0.22877   0.55276   0.12797   0.00000  Uiso   1.00
C231   C     0.28623   0.94728   0.18691   0.00000  Uiso   1.00
C232   C     0.27103   0.55245   0.20517   0.00000  Uiso   1.00
H233   H     0.21271   0.62187   0.09900   0.00000  Uiso   1.00
H234   H     0.31542   0.96496   0.20235   0.00000  Uiso   1.00
H235   H     0.28715   0.53458   0.23631   0.00000  Uiso   1.00
H236   H     0.18447   0.96532   0.13066   0.00000  Uiso   1.00
H237   H     0.17590   0.83288   0.27001   0.00000  Uiso   1.00
H238   H     0.14954   0.77665   0.27664   0.00000  Uiso   1.00
H239   H     0.10714   0.87269   0.30751   0.00000  Uiso   1.00
H240   H     0.08276   0.81546   0.31828   0.00000  Uiso   1.00
H241   H     0.15167   0.79379   0.03730   0.00000  Uiso   1.00
H242   H     0.11961   0.84273   0.06235   0.00000  Uiso   1.00
H243   H     0.17195   0.85331   0.02924   0.00000  Uiso   1.00
H244   H     0.31363   0.87829   0.20261   0.00000  Uiso   1.00
H245   H     0.32444   0.67979   0.28311   0.00000  Uiso   1.00
H246   H     0.35370   0.73455   0.28348   0.00000  Uiso   1.00
H247   H     0.39762   0.63992   0.31594   0.00000  Uiso   1.00
H248   H     0.41840   0.69865   0.32698   0.00000  Uiso   1.00
H249   H     0.34773   0.71451   0.04686   0.00000  Uiso   1.00
H250   H     0.38411   0.66876   0.07133   0.00000  Uiso   1.00
H251   H     0.33268   0.65336   0.03899   0.00000  Uiso   1.00
H252   H     0.36595   0.79836   0.05614   0.00000  Uiso   1.00
H253   H     0.41394   0.76266   0.07222   0.00000  Uiso   1.00
H254   H     0.41490   0.86761   0.04130   0.00000  Uiso   1.00
H255   H     0.28708   0.62118   0.23438   0.00000  Uiso   1.00
H256   H     0.46386   0.83475   0.06156   0.00000  Uiso   1.00
H257   H     0.45463   0.77852   0.32381   0.00000  Uiso   1.00
H258   H     0.45831   0.83826   0.30118   0.00000  Uiso   1.00
H259   H     0.40408   0.80941   0.30369   0.00000  Uiso   1.00
H260   H     0.13682   0.66968   0.06442   0.00000  Uiso   1.00
H261   H     0.11978   0.72851   0.07837   0.00000  Uiso   1.00
H262   H     0.05491   0.64498   0.05849   0.00000  Uiso   1.00
H263   H     0.03823   0.70543   0.06899   0.00000  Uiso   1.00
H264   H     0.08126   0.72993   0.32518   0.00000  Uiso   1.00
H265   H     0.03811   0.68716   0.31146   0.00000  Uiso   1.00
H266   H     0.18635   0.87860   0.13075   0.00000  Uiso   1.00
H267   H     0.09661   0.66902   0.31401   0.00000  Uiso   1.00
H268   H     0.03454   0.81562   0.23807   0.00000  Uiso   1.00
H269   H     0.46395   0.69041   0.24570   0.00000  Uiso   1.00
H270   H     0.47832   0.81397   0.15316   0.00000  Uiso   1.00
H271   H     0.02235   0.68234   0.16227   0.00000  Uiso   1.00
H272   H     0.21256   0.53512   0.09682   0.00000  Uiso   1.00
N273   N     0.25000   0.62623   0.16667   0.00000  Uiso   1.00
N274   N     0.25000   0.87376   0.16667   0.00000  Uiso   1.00
O275   O     0.18453   0.78974   0.16667   0.00000  Uiso   1.00
O276   O     0.37688   0.68117   0.23320   0.00000  Uiso   1.00
O277   O     0.39467   0.81759   0.12326   0.00000  Uiso   1.00
O278   O     0.10577   0.67607   0.13297   0.00000  Uiso   1.00
O279   O     0.31547   0.71026   0.16666   0.00000  Uiso   1.00
O280   O     0.31547   0.78974   0.16666   0.00000  Uiso   1.00
O281   O     0.18453   0.71026   0.16667   0.00000  Uiso   1.00
O282   O     0.25000   0.78973   0.09511   0.00000  Uiso   1.00
O283   O     0.25000   0.71027   0.23822   0.00000  Uiso   1.00
O284   O     0.25000   0.78973   0.23822   0.00000  Uiso   1.00
O285   O     0.25000   0.71027   0.09511   0.00000  Uiso   1.00
O286   O     0.12105   0.82516   0.22434   0.00000  Uiso   1.00
Zn287  Zn    0.25000   0.80307   0.16667   0.00000  Uiso   1.00
Zn288  Zn    0.25000   0.69693   0.16667   0.00000  Uiso   1.00
C289   C     0.66351   0.75012   0.16859   0.00000  Uiso   1.00
C290   C     0.71367   0.94748   0.14616   0.00000  Uiso   1.00
C291   C     0.74989   0.75001   0.07287   0.00000  Uiso   1.00
C292   C     0.74984   0.75000   0.26046   0.00000  Uiso   1.00
C293   C     0.74990   0.52667   0.16652   0.00000  Uiso   1.00
C294   C     0.74994   0.97331   0.16650   0.00000  Uiso   1.00
C295   C     0.74976   0.75002   0.02182   0.00000  Uiso   1.00
C296   C     0.74973   0.75002   0.31152   0.00000  Uiso   1.00
C297   C     0.55017   0.78605   0.21882   0.00000  Uiso   1.00
C298   C     0.94883   0.71785   0.22282   0.00000  Uiso   1.00
C299   C     0.95695   0.78763   0.17064   0.00000  Uiso   1.00
C300   C     0.83644   0.74993   0.16836   0.00000  Uiso   1.00
C301   C     0.54328   0.71087   0.17599   0.00000  Uiso   1.00
C302   C     0.59615   0.78665   0.20870   0.00000  Uiso   1.00
C303   C     0.90281   0.71698   0.21289   0.00000  Uiso   1.00
C304   C     0.91165   0.78568   0.15784   0.00000  Uiso   1.00
C305   C     0.58843   0.71234   0.16221   0.00000  Uiso   1.00
C306   C     0.61534   0.75024   0.17892   0.00000  Uiso   1.00
C307   C     0.88438   0.75018   0.17887   0.00000  Uiso   1.00
C308   C     0.52402   0.74842   0.20239   0.00000  Uiso   1.00
C309   C     0.97558   0.75302   0.20171   0.00000  Uiso   1.00
C310   C     0.64257   0.81500   0.27061   0.00000  Uiso   1.00
C311   C     0.72912   0.60239   0.12883   0.00000  Uiso   1.00
C312   C     0.61510   0.83494   0.31467   0.00000  Uiso   1.00
C313   C     0.64126   0.83088   0.03058   0.00000  Uiso   1.00
C314   C     0.85855   0.69559   0.28000   0.00000  Uiso   1.00
C315   C     0.88737   0.67699   0.32356   0.00000  Uiso   1.00
C316   C     0.86131   0.67859   0.03989   0.00000  Uiso   1.00
C317   C     0.89989   0.79931   0.07392   0.00000  Uiso   1.00
C318   C     0.93035   0.83186   0.04304   0.00000  Uiso   1.00
C319   C     0.93713   0.81323   0.32298   0.00000  Uiso   1.00
C320   C     0.60952   0.69093   0.08223   0.00000  Uiso   1.00
C321   C     0.56534   0.68232   0.05362   0.00000  Uiso   1.00
C322   C     0.78553   0.89768   0.18674   0.00000  Uiso   1.00
C323   C     0.57081   0.69278   0.33094   0.00000  Uiso   1.00
C324   C     0.77076   0.60204   0.20444   0.00000  Uiso   1.00
C325   C     0.71443   0.89786   0.14653   0.00000  Uiso   1.00
C326   C     0.72877   0.55276   0.12797   0.00000  Uiso   1.00
C327   C     0.78623   0.94728   0.18691   0.00000  Uiso   1.00
C328   C     0.77103   0.55245   0.20517   0.00000  Uiso   1.00
H329   H     0.71271   0.62187   0.09900   0.00000  Uiso   1.00
H330   H     0.81542   0.96496   0.20235   0.00000  Uiso   1.00
H331   H     0.78715   0.53458   0.23631   0.00000  Uiso   1.00
H332   H     0.68447   0.96532   0.13066   0.00000  Uiso   1.00
H333   H     0.67590   0.83288   0.27001   0.00000  Uiso   1.00
H334   H     0.64954   0.77665   0.27664   0.00000  Uiso   1.00
H335   H     0.60714   0.87269   0.30751   0.00000  Uiso   1.00
H336   H     0.58276   0.81546   0.31828   0.00000  Uiso   1.00
H337   H     0.65167   0.79379   0.03730   0.00000  Uiso   1.00
H338   H     0.61961   0.84273   0.06235   0.00000  Uiso   1.00
H339   H     0.67195   0.85331   0.02924   0.00000  Uiso   1.00
H340   H     0.81363   0.87829   0.20261   0.00000  Uiso   1.00
H341   H     0.82444   0.67979   0.28311   0.00000  Uiso   1.00
H342   H     0.85370   0.73455   0.28348   0.00000  Uiso   1.00
H343   H     0.89762   0.63992   0.31594   0.00000  Uiso   1.00
H344   H     0.91840   0.69865   0.32698   0.00000  Uiso   1.00
H345   H     0.84773   0.71451   0.04686   0.00000  Uiso   1.00
H346   H     0.88411   0.66876   0.07133   0.00000  Uiso   1.00
H347   H     0.83268   0.65336   0.03899   0.00000  Uiso   1.00
H348   H     0.86595   0.79836   0.05614   0.00000  Uiso   1.00
H349   H     0.91394   0.76266   0.07222   0.00000  Uiso   1.00
H350   H     0.91490   0.86761   0.04130   0.00000  Uiso   1.00
H351   H     0.78708   0.62118   0.23438   0.00000  Uiso   1.00
H352   H     0.96386   0.83475   0.06156   0.00000  Uiso   1.00
H353   H     0.95463   0.77852   0.32381   0.00000  Uiso   1.00
H354   H     0.95831   0.83826   0.30118   0.00000  Uiso   1.00
H355   H     0.90408   0.80941   0.30369   0.00000  Uiso   1.00
H356   H     0.63682   0.66968   0.06442   0.00000  Uiso   1.00
H357   H     0.61978   0.72851   0.07837   0.00000  Uiso   1.00
H358   H     0.55491   0.64498   0.05849   0.00000  Uiso   1.00
H359   H     0.53823   0.70543   0.06899   0.00000  Uiso   1.00
H360   H     0.58126   0.72993   0.32518   0.00000  Uiso   1.00
H361   H     0.53811   0.68716   0.31146   0.00000  Uiso   1.00
H362   H     0.68635   0.87860   0.13075   0.00000  Uiso   1.00
H363   H     0.59661   0.66902   0.31401   0.00000  Uiso   1.00
H364   H     0.53454   0.81562   0.23807   0.00000  Uiso   1.00
H365   H     0.96395   0.69041   0.24570   0.00000  Uiso   1.00
H366   H     0.97832   0.81397   0.15316   0.00000  Uiso   1.00
H367   H     0.52235   0.68234   0.16227   0.00000  Uiso   1.00
H368   H     0.71256   0.53512   0.09682   0.00000  Uiso   1.00
N369   N     0.75000   0.62623   0.16667   0.00000  Uiso   1.00
N370   N     0.75000   0.87376   0.16667   0.00000  Uiso   1.00
O371   O     0.68453   0.78974   0.16667   0.00000  Uiso   1.00
O372   O     0.87688   0.68117   0.23320   0.00000  Uiso   1.00
O373   O     0.89467   0.81759   0.12326   0.00000  Uiso   1.00
O374   O     0.60577   0.67607   0.13297   0.00000  Uiso   1.00
O375   O     0.81547   0.71026   0.16666   0.00000  Uiso   1.00
O376   O     0.81547   0.78974   0.16666   0.00000  Uiso   1.00
O377   O     0.68453   0.71026   0.16667   0.00000  Uiso   1.00
O378   O     0.75000   0.78973   0.09511   0.00000  Uiso   1.00
O379   O     0.75000   0.71027   0.23822   0.00000  Uiso   1.00
O380   O     0.75000   0.78973   0.23822   0.00000  Uiso   1.00
O381   O     0.75000   0.71027   0.09511   0.00000  Uiso   1.00
O382   O     0.62105   0.82516   0.22434   0.00000  Uiso   1.00
Zn383  Zn    0.75000   0.80307   0.16667   0.00000  Uiso   1.00
Zn384  Zn    0.75000   0.69693   0.16667   0.00000  Uiso   1.00
C385   C     0.16351   0.25012   0.50193   0.00000  Uiso   1.00
C386   C     0.21367   0.44748   0.47949   0.00000  Uiso   1.00
C387   C     0.24989   0.25001   0.40621   0.00000  Uiso   1.00
C388   C     0.24984   0.25000   0.59380   0.00000  Uiso   1.00
C389   C     0.24990   0.02667   0.49986   0.00000  Uiso   1.00
C390   C     0.24994   0.47331   0.49983   0.00000  Uiso   1.00
C391   C     0.24976   0.25002   0.35515   0.00000  Uiso   1.00
C392   C     0.24973   0.25002   0.64486   0.00000  Uiso   1.00
C393   C     0.05017   0.28605   0.55216   0.00000  Uiso   1.00
C394   C     0.44883   0.21785   0.55615   0.00000  Uiso   1.00
C395   C     0.45695   0.28763   0.50398   0.00000  Uiso   1.00
C396   C     0.33644   0.24993   0.50169   0.00000  Uiso   1.00
C397   C     0.04328   0.21087   0.50932   0.00000  Uiso   1.00
C398   C     0.09615   0.28665   0.54203   0.00000  Uiso   1.00
C399   C     0.40281   0.21698   0.54622   0.00000  Uiso   1.00
C400   C     0.41165   0.28568   0.49117   0.00000  Uiso   1.00
C401   C     0.08843   0.21234   0.49554   0.00000  Uiso   1.00
C402   C     0.11534   0.25024   0.51226   0.00000  Uiso   1.00
C403   C     0.38438   0.25018   0.51220   0.00000  Uiso   1.00
C404   C     0.02402   0.24842   0.53572   0.00000  Uiso   1.00
C405   C     0.47558   0.25302   0.53504   0.00000  Uiso   1.00
C406   C     0.14257   0.31500   0.60395   0.00000  Uiso   1.00
C407   C     0.22912   0.10239   0.46216   0.00000  Uiso   1.00
C408   C     0.11510   0.33494   0.64800   0.00000  Uiso   1.00
C409   C     0.14126   0.33088   0.36391   0.00000  Uiso   1.00
C410   C     0.35855   0.19559   0.61334   0.00000  Uiso   1.00
C411   C     0.38737   0.17699   0.65689   0.00000  Uiso   1.00
C412   C     0.36131   0.17859   0.37322   0.00000  Uiso   1.00
C413   C     0.39989   0.29931   0.40725   0.00000  Uiso   1.00
C414   C     0.43035   0.33186   0.37638   0.00000  Uiso   1.00
C415   C     0.43713   0.31323   0.65631   0.00000  Uiso   1.00
C416   C     0.10952   0.19093   0.41557   0.00000  Uiso   1.00
C417   C     0.06534   0.18232   0.38696   0.00000  Uiso   1.00
C418   C     0.28553   0.39768   0.52007   0.00000  Uiso   1.00
C419   C     0.07081   0.19278   0.66427   0.00000  Uiso   1.00
C420   C     0.27076   0.10204   0.53778   0.00000  Uiso   1.00
C421   C     0.21443   0.39786   0.47986   0.00000  Uiso   1.00
C422   C     0.22877   0.05276   0.46130   0.00000  Uiso   1.00
C423   C     0.28623   0.44728   0.52025   0.00000  Uiso   1.00
C424   C     0.27103   0.05245   0.53850   0.00000  Uiso   1.00
H425   H     0.21271   0.12187   0.43234   0.00000  Uiso   1.00
H426   H     0.31542   0.46496   0.53568   0.00000  Uiso   1.00
H427   H     0.28715   0.03458   0.56965   0.00000  Uiso   1.00
H428   H     0.18447   0.46532   0.46399   0.00000  Uiso   1.00
H429   H     0.17590   0.33288   0.60334   0.00000  Uiso   1.00
H430   H     0.14954   0.27665   0.60997   0.00000  Uiso   1.00
H431   H     0.10714   0.37269   0.64085   0.00000  Uiso   1.00
H432   H     0.08276   0.31546   0.65161   0.00000  Uiso   1.00
H433   H     0.15167   0.29379   0.37063   0.00000  Uiso   1.00
H434   H     0.11961   0.34273   0.39569   0.00000  Uiso   1.00
H435   H     0.17195   0.35331   0.36258   0.00000  Uiso   1.00
H436   H     0.31363   0.37829   0.53594   0.00000  Uiso   1.00
H437   H     0.32444   0.17979   0.61644   0.00000  Uiso   1.00
H438   H     0.35370   0.23455   0.61682   0.00000  Uiso   1.00
H439   H     0.39762   0.13992   0.64928   0.00000  Uiso   1.00
H440   H     0.41840   0.19865   0.66032   0.00000  Uiso   1.00
H441   H     0.34773   0.21451   0.38019   0.00000  Uiso   1.00
H442   H     0.38411   0.16876   0.40466   0.00000  Uiso   1.00
H443   H     0.33268   0.15336   0.37232   0.00000  Uiso   1.00
H444   H     0.36595   0.29836   0.38948   0.00000  Uiso   1.00
H445   H     0.41394   0.26266   0.40555   0.00000  Uiso   1.00
H446   H     0.41490   0.36761   0.37463   0.00000  Uiso   1.00
H447   H     0.28708   0.12118   0.56771   0.00000  Uiso   1.00
H448   H     0.46386   0.33475   0.39489   0.00000  Uiso   1.00
H449   H     0.45463   0.27852   0.65714   0.00000  Uiso   1.00
H450   H     0.45831   0.33826   0.63451   0.00000  Uiso   1.00
H451   H     0.40408   0.30941   0.63702   0.00000  Uiso   1.00
H452   H     0.13682   0.16968   0.39776   0.00000  Uiso   1.00
H453   H     0.11978   0.22851   0.41170   0.00000  Uiso   1.00
H454   H     0.05491   0.14498   0.39182   0.00000  Uiso   1.00
H455   H     0.03823   0.20543   0.40232   0.00000  Uiso   1.00
H456   H     0.08126   0.22993   0.65851   0.00000  Uiso   1.00
H457   H     0.03811   0.18716   0.64479   0.00000  Uiso   1.00
H458   H     0.18635   0.37860   0.46408   0.00000  Uiso   1.00
H459   H     0.09661   0.16902   0.64734   0.00000  Uiso   1.00
H460   H     0.03454   0.31562   0.57141   0.00000  Uiso   1.00
H461   H     0.46395   0.19041   0.57904   0.00000  Uiso   1.00
H462   H     0.47832   0.31397   0.48649   0.00000  Uiso   1.00
H463   H     0.02235   0.18234   0.49561   0.00000  Uiso   1.00
H464   H     0.21256   0.03512   0.43015   0.00000  Uiso   1.00
N465   N     0.25000   0.12623   0.50000   0.00000  Uiso   1.00
N466   N     0.25000   0.37376   0.50000   0.00000  Uiso   1.00
O467   O     0.18453   0.28974   0.50000   0.00000  Uiso   1.00
O468   O     0.37688   0.18117   0.56653   0.00000  Uiso   1.00
O469   O     0.39467   0.31759   0.45659   0.00000  Uiso   1.00
O470   O     0.10577   0.17607   0.46630   0.00000  Uiso   1.00
O471   O     0.31547   0.21026   0.50000   0.00000  Uiso   1.00
O472   O     0.31547   0.28974   0.50000   0.00000  Uiso   1.00
O473   O     0.18453   0.21026   0.50000   0.00000  Uiso   1.00
O474   O     0.25000   0.28973   0.42845   0.00000  Uiso   1.00
O475   O     0.25000   0.21027   0.57155   0.00000  Uiso   1.00
O476   O     0.25000   0.28973   0.57155   0.00000  Uiso   1.00
O477   O     0.25000   0.21027   0.42845   0.00000  Uiso   1.00
O478   O     0.12105   0.32516   0.55768   0.00000  Uiso   1.00
Zn479  Zn    0.25000   0.30307   0.50000   0.00000  Uiso   1.00
Zn480  Zn    0.25000   0.19693   0.50000   0.00000  Uiso   1.00
C481   C     0.66351   0.25012   0.50193   0.00000  Uiso   1.00
C482   C     0.71367   0.44748   0.47949   0.00000  Uiso   1.00
C483   C     0.74989   0.25001   0.40621   0.00000  Uiso   1.00
C484   C     0.74984   0.25000   0.59380   0.00000  Uiso   1.00
C485   C     0.74990   0.02667   0.49986   0.00000  Uiso   1.00
C486   C     0.74994   0.47331   0.49983   0.00000  Uiso   1.00
C487   C     0.74976   0.25002   0.35515   0.00000  Uiso   1.00
C488   C     0.74973   0.25002   0.64486   0.00000  Uiso   1.00
C489   C     0.55017   0.28605   0.55216   0.00000  Uiso   1.00
C490   C     0.94883   0.21785   0.55615   0.00000  Uiso   1.00
C491   C     0.95695   0.28763   0.50398   0.00000  Uiso   1.00
C492   C     0.83644   0.24993   0.50169   0.00000  Uiso   1.00
C493   C     0.54328   0.21087   0.50932   0.00000  Uiso   1.00
C494   C     0.59615   0.28665   0.54203   0.00000  Uiso   1.00
C495   C     0.90281   0.21698   0.54622   0.00000  Uiso   1.00
C496   C     0.91165   0.28568   0.49117   0.00000  Uiso   1.00
C497   C     0.58843   0.21234   0.49554   0.00000  Uiso   1.00
C498   C     0.61534   0.25024   0.51226   0.00000  Uiso   1.00
C499   C     0.88438   0.25018   0.51220   0.00000  Uiso   1.00
C500   C     0.52402   0.24842   0.53572   0.00000  Uiso   1.00
C501   C     0.97558   0.25302   0.53504   0.00000  Uiso   1.00
C502   C     0.64257   0.31500   0.60395   0.00000  Uiso   1.00
C503   C     0.72912   0.10239   0.46216   0.00000  Uiso   1.00
C504   C     0.61510   0.33494   0.64800   0.00000  Uiso   1.00
C505   C     0.64126   0.33088   0.36391   0.00000  Uiso   1.00
C506   C     0.85855   0.19559   0.61334   0.00000  Uiso   1.00
C507   C     0.88737   0.17699   0.65689   0.00000  Uiso   1.00
C508   C     0.86131   0.17859   0.37322   0.00000  Uiso   1.00
C509   C     0.89989   0.29931   0.40725   0.00000  Uiso   1.00
C510   C     0.93035   0.33186   0.37638   0.00000  Uiso   1.00
C511   C     0.93713   0.31323   0.65631   0.00000  Uiso   1.00
C512   C     0.60952   0.19093   0.41557   0.00000  Uiso   1.00
C513   C     0.56534   0.18232   0.38696   0.00000  Uiso   1.00
C514   C     0.78553   0.39768   0.52007   0.00000  Uiso   1.00
C515   C     0.57081   0.19278   0.66427   0.00000  Uiso   1.00
C516   C     0.77076   0.10204   0.53778   0.00000  Uiso   1.00
C517   C     0.71443   0.39786   0.47986   0.00000  Uiso   1.00
C518   C     0.72877   0.05276   0.46130   0.00000  Uiso   1.00
C519   C     0.78623   0.44728   0.52025   0.00000  Uiso   1.00
C520   C     0.77103   0.05245   0.53850   0.00000  Uiso   1.00
H521   H     0.71271   0.12187   0.43234   0.00000  Uiso   1.00
H522   H     0.81542   0.46496   0.53568   0.00000  Uiso   1.00
H523   H     0.78715   0.03458   0.56965   0.00000  Uiso   1.00
H524   H     0.68447   0.46532   0.46399   0.00000  Uiso   1.00
H525   H     0.67590   0.33288   0.60334   0.00000  Uiso   1.00
H526   H     0.64954   0.27665   0.60997   0.00000  Uiso   1.00
H527   H     0.60714   0.37269   0.64085   0.00000  Uiso   1.00
H528   H     0.58276   0.31546   0.65161   0.00000  Uiso   1.00
H529   H     0.65167   0.29379   0.37063   0.00000  Uiso   1.00
H530   H     0.61961   0.34273   0.39569   0.00000  Uiso   1.00
H531   H     0.67195   0.35331   0.36258   0.00000  Uiso   1.00
H532   H     0.81363   0.37829   0.53594   0.00000  Uiso   1.00
H533   H     0.82444   0.17979   0.61644   0.00000  Uiso   1.00
H534   H     0.85370   0.23455   0.61682   0.00000  Uiso   1.00
H535   H     0.89762   0.13992   0.64928   0.00000  Uiso   1.00
H536   H     0.91840   0.19865   0.66032   0.00000  Uiso   1.00
H537   H     0.84773   0.21451   0.38019   0.00000  Uiso   1.00
H538   H     0.88411   0.16876   0.40466   0.00000  Uiso   1.00
H539   H     0.83268   0.15336   0.37232   0.00000  Uiso   1.00
H540   H     0.86595   0.29836   0.38948   0.00000  Uiso   1.00
H541   H     0.91394   0.26266   0.40555   0.00000  Uiso   1.00
H542   H     0.91490   0.36761   0.37463   0.00000  Uiso   1.00
H543   H     0.78708   0.12118   0.56771   0.00000  Uiso   1.00
H544   H     0.96386   0.33475   0.39489   0.00000  Uiso   1.00
H545   H     0.95463   0.27852   0.65714   0.00000  Uiso   1.00
H546   H     0.95831   0.33826   0.63451   0.00000  Uiso   1.00
H547   H     0.90408   0.30941   0.63702   0.00000  Uiso   1.00
H548   H     0.63682   0.16968   0.39776   0.00000  Uiso   1.00
H549   H     0.61978   0.22851   0.41170   0.00000  Uiso   1.00
H550   H     0.55491   0.14498   0.39182   0.00000  Uiso   1.00
H551   H     0.53823   0.20543   0.40232   0.00000  Uiso   1.00
H552   H     0.58126   0.22993   0.65851   0.00000  Uiso   1.00
H553   H     0.53811   0.18716   0.64479   0.00000  Uiso   1.00
H554   H     0.68635   0.37860   0.46408   0.00000  Uiso   1.00
H555   H     0.59661   0.16902   0.64734   0.00000  Uiso   1.00
H556   H     0.53454   0.31562   0.57141   0.00000  Uiso   1.00
H557   H     0.96395   0.19041   0.57904   0.00000  Uiso   1.00
H558   H     0.97832   0.31397   0.48649   0.00000  Uiso   1.00
H559   H     0.52235   0.18234   0.49561   0.00000  Uiso   1.00
H560   H     0.71256   0.03512   0.43015   0.00000  Uiso   1.00
N561   N     0.75000   0.12623   0.50000   0.00000  Uiso   1.00
N562   N     0.75000   0.37376   0.50000   0.00000  Uiso   1.00
O563   O     0.68453   0.28974   0.50000   0.00000  Uiso   1.00
O564   O     0.87688   0.18117   0.56653   0.00000  Uiso   1.00
O565   O     0.89467   0.31759   0.45659   0.00000  Uiso   1.00
O566   O     0.60577   0.17607   0.46630   0.00000  Uiso   1.00
O567   O     0.81547   0.21026   0.50000   0.00000  Uiso   1.00
O568   O     0.81547   0.28974   0.50000   0.00000  Uiso   1.00
O569   O     0.68453   0.21026   0.50000   0.00000  Uiso   1.00
O570   O     0.75000   0.28973   0.42845   0.00000  Uiso   1.00
O571   O     0.75000   0.21027   0.57155   0.00000  Uiso   1.00
O572   O     0.75000   0.28973   0.57155   0.00000  Uiso   1.00
O573   O     0.75000   0.21027   0.42845   0.00000  Uiso   1.00
O574   O     0.62105   0.32516   0.55768   0.00000  Uiso   1.00
Zn575  Zn    0.75000   0.30307   0.50000   0.00000  Uiso   1.00
Zn576  Zn    0.75000   0.19693   0.50000   0.00000  Uiso   1.00
C577   C     0.16351   0.75012   0.50193   0.00000  Uiso   1.00
C578   C     0.21367   0.94748   0.47949   0.00000  Uiso   1.00
C579   C     0.24989   0.75001   0.40621   0.00000  Uiso   1.00
C580   C     0.24984   0.75000   0.59380   0.00000  Uiso   1.00
C581   C     0.24990   0.52667   0.49986   0.00000  Uiso   1.00
C582   C     0.24994   0.97331   0.49983   0.00000  Uiso   1.00
C583   C     0.24976   0.75002   0.35515   0.00000  Uiso   1.00
C584   C     0.24973   0.75002   0.64486   0.00000  Uiso   1.00
C585   C     0.05017   0.78605   0.55216   0.00000  Uiso   1.00
C586   C     0.44883   0.71785   0.55615   0.00000  Uiso   1.00
C587   C     0.45695   0.78763   0.50398   0.00000  Uiso   1.00
C588   C     0.33644   0.74993   0.50169   0.00000  Uiso   1.00
C589   C     0.04328   0.71087   0.50932   0.00000  Uiso   1.00
C590   C     0.09615   0.78665   0.54203   0.00000  Uiso   1.00
C591   C     0.40281   0.71698   0.54622   0.00000  Uiso   1.00
C592   C     0.41165   0.78568   0.49117   0.00000  Uiso   1.00
C593   C     0.08843   0.71234   0.49554   0.00000  Uiso   1.00
C594   C     0.11534   0.75024   0.51226   0.00000  Uiso   1.00
C595   C     0.38438   0.75018   0.51220   0.00000  Uiso   1.00
C596   C     0.02402   0.74842   0.53572   0.00000  Uiso   1.00
C597   C     0.47558   0.75302   0.53504   0.00000  Uiso   1.00
C598   C     0.14257   0.81500   0.60395   0.00000  Uiso   1.00
C599   C     0.22912   0.60239   0.46216   0.00000  Uiso   1.00
C600   C     0.11510   0.83494   0.64800   0.00000  Uiso   1.00
C601   C     0.14126   0.83088   0.36391   0.00000  Uiso   1.00
C602   C     0.35855   0.69559   0.61334   0.00000  Uiso   1.00
C603   C     0.38737   0.67699   0.65689   0.00000  Uiso   1.00
C604   C     0.36131   0.67859   0.37322   0.00000  Uiso   1.00
C605   C     0.39989   0.79931   0.40725   0.00000  Uiso   1.00
C606   C     0.43035   0.83186   0.37638   0.00000  Uiso   1.00
C607   C     0.43713   0.81323   0.65631   0.00000  Uiso   1.00
C608   C     0.10952   0.69093   0.41557   0.00000  Uiso   1.00
C609   C     0.06534   0.68232   0.38696   0.00000  Uiso   1.00
C610   C     0.28553   0.89768   0.52007   0.00000  Uiso   1.00
C611   C     0.07081   0.69278   0.66427   0.00000  Uiso   1.00
C612   C     0.27076   0.60204   0.53778   0.00000  Uiso   1.00
C613   C     0.21443   0.89786   0.47986   0.00000  Uiso   1.00
C614   C     0.22877   0.55276   0.46130   0.00000  Uiso   1.00
C615   C     0.28623   0.94728   0.52025   0.00000  Uiso   1.00
C616   C     0.27103   0.55245   0.53850   0.00000  Uiso   1.00
H617   H     0.21271   0.62187   0.43234   0.00000  Uiso   1.00
H618   H     0.31542   0.96496   0.53568   0.00000  Uiso   1.00
H619   H     0.28715   0.53458   0.56965   0.00000  Uiso   1.00
H620   H     0.18447   0.96532   0.46399   0.00000  Uiso   1.00
H621   H     0.17590   0.83288   0.60334   0.00000  Uiso   1.00
H622   H     0.14954   0.77665   0.60997   0.00000  Uiso   1.00
H623   H     0.10714   0.87269   0.64085   0.00000  Uiso   1.00
H624   H     0.08276   0.81546   0.65161   0.00000  Uiso   1.00
H625   H     0.15167   0.79379   0.37063   0.00000  Uiso   1.00
H626   H     0.11961   0.84273   0.39569   0.00000  Uiso   1.00
H627   H     0.17195   0.85331   0.36258   0.00000  Uiso   1.00
H628   H     0.31363   0.87829   0.53594   0.00000  Uiso   1.00
H629   H     0.32444   0.67979   0.61644   0.00000  Uiso   1.00
H630   H     0.35370   0.73455   0.61682   0.00000  Uiso   1.00
H631   H     0.39762   0.63992   0.64928   0.00000  Uiso   1.00
H632   H     0.41840   0.69865   0.66032   0.00000  Uiso   1.00
H633   H     0.34773   0.71451   0.38019   0.00000  Uiso   1.00
H634   H     0.38411   0.66876   0.40466   0.00000  Uiso   1.00
H635   H     0.33268   0.65336   0.37232   0.00000  Uiso   1.00
H636   H     0.36595   0.79836   0.38948   0.00000  Uiso   1.00
H637   H     0.41394   0.76266   0.40555   0.00000  Uiso   1.00
H638   H     0.41490   0.86761   0.37463   0.00000  Uiso   1.00
H639   H     0.28708   0.62118   0.56771   0.00000  Uiso   1.00
H640   H     0.46386   0.83475   0.39489   0.00000  Uiso   1.00
H641   H     0.45463   0.77852   0.65714   0.00000  Uiso   1.00
H642   H     0.45831   0.83826   0.63451   0.00000  Uiso   1.00
H643   H     0.40408   0.80941   0.63702   0.00000  Uiso   1.00
H644   H     0.13682   0.66968   0.39776   0.00000  Uiso   1.00
H645   H     0.11978   0.72851   0.41170   0.00000  Uiso   1.00
H646   H     0.05491   0.64498   0.39182   0.00000  Uiso   1.00
H647   H     0.03823   0.70543   0.40232   0.00000  Uiso   1.00
H648   H     0.08126   0.72993   0.65851   0.00000  Uiso   1.00
H649   H     0.03811   0.68716   0.64479   0.00000  Uiso   1.00
H650   H     0.18635   0.87860   0.46408   0.00000  Uiso   1.00
H651   H     0.09661   0.66902   0.64734   0.00000  Uiso   1.00
H652   H     0.03454   0.81562   0.57141   0.00000  Uiso   1.00
H653   H     0.46395   0.69041   0.57904   0.00000  Uiso   1.00
H654   H     0.47832   0.81397   0.48649   0.00000  Uiso   1.00
H655   H     0.02235   0.68234   0.49561   0.00000  Uiso   1.00
H656   H     0.21256   0.53512   0.43015   0.00000  Uiso   1.00
N657   N     0.25000   0.62623   0.50000   0.00000  Uiso   1.00
N658   N     0.25000   0.87376   0.50000   0.00000  Uiso   1.00
O659   O     0.18453   0.78974   0.50000   0.00000  Uiso   1.00
O660   O     0.37688   0.68117   0.56653   0.00000  Uiso   1.00
O661   O     0.39467   0.81759   0.45659   0.00000  Uiso   1.00
O662   O     0.10577   0.67607   0.46630   0.00000  Uiso   1.00
O663   O     0.31547   0.71026   0.50000   0.00000  Uiso   1.00
O664   O     0.31547   0.78974   0.50000   0.00000  Uiso   1.00
O665   O     0.18453   0.71026   0.50000   0.00000  Uiso   1.00
O666   O     0.25000   0.78973   0.42845   0.00000  Uiso   1.00
O667   O     0.25000   0.71027   0.57155   0.00000  Uiso   1.00
O668   O     0.25000   0.78973   0.57155   0.00000  Uiso   1.00
O669   O     0.25000   0.71027   0.42845   0.00000  Uiso   1.00
O670   O     0.12105   0.82516   0.55768   0.00000  Uiso   1.00
Zn671  Zn    0.25000   0.80307   0.50000   0.00000  Uiso   1.00
Zn672  Zn    0.25000   0.69693   0.50000   0.00000  Uiso   1.00
C673   C     0.66351   0.75012   0.50193   0.00000  Uiso   1.00
C674   C     0.71367   0.94748   0.47949   0.00000  Uiso   1.00
C675   C     0.74989   0.75001   0.40621   0.00000  Uiso   1.00
C676   C     0.74984   0.75000   0.59380   0.00000  Uiso   1.00
C677   C     0.74990   0.52667   0.49986   0.00000  Uiso   1.00
C678   C     0.74994   0.97331   0.49983   0.00000  Uiso   1.00
C679   C     0.74976   0.75002   0.35515   0.00000  Uiso   1.00
C680   C     0.74973   0.75002   0.64486   0.00000  Uiso   1.00
C681   C     0.55017   0.78605   0.55216   0.00000  Uiso   1.00
C682   C     0.94883   0.71785   0.55615   0.00000  Uiso   1.00
C683   C     0.95695   0.78763   0.50398   0.00000  Uiso   1.00
C684   C     0.83644   0.74993   0.50169   0.00000  Uiso   1.00
C685   C     0.54328   0.71087   0.50932   0.00000  Uiso   1.00
C686   C     0.59615   0.78665   0.54203   0.00000  Uiso   1.00
C687   C     0.90281   0.71698   0.54622   0.00000  Uiso   1.00
C688   C     0.91165   0.78568   0.49117   0.00000  Uiso   1.00
C689   C     0.58843   0.71234   0.49554   0.00000  Uiso   1.00
C690   C     0.61534   0.75024   0.51226   0.00000  Uiso   1.00
C691   C     0.88438   0.75018   0.51220   0.00000  Uiso   1.00
C692   C     0.52402   0.74842   0.53572   0.00000  Uiso   1.00
C693   C     0.97558   0.75302   0.53504   0.00000  Uiso   1.00
C694   C     0.64257   0.81500   0.60395   0.00000  Uiso   1.00
C695   C     0.72912   0.60239   0.46216   0.00000  Uiso   1.00
C696   C     0.61510   0.83494   0.64800   0.00000  Uiso   1.00
C697   C     0.64126   0.83088   0.36391   0.00000  Uiso   1.00
C698   C     0.85855   0.69559   0.61334   0.00000  Uiso   1.00
C699   C     0.88737   0.67699   0.65689   0.00000  Uiso   1.00
C700   C     0.86131   0.67859   0.37322   0.00000  Uiso   1.00
C701   C     0.89989   0.79931   0.40725   0.00000  Uiso   1.00
C702   C     0.93035   0.83186   0.37638   0.00000  Uiso   1.00
C703   C     0.93713   0.81323   0.65631   0.00000  Uiso   1.00
C704   C     0.60952   0.69093   0.41557   0.00000  Uiso   1.00
C705   C     0.56534   0.68232   0.38696   0.00000  Uiso   1.00
C706   C     0.78553   0.89768   0.52007   0.00000  Uiso   1.00
C707   C     0.57081   0.69278   0.66427   0.00000  Uiso   1.00
C708   C     0.77076   0.60204   0.53778   0.00000  Uiso   1.00
C709   C     0.71443   0.89786   0.47986   0.00000  Uiso   1.00
C710   C     0.72877   0.55276   0.46130   0.00000  Uiso   1.00
C711   C     0.78623   0.94728   0.52025   0.00000  Uiso   1.00
C712   C     0.77103   0.55245   0.53850   0.00000  Uiso   1.00
H713   H     0.71271   0.62187   0.43234   0.00000  Uiso   1.00
H714   H     0.81542   0.96496   0.53568   0.00000  Uiso   1.00
H715   H     0.78715   0.53458   0.56965   0.00000  Uiso   1.00
H716   H     0.68447   0.96532   0.46399   0.00000  Uiso   1.00
H717   H     0.67590   0.83288   0.60334   0.00000  Uiso   1.00
H718   H     0.64954   0.77665   0.60997   0.00000  Uiso   1.00
H719   H     0.60714   0.87269   0.64085   0.00000  Uiso   1.00
H720   H     0.58276   0.81546   0.65161   0.00000  Uiso   1.00
H721   H     0.65167   0.79379   0.37063   0.00000  Uiso   1.00
H722   H     0.61961   0.84273   0.39569   0.00000  Uiso   1.00
H723   H     0.67195   0.85331   0.36258   0.00000  Uiso   1.00
H724   H     0.81363   0.87829   0.53594   0.00000  Uiso   1.00
H725   H     0.82444   0.67979   0.61644   0.00000  Uiso   1.00
H726   H     0.85370   0.73455   0.61682   0.00000  Uiso   1.00
H727   H     0.89762   0.63992   0.64928   0.00000  Uiso   1.00
H728   H     0.91840   0.69865   0.66032   0.00000  Uiso   1.00
H729   H     0.84773   0.71451   0.38019   0.00000  Uiso   1.00
H730   H     0.88411   0.66876   0.40466   0.00000  Uiso   1.00
H731   H     0.83268   0.65336   0.37232   0.00000  Uiso   1.00
H732   H     0.86595   0.79836   0.38948   0.00000  Uiso   1.00
H733   H     0.91394   0.76266   0.40555   0.00000  Uiso   1.00
H734   H     0.91490   0.86761   0.37463   0.00000  Uiso   1.00
H735   H     0.78708   0.62118   0.56771   0.00000  Uiso   1.00
H736   H     0.96386   0.83475   0.39489   0.00000  Uiso   1.00
H737   H     0.95463   0.77852   0.65714   0.00000  Uiso   1.00
H738   H     0.95831   0.83826   0.63451   0.00000  Uiso   1.00
H739   H     0.90408   0.80941   0.63702   0.00000  Uiso   1.00
H740   H     0.63682   0.66968   0.39776   0.00000  Uiso   1.00
H741   H     0.61978   0.72851   0.41170   0.00000  Uiso   1.00
H742   H     0.55491   0.64498   0.39182   0.00000  Uiso   1.00
H743   H     0.53823   0.70543   0.40232   0.00000  Uiso   1.00
H744   H     0.58126   0.72993   0.65851   0.00000  Uiso   1.00
H745   H     0.53811   0.68716   0.64479   0.00000  Uiso   1.00
H746   H     0.68635   0.87860   0.46408   0.00000  Uiso   1.00
H747   H     0.59661   0.66902   0.64734   0.00000  Uiso   1.00
H748   H     0.53454   0.81562   0.57141   0.00000  Uiso   1.00
H749   H     0.96395   0.69041   0.57904   0.00000  Uiso   1.00
H750   H     0.97832   0.81397   0.48649   0.00000  Uiso   1.00
H751   H     0.52235   0.68234   0.49561   0.00000  Uiso   1.00
H752   H     0.71256   0.53512   0.43015   0.00000  Uiso   1.00
N753   N     0.75000   0.62623   0.50000   0.00000  Uiso   1.00
N754   N     0.75000   0.87376   0.50000   0.00000  Uiso   1.00
O755   O     0.68453   0.78974   0.50000   0.00000  Uiso   1.00
O756   O     0.87688   0.68117   0.56653   0.00000  Uiso   1.00
O757   O     0.89467   0.81759   0.45659   0.00000  Uiso   1.00
O758   O     0.60577   0.67607   0.46630   0.00000  Uiso   1.00
O759   O     0.81547   0.71026   0.50000   0.00000  Uiso   1.00
O760   O     0.81547   0.78974   0.50000   0.00000  Uiso   1.00
O761   O     0.68453   0.71026   0.50000   0.00000  Uiso   1.00
O762   O     0.75000   0.78973   0.42845   0.00000  Uiso   1.00
O763   O     0.75000   0.71027   0.57155   0.00000  Uiso   1.00
O764   O     0.75000   0.78973   0.57155   0.00000  Uiso   1.00
O765   O     0.75000   0.71027   0.42845   0.00000  Uiso   1.00
O766   O     0.62105   0.82516   0.55768   0.00000  Uiso   1.00
Zn767  Zn    0.75000   0.80307   0.50000   0.00000  Uiso   1.00
Zn768  Zn    0.75000   0.69693   0.50000   0.00000  Uiso   1.00
C769   C     0.16351   0.25012   0.83526   0.00000  Uiso   1.00
C770   C     0.21367   0.44748   0.81282   0.00000  Uiso   1.00
C771   C     0.24989   0.25001   0.73954   0.00000  Uiso   1.00
C772   C     0.24984   0.25000   0.92713   0.00000  Uiso   1.00
C773   C     0.24990   0.02667   0.83319   0.00000  Uiso   1.00
C774   C     0.24994   0.47331   0.83317   0.00000  Uiso   1.00
C775   C     0.24976   0.25002   0.68849   0.00000  Uiso   1.00
C776   C     0.24973   0.25002   0.97819   0.00000  Uiso   1.00
C777   C     0.05017   0.28605   0.88549   0.00000  Uiso   1.00
C778   C     0.44883   0.21785   0.88948   0.00000  Uiso   1.00
C779   C     0.45695   0.28763   0.83731   0.00000  Uiso   1.00
C780   C     0.33644   0.24993   0.83503   0.00000  Uiso   1.00
C781   C     0.04328   0.21087   0.84266   0.00000  Uiso   1.00
C782   C     0.09615   0.28665   0.87536   0.00000  Uiso   1.00
C783   C     0.40281   0.21698   0.87956   0.00000  Uiso   1.00
C784   C     0.41165   0.28568   0.82451   0.00000  Uiso   1.00
C785   C     0.08843   0.21234   0.82887   0.00000  Uiso   1.00
C786   C     0.11534   0.25024   0.84559   0.00000  Uiso   1.00
C787   C     0.38438   0.25018   0.84553   0.00000  Uiso   1.00
C788   C     0.02402   0.24842   0.86906   0.00000  Uiso   1.00
C789   C     0.47558   0.25302   0.86838   0.00000  Uiso   1.00
C790   C     0.14257   0.31500   0.93728   0.00000  Uiso   1.00
C791   C     0.22912   0.10239   0.79550   0.00000  Uiso   1.00
C792   C     0.11510   0.33494   0.98133   0.00000  Uiso   1.00
C793   C     0.14126   0.33088   0.69725   0.00000  Uiso   1.00
C794   C     0.35855   0.19559   0.94667   0.00000  Uiso   1.00
C795   C     0.38737   0.17699   0.99023   0.00000  Uiso   1.00
C796   C     0.36131   0.17859   0.70655   0.00000  Uiso   1.00
C797   C     0.39989   0.29931   0.74058   0.00000  Uiso   1.00
C798   C     0.43035   0.33186   0.70971   0.00000  Uiso   1.00
C799   C     0.43713   0.31323   0.98964   0.00000  Uiso   1.00
C800   C     0.10952   0.19093   0.74890   0.00000  Uiso   1.00
C801   C     0.06534   0.18232   0.72029   0.00000  Uiso   1.00
C802   C     0.28553   0.39768   0.85340   0.00000  Uiso   1.00
C803   C     0.07081   0.19278   0.99760   0.00000  Uiso   1.00
C804   C     0.27076   0.10204   0.87111   0.00000  Uiso   1.00
C805   C     0.21443   0.39786   0.81319   0.00000  Uiso   1.00
C806   C     0.22877   0.05276   0.79463   0.00000  Uiso   1.00
C807   C     0.28623   0.44728   0.85358   0.00000  Uiso   1.00
C808   C     0.27103   0.05245   0.87183   0.00000  Uiso   1.00
H809   H     0.21271   0.12187   0.76567   0.00000  Uiso   1.00
H810   H     0.31542   0.46496   0.86901   0.00000  Uiso   1.00
H811   H     0.28715   0.03458   0.90298   0.00000  Uiso   1.00
H812   H     0.18447   0.46532   0.79732   0.00000  Uiso   1.00
H813   H     0.17590   0.33288   0.93668   0.00000  Uiso   1.00
H814   H     0.14954   0.27665   0.94331   0.00000  Uiso   1.00
H815   H     0.10714   0.37269   0.97418   0.00000  Uiso   1.00
H816   H     0.08276   0.31546   0.98495   0.00000  Uiso   1.00
H817   H     0.15167   0.29379   0.70397   0.00000  Uiso   1.00
H818   H     0.11961   0.34273   0.72902   0.00000  Uiso   1.00
H819   H     0.17195   0.35331   0.69591   0.00000  Uiso   1.00
H820   H     0.31363   0.37829   0.86927   0.00000  Uiso   1.00
H821   H     0.32444   0.17979   0.94977   0.00000  Uiso   1.00
H822   H     0.35370   0.23455   0.95015   0.00000  Uiso   1.00
H823   H     0.39762   0.13992   0.98261   0.00000  Uiso   1.00
H824   H     0.41840   0.19865   0.99365   0.00000  Uiso   1.00
H825   H     0.34773   0.21451   0.71353   0.00000  Uiso   1.00
H826   H     0.38411   0.16876   0.73799   0.00000  Uiso   1.00
H827   H     0.33268   0.15336   0.70565   0.00000  Uiso   1.00
H828   H     0.36595   0.29836   0.72281   0.00000  Uiso   1.00
H829   H     0.41394   0.26266   0.73889   0.00000  Uiso   1.00
H830   H     0.41490   0.36761   0.70797   0.00000  Uiso   1.00
H831   H     0.28708   0.12118   0.90105   0.00000  Uiso   1.00
H832   H     0.46386   0.33475   0.72822   0.00000  Uiso   1.00
H833   H     0.45463   0.27852   0.99048   0.00000  Uiso   1.00
H834   H     0.45831   0.33826   0.96785   0.00000  Uiso   1.00
H835   H     0.40408   0.30941   0.97036   0.00000  Uiso   1.00
H836   H     0.13682   0.16968   0.73109   0.00000  Uiso   1.00
H837   H     0.11978   0.22851   0.74504   0.00000  Uiso   1.00
H838   H     0.05491   0.14498   0.72516   0.00000  Uiso   1.00
H839   H     0.03823   0.20543   0.73565   0.00000  Uiso   1.00
H840   H     0.08126   0.22993   0.99184   0.00000  Uiso   1.00
H841   H     0.03811   0.18716   0.97812   0.00000  Uiso   1.00
H842   H     0.18635   0.37860   0.79742   0.00000  Uiso   1.00
H843   H     0.09661   0.16902   0.98067   0.00000  Uiso   1.00
H844   H     0.03454   0.31562   0.90474   0.00000  Uiso   1.00
H845   H     0.46395   0.19041   0.91237   0.00000  Uiso   1.00
H846   H     0.47832   0.31397   0.81982   0.00000  Uiso   1.00
H847   H     0.02235   0.18234   0.82894   0.00000  Uiso   1.00
H848   H     0.21256   0.03512   0.76349   0.00000  Uiso   1.00
N849   N     0.25000   0.12623   0.83333   0.00000  Uiso   1.00
N850   N     0.25000   0.37376   0.83333   0.00000  Uiso   1.00
O851   O     0.18453   0.28974   0.83334   0.00000  Uiso   1.00
O852   O     0.37688   0.18117   0.89986   0.00000  Uiso   1.00
O853   O     0.39467   0.31759   0.78992   0.00000  Uiso   1.00
O854   O     0.10577   0.17607   0.79964   0.00000  Uiso   1.00
O855   O     0.31547   0.21026   0.83333   0.00000  Uiso   1.00
O856   O     0.31547   0.28974   0.83333   0.00000  Uiso   1.00
O857   O     0.18453   0.21026   0.83334   0.00000  Uiso   1.00
O858   O     0.25000   0.28973   0.76178   0.00000  Uiso   1.00
O859   O     0.25000   0.21027   0.90489   0.00000  Uiso   1.00
O860   O     0.25000   0.28973   0.90489   0.00000  Uiso   1.00
O861   O     0.25000   0.21027   0.76178   0.00000  Uiso   1.00
O862   O     0.12105   0.32516   0.89101   0.00000  Uiso   1.00
Zn863  Zn    0.25000   0.30307   0.83333   0.00000  Uiso   1.00
Zn864  Zn    0.25000   0.19693   0.83333   0.00000  Uiso   1.00
C865   C     0.66351   0.25012   0.83526   0.00000  Uiso   1.00
C866   C     0.71367   0.44748   0.81282   0.00000  Uiso   1.00
C867   C     0.74989   0.25001   0.73954   0.00000  Uiso   1.00
C868   C     0.74984   0.25000   0.92713   0.00000  Uiso   1.00
C869   C     0.74990   0.02667   0.83319   0.00000  Uiso   1.00
C870   C     0.74994   0.47331   0.83317   0.00000  Uiso   1.00
C871   C     0.74976   0.25002   0.68849   0.00000  Uiso   1.00
C872   C     0.74973   0.25002   0.97819   0.00000  Uiso   1.00
C873   C     0.55017   0.28605   0.88549   0.00000  Uiso   1.00
C874   C     0.94883   0.21785   0.88948   0.00000  Uiso   1.00
C875   C     0.95695   0.28763   0.83731   0.00000  Uiso   1.00
C876   C     0.83644   0.24993   0.83503   0.00000  Uiso   1.00
C877   C     0.54328   0.21087   0.84266   0.00000  Uiso   1.00
C878   C     0.59615   0.28665   0.87536   0.00000  Uiso   1.00
C879   C     0.90281   0.21698   0.87956   0.00000  Uiso   1.00
C880   C     0.91165   0.28568   0.82451   0.00000  Uiso   1.00
C881   C     0.58843   0.21234   0.82887   0.00000  Uiso   1.00
C882   C     0.61534   0.25024   0.84559   0.00000  Uiso   1.00
C883   C     0.88438   0.25018   0.84553   0.00000  Uiso   1.00
C884   C     0.52402   0.24842   0.86906   0.00000  Uiso   1.00
C885   C     0.97558   0.25302   0.86838   0.00000  Uiso   1.00
C886   C     0.64257   0.31500   0.93728   0.00000  Uiso   1.00
C887   C     0.72912   0.10239   0.79550   0.00000  Uiso   1.00
C888   C     0.61510   0.33494   0.98133   0.00000  Uiso   1.00
C889   C     0.64126   0.33088   0.69725   0.00000  Uiso   1.00
C890   C     0.85855   0.19559   0.94667   0.00000  Uiso   1.00
C891   C     0.88737   0.17699   0.99023   0.00000  Uiso   1.00
C892   C     0.86131   0.17859   0.70655   0.00000  Uiso   1.00
C893   C     0.89989   0.29931   0.74058   0.00000  Uiso   1.00
C894   C     0.93035   0.33186   0.70971   0.00000  Uiso   1.00
C895   C     0.93713   0.31323   0.98964   0.00000  Uiso   1.00
C896   C     0.60952   0.19093   0.74890   0.00000  Uiso   1.00
C897   C     0.56534   0.18232   0.72029   0.00000  Uiso   1.00
C898   C     0.78553   0.39768   0.85340   0.00000  Uiso   1.00
C899   C     0.57081   0.19278   0.99760   0.00000  Uiso   1.00
C900   C     0.77076   0.10204   0.87111   0.00000  Uiso   1.00
C901   C     0.71443   0.39786   0.81319   0.00000  Uiso   1.00
C902   C     0.72877   0.05276   0.79463   0.00000  Uiso   1.00
C903   C     0.78623   0.44728   0.85358   0.00000  Uiso   1.00
C904   C     0.77103   0.05245   0.87183   0.00000  Uiso   1.00
H905   H     0.71271   0.12187   0.76567   0.00000  Uiso   1.00
H906   H     0.81542   0.46496   0.86901   0.00000  Uiso   1.00
H907   H     0.78715   0.03458   0.90298   0.00000  Uiso   1.00
H908   H     0.68447   0.46532   0.79732   0.00000  Uiso   1.00
H909   H     0.67590   0.33288   0.93668   0.00000  Uiso   1.00
H910   H     0.64954   0.27665   0.94331   0.00000  Uiso   1.00
H911   H     0.60714   0.37269   0.97418   0.00000  Uiso   1.00
H912   H     0.58276   0.31546   0.98495   0.00000  Uiso   1.00
H913   H     0.65167   0.29379   0.70397   0.00000  Uiso   1.00
H914   H     0.61961   0.34273   0.72902   0.00000  Uiso   1.00
H915   H     0.67195   0.35331   0.69591   0.00000  Uiso   1.00
H916   H     0.81363   0.37829   0.86927   0.00000  Uiso   1.00
H917   H     0.82444   0.17979   0.94977   0.00000  Uiso   1.00
H918   H     0.85370   0.23455   0.95015   0.00000  Uiso   1.00
H919   H     0.89762   0.13992   0.98261   0.00000  Uiso   1.00
H920   H     0.91840   0.19865   0.99365   0.00000  Uiso   1.00
H921   H     0.84773   0.21451   0.71353   0.00000  Uiso   1.00
H922   H     0.88411   0.16876   0.73799   0.00000  Uiso   1.00
H923   H     0.83268   0.15336   0.70565   0.00000  Uiso   1.00
H924   H     0.86595   0.29836   0.72281   0.00000  Uiso   1.00
H925   H     0.91394   0.26266   0.73889   0.00000  Uiso   1.00
H926   H     0.91490   0.36761   0.70797   0.00000  Uiso   1.00
H927   H     0.78708   0.12118   0.90105   0.00000  Uiso   1.00
H928   H     0.96386   0.33475   0.72822   0.00000  Uiso   1.00
H929   H     0.95463   0.27852   0.99048   0.00000  Uiso   1.00
H930   H     0.95831   0.33826   0.96785   0.00000  Uiso   1.00
H931   H     0.90408   0.30941   0.97036   0.00000  Uiso   1.00
H932   H     0.63682   0.16968   0.73109   0.00000  Uiso   1.00
H933   H     0.61978   0.22851   0.74504   0.00000  Uiso   1.00
H934   H     0.55491   0.14498   0.72516   0.00000  Uiso   1.00
H935   H     0.53823   0.20543   0.73565   0.00000  Uiso   1.00
H936   H     0.58126   0.22993   0.99184   0.00000  Uiso   1.00
H937   H     0.53811   0.18716   0.97812   0.00000  Uiso   1.00
H938   H     0.68635   0.37860   0.79742   0.00000  Uiso   1.00
H939   H     0.59661   0.16902   0.98067   0.00000  Uiso   1.00
H940   H     0.53454   0.31562   0.90474   0.00000  Uiso   1.00
H941   H     0.96395   0.19041   0.91237   0.00000  Uiso   1.00
H942   H     0.97832   0.31397   0.81982   0.00000  Uiso   1.00
H943   H     0.52235   0.18234   0.82894   0.00000  Uiso   1.00
H944   H     0.71256   0.03512   0.76349   0.00000  Uiso   1.00
N945   N     0.75000   0.12623   0.83333   0.00000  Uiso   1.00
N946   N     0.75000   0.37376   0.83333   0.00000  Uiso   1.00
O947   O     0.68453   0.28974   0.83334   0.00000  Uiso   1.00
O948   O     0.87688   0.18117   0.89986   0.00000  Uiso   1.00
O949   O     0.89467   0.31759   0.78992   0.00000  Uiso   1.00
O950   O     0.60577   0.17607   0.79964   0.00000  Uiso   1.00
O951   O     0.81547   0.21026   0.83333   0.00000  Uiso   1.00
O952   O     0.81547   0.28974   0.83333   0.00000  Uiso   1.00
O953   O     0.68453   0.21026   0.83334   0.00000  Uiso   1.00
O954   O     0.75000   0.28973   0.76178   0.00000  Uiso   1.00
O955   O     0.75000   0.21027   0.90489   0.00000  Uiso   1.00
O956   O     0.75000   0.28973   0.90489   0.00000  Uiso   1.00
O957   O     0.75000   0.21027   0.76178   0.00000  Uiso   1.00
O958   O     0.62105   0.32516   0.89101   0.00000  Uiso   1.00
Zn959  Zn    0.75000   0.30307   0.83333   0.00000  Uiso   1.00
Zn960  Zn    0.75000   0.19693   0.83333   0.00000  Uiso   1.00
C961   C     0.16351   0.75012   0.83526   0.00000  Uiso   1.00
C962   C     0.21367   0.94748   0.81282   0.00000  Uiso   1.00
C963   C     0.24989   0.75001   0.73954   0.00000  Uiso   1.00
C964   C     0.24984   0.75000   0.92713   0.00000  Uiso   1.00
C965   C     0.24990   0.52667   0.83319   0.00000  Uiso   1.00
C966   C     0.24994   0.97331   0.83317   0.00000  Uiso   1.00
C967   C     0.24976   0.75002   0.68849   0.00000  Uiso   1.00
C968   C     0.24973   0.75002   0.97819   0.00000  Uiso   1.00
C969   C     0.05017   0.78605   0.88549   0.00000  Uiso   1.00
C970   C     0.44883   0.71785   0.88948   0.00000  Uiso   1.00
C971   C     0.45695   0.78763   0.83731   0.00000  Uiso   1.00
C972   C     0.33644   0.74993   0.83503   0.00000  Uiso   1.00
C973   C     0.04328   0.71087   0.84266   0.00000  Uiso   1.00
C974   C     0.09615   0.78665   0.87536   0.00000  Uiso   1.00
C975   C     0.40281   0.71698   0.87956   0.00000  Uiso   1.00
C976   C     0.41165   0.78568   0.82451   0.00000  Uiso   1.00
C977   C     0.08843   0.71234   0.82887   0.00000  Uiso   1.00
C978   C     0.11534   0.75024   0.84559   0.00000  Uiso   1.00
C979   C     0.38438   0.75018   0.84553   0.00000  Uiso   1.00
C980   C     0.02402   0.74842   0.86906   0.00000  Uiso   1.00
C981   C     0.47558   0.75302   0.86838   0.00000  Uiso   1.00
C982   C     0.14257   0.81500   0.93728   0.00000  Uiso   1.00
C983   C     0.22912   0.60239   0.79550   0.00000  Uiso   1.00
C984   C     0.11510   0.83494   0.98133   0.00000  Uiso   1.00
C985   C     0.14126   0.83088   0.69725   0.00000  Uiso   1.00
C986   C     0.35855   0.69559   0.94667   0.00000  Uiso   1.00
C987   C     0.38737   0.67699   0.99023   0.00000  Uiso   1.00
C988   C     0.36131   0.67859   0.70655   0.00000  Uiso   1.00
C989   C     0.39989   0.79931   0.74058   0.00000  Uiso   1.00
C990   C     0.43035   0.83186   0.70971   0.00000  Uiso   1.00
C991   C     0.43713   0.81323   0.98964   0.00000  Uiso   1.00
C992   C     0.10952   0.69093   0.74890   0.00000  Uiso   1.00
C993   C     0.06534   0.68232   0.72029   0.00000  Uiso   1.00
C994   C     0.28553   0.89768   0.85340   0.00000  Uiso   1.00
C995   C     0.07081   0.69278   0.99760   0.00000  Uiso   1.00
C996   C     0.27076   0.60204   0.87111   0.00000  Uiso   1.00
C997   C     0.21443   0.89786   0.81319   0.00000  Uiso   1.00
C998   C     0.22877   0.55276   0.79463   0.00000  Uiso   1.00
C999   C     0.28623   0.94728   0.85358   0.00000  Uiso   1.00
C1000  C     0.27103   0.55245   0.87183   0.00000  Uiso   1.00
H1001  H     0.21271   0.62187   0.76567   0.00000  Uiso   1.00
H1002  H     0.31542   0.96496   0.86901   0.00000  Uiso   1.00
H1003  H     0.28715   0.53458   0.90298   0.00000  Uiso   1.00
H1004  H     0.18447   0.96532   0.79732   0.00000  Uiso   1.00
H1005  H     0.17590   0.83288   0.93668   0.00000  Uiso   1.00
H1006  H     0.14954   0.77665   0.94331   0.00000  Uiso   1.00
H1007  H     0.10714   0.87269   0.97418   0.00000  Uiso   1.00
H1008  H     0.08276   0.81546   0.98495   0.00000  Uiso   1.00
H1009  H     0.15167   0.79379   0.70397   0.00000  Uiso   1.00
H1010  H     0.11961   0.84273   0.72902   0.00000  Uiso   1.00
H1011  H     0.17195   0.85331   0.69591   0.00000  Uiso   1.00
H1012  H     0.31363   0.87829   0.86927   0.00000  Uiso   1.00
H1013  H     0.32444   0.67979   0.94977   0.00000  Uiso   1.00
H1014  H     0.35370   0.73455   0.95015   0.00000  Uiso   1.00
H1015  H     0.39762   0.63992   0.98261   0.00000  Uiso   1.00
H1016  H     0.41840   0.69865   0.99365   0.00000  Uiso   1.00
H1017  H     0.34773   0.71451   0.71353   0.00000  Uiso   1.00
H1018  H     0.38411   0.66876   0.73799   0.00000  Uiso   1.00
H1019  H     0.33268   0.65336   0.70565   0.00000  Uiso   1.00
H1020  H     0.36595   0.79836   0.72281   0.00000  Uiso   1.00
H1021  H     0.41394   0.76266   0.73889   0.00000  Uiso   1.00
H1022  H     0.41490   0.86761   0.70797   0.00000  Uiso   1.00
H1023  H     0.28708   0.62118   0.90105   0.00000  Uiso   1.00
H1024  H     0.46386   0.83475   0.72822   0.00000  Uiso   1.00
H1025  H     0.45463   0.77852   0.99048   0.00000  Uiso   1.00
H1026  H     0.45831   0.83826   0.96785   0.00000  Uiso   1.00
H1027  H     0.40408   0.80941   0.97036   0.00000  Uiso   1.00
H1028  H     0.13682   0.66968   0.73109   0.00000  Uiso   1.00
H1029  H     0.11978   0.72851   0.74504   0.00000  Uiso   1.00
H1030  H     0.05491   0.64498   0.72516   0.00000  Uiso   1.00
H1031  H     0.03823   0.70543   0.73565   0.00000  Uiso   1.00
H1032  H     0.08126   0.72993   0.99184   0.00000  Uiso   1.00
H1033  H     0.03811   0.68716   0.97812   0.00000  Uiso   1.00
H1034  H     0.18635   0.87860   0.79742   0.00000  Uiso   1.00
H1035  H     0.09661   0.66902   0.98067   0.00000  Uiso   1.00
H1036  H     0.03454   0.81562   0.90474   0.00000  Uiso   1.00
H1037  H     0.46395   0.69041   0.91237   0.00000  Uiso   1.00
H1038  H     0.47832   0.81397   0.81982   0.00000  Uiso   1.00
H1039  H     0.02235   0.68234   0.82894   0.00000  Uiso   1.00
H1040  H     0.21256   0.53512   0.76349   0.00000  Uiso   1.00
N1041  N     0.25000   0.62623   0.83333   0.00000  Uiso   1.00
N1042  N     0.25000   0.87376   0.83333   0.00000  Uiso   1.00
O1043  O     0.18453   0.78974   0.83334   0.00000  Uiso   1.00
O1044  O     0.37688   0.68117   0.89986   0.00000  Uiso   1.00
O1045  O     0.39467   0.81759   0.78992   0.00000  Uiso   1.00
O1046  O     0.10577   0.67607   0.79964   0.00000  Uiso   1.00
O1047  O     0.31547   0.71026   0.83333   0.00000  Uiso   1.00
O1048  O     0.31547   0.78974   0.83333   0.00000  Uiso   1.00
O1049  O     0.18453   0.71026   0.83334   0.00000  Uiso   1.00
O1050  O     0.25000   0.78973   0.76178   0.00000  Uiso   1.00
O1051  O     0.25000   0.71027   0.90489   0.00000  Uiso   1.00
O1052  O     0.25000   0.78973   0.90489   0.00000  Uiso   1.00
O1053  O     0.25000   0.71027   0.76178   0.00000  Uiso   1.00
O1054  O     0.12105   0.82516   0.89101   0.00000  Uiso   1.00
Zn1055 Zn    0.25000   0.80307   0.83333   0.00000  Uiso   1.00
Zn1056 Zn    0.25000   0.69693   0.83333   0.00000  Uiso   1.00
C1057  C     0.66351   0.75012   0.83526   0.00000  Uiso   1.00
C1058  C     0.71367   0.94748   0.81282   0.00000  Uiso   1.00
C1059  C     0.74989   0.75001   0.73954   0.00000  Uiso   1.00
C1060  C     0.74984   0.75000   0.92713   0.00000  Uiso   1.00
C1061  C     0.74990   0.52667   0.83319   0.00000  Uiso   1.00
C1062  C     0.74994   0.97331   0.83317   0.00000  Uiso   1.00
C1063  C     0.74976   0.75002   0.68849   0.00000  Uiso   1.00
C1064  C     0.74973   0.75002   0.97819   0.00000  Uiso   1.00
C1065  C     0.55017   0.78605   0.88549   0.00000  Uiso   1.00
C1066  C     0.94883   0.71785   0.88948   0.00000  Uiso   1.00
C1067  C     0.95695   0.78763   0.83731   0.00000  Uiso   1.00
C1068  C     0.83644   0.74993   0.83503   0.00000  Uiso   1.00
C1069  C     0.54328   0.71087   0.84266   0.00000  Uiso   1.00
C1070  C     0.59615   0.78665   0.87536   0.00000  Uiso   1.00
C1071  C     0.90281   0.71698   0.87956   0.00000  Uiso   1.00
C1072  C     0.91165   0.78568   0.82451   0.00000  Uiso   1.00
C1073  C     0.58843   0.71234   0.82887   0.00000  Uiso   1.00
C1074  C     0.61534   0.75024   0.84559   0.00000  Uiso   1.00
C1075  C     0.88438   0.75018   0.84553   0.00000  Uiso   1.00
C1076  C     0.52402   0.74842   0.86906   0.00000  Uiso   1.00
C1077  C     0.97558   0.75302   0.86838   0.00000  Uiso   1.00
C1078  C     0.64257   0.81500   0.93728   0.00000  Uiso   1.00
C1079  C     0.72912   0.60239   0.79550   0.00000  Uiso   1.00
C1080  C     0.61510   0.83494   0.98133   0.00000  Uiso   1.00
C1081  C     0.64126   0.83088   0.69725   0.00000  Uiso   1.00
C1082  C     0.85855   0.69559   0.94667   0.00000  Uiso   1.00
C1083  C     0.88737   0.67699   0.99023   0.00000  Uiso   1.00
C1084  C     0.86131   0.67859   0.70655   0.00000  Uiso   1.00
C1085  C     0.89989   0.79931   0.74058   0.00000  Uiso   1.00
C1086  C     0.93035   0.83186   0.70971   0.00000  Uiso   1.00
C1087  C     0.93713   0.81323   0.98964   0.00000  Uiso   1.00
C1088  C     0.60952   0.69093   0.74890   0.00000  Uiso   1.00
C1089  C     0.56534   0.68232   0.72029   0.00000  Uiso   1.00
C1090  C     0.78553   0.89768   0.85340   0.00000  Uiso   1.00
C1091  C     0.57081   0.69278   0.99760   0.00000  Uiso   1.00
C1092  C     0.77076   0.60204   0.87111   0.00000  Uiso   1.00
C1093  C     0.71443   0.89786   0.81319   0.00000  Uiso   1.00
C1094  C     0.72877   0.55276   0.79463   0.00000  Uiso   1.00
C1095  C     0.78623   0.94728   0.85358   0.00000  Uiso   1.00
C1096  C     0.77103   0.55245   0.87183   0.00000  Uiso   1.00
H1097  H     0.71271   0.62187   0.76567   0.00000  Uiso   1.00
H1098  H     0.81542   0.96496   0.86901   0.00000  Uiso   1.00
H1099  H     0.78715   0.53458   0.90298   0.00000  Uiso   1.00
H1100  H     0.68447   0.96532   0.79732   0.00000  Uiso   1.00
H1101  H     0.67590   0.83288   0.93668   0.00000  Uiso   1.00
H1102  H     0.64954   0.77665   0.94331   0.00000  Uiso   1.00
H1103  H     0.60714   0.87269   0.97418   0.00000  Uiso   1.00
H1104  H     0.58276   0.81546   0.98495   0.00000  Uiso   1.00
H1105  H     0.65167   0.79379   0.70397   0.00000  Uiso   1.00
H1106  H     0.61961   0.84273   0.72902   0.00000  Uiso   1.00
H1107  H     0.67195   0.85331   0.69591   0.00000  Uiso   1.00
H1108  H     0.81363   0.87829   0.86927   0.00000  Uiso   1.00
H1109  H     0.82444   0.67979   0.94977   0.00000  Uiso   1.00
H1110  H     0.85370   0.73455   0.95015   0.00000  Uiso   1.00
H1111  H     0.89762   0.63992   0.98261   0.00000  Uiso   1.00
H1112  H     0.91840   0.69865   0.99365   0.00000  Uiso   1.00
H1113  H     0.84773   0.71451   0.71353   0.00000  Uiso   1.00
H1114  H     0.88411   0.66876   0.73799   0.00000  Uiso   1.00
H1115  H     0.83268   0.65336   0.70565   0.00000  Uiso   1.00
H1116  H     0.86595   0.79836   0.72281   0.00000  Uiso   1.00
H1117  H     0.91394   0.76266   0.73889   0.00000  Uiso   1.00
H1118  H     0.91490   0.86761   0.70797   0.00000  Uiso   1.00
H1119  H     0.78708   0.62118   0.90105   0.00000  Uiso   1.00
H1120  H     0.96386   0.83475   0.72822   0.00000  Uiso   1.00
H1121  H     0.95463   0.77852   0.99048   0.00000  Uiso   1.00
H1122  H     0.95831   0.83826   0.96785   0.00000  Uiso   1.00
H1123  H     0.90408   0.80941   0.97036   0.00000  Uiso   1.00
H1124  H     0.63682   0.66968   0.73109   0.00000  Uiso   1.00
H1125  H     0.61978   0.72851   0.74504   0.00000  Uiso   1.00
H1126  H     0.55491   0.64498   0.72516   0.00000  Uiso   1.00
H1127  H     0.53823   0.70543   0.73565   0.00000  Uiso   1.00
H1128  H     0.58126   0.72993   0.99184   0.00000  Uiso   1.00
H1129  H     0.53811   0.68716   0.97812   0.00000  Uiso   1.00
H1130  H     0.68635   0.87860   0.79742   0.00000  Uiso   1.00
H1131  H     0.59661   0.66902   0.98067   0.00000  Uiso   1.00
H1132  H     0.53454   0.81562   0.90474   0.00000  Uiso   1.00
H1133  H     0.96395   0.69041   0.91237   0.00000  Uiso   1.00
H1134  H     0.97832   0.81397   0.81982   0.00000  Uiso   1.00
H1135  H     0.52235   0.68234   0.82894   0.00000  Uiso   1.00
H1136  H     0.71256   0.53512   0.76349   0.00000  Uiso   1.00
N1137  N     0.75000   0.62623   0.83333   0.00000  Uiso   1.00
N1138  N     0.75000   0.87376   0.83333   0.00000  Uiso   1.00
O1139  O     0.68453   0.78974   0.83334   0.00000  Uiso   1.00
O1140  O     0.87688   0.68117   0.89986   0.00000  Uiso   1.00
O1141  O     0.89467   0.81759   0.78992   0.00000  Uiso   1.00
O1142  O     0.60577   0.67607   0.79964   0.00000  Uiso   1.00
O1143  O     0.81547   0.71026   0.83333   0.00000  Uiso   1.00
O1144  O     0.81547   0.78974   0.83333   0.00000  Uiso   1.00
O1145  O     0.68453   0.71026   0.83334   0.00000  Uiso   1.00
O1146  O     0.75000   0.78973   0.76178   0.00000  Uiso   1.00
O1147  O     0.75000   0.71027   0.90489   0.00000  Uiso   1.00
O1148  O     0.75000   0.78973   0.90489   0.00000  Uiso   1.00
O1149  O     0.75000   0.71027   0.76178   0.00000  Uiso   1.00
O1150  O     0.62105   0.82516   0.89101   0.00000  Uiso   1.00
Zn1151 Zn    0.75000   0.80307   0.83333   0.00000  Uiso   1.00
Zn1152 Zn    0.75000   0.69693   0.83333   0.00000  Uiso   1.00
loop_
_geom_bond_atom_site_label_1
_geom_bond_atom_site_label_2
_geom_bond_distance
_geom_bond_site_symmetry_2
_ccdc_geom_bond_type
C1     O89     1.289   .     A
C1     C18     1.451   .     S
C1     O83     1.287   .     A
C2     H44     1.082   .     S
C2     C6      1.410   .     A
C2     C37     1.407   .     A
C3     O90     1.272   .     A
C3     C7      1.358   .     S
C3     O93     1.272   .     A
C4     C8      1.358   .     S
C4     O91     1.273   .     A
C4     O92     1.272   .     A
C5     C38     1.411   .     A
C5     C40     1.410   .     A
C5     C198    1.513   1_545 S
C6     C39     1.410   .     A
C6     C197    1.513   .     S
C7     C776    1.160   1_554 S
C8     C391    1.160   .     S
C9     H76     1.084   .     S
C9     C14     1.386   .     A
C9     C20     1.391   .     A
C10    C15     1.388   .     A
C10    H77     1.084   .     S
C10    C21     1.392   .     A
C11    C21     1.396   .     A
C11    H78     1.084   .     S
C11    C16     1.385   .     A
C12    O87     1.287   .     A
C12    O88     1.287   .     A
C12    C19     1.446   .     S
C13    H79     1.084   .     S
C13    C20     1.395   .     A
C13    C17     1.385   .     A
C14    C18     1.417   .     A
C14    O94     1.384   .     S
C15    C19     1.414   .     A
C15    O84     1.383   .     S
C16    O85     1.384   .     S
C16    C19     1.407   .     A
C17    O86     1.386   .     S
C17    C18     1.412   .     A
C20    C117    1.439   1_455 S
C21    C116    1.439   .     S
C22    O94     1.416   .     S
C22    H46     1.118   .     S
C22    C24     1.531   .     S
C22    H45     1.110   .     S
C23    N81     1.363   .     A
C23    C38     1.407   .     A
C23    H41     1.082   .     S
C24    H48     1.110   .     S
C24    H47     1.111   .     S
C24    C409    1.527   .     S
C25    H50     1.110   .     S
C25    H51     1.111   .     S
C25    H49     1.109   .     S
C25    C792    1.527   1_554 S
C26    C27     1.532   .     S
C26    H54     1.117   .     S
C26    H53     1.108   .     S
C26    O84     1.416   .     S
C27    H55     1.112   .     S
C27    H56     1.110   .     S
C27    C412    1.528   .     S
C28    H57     1.109   .     S
C28    H59     1.111   .     S
C28    H58     1.110   .     S
C28    C795    1.528   1_554 S
C29    O85     1.419   .     S
C29    H61     1.119   .     S
C29    C30     1.530   .     S
C29    H60     1.111   .     S
C30    H64     1.111   .     S
C30    H62     1.111   .     S
C30    C799    1.528   1_554 S
C31    H66     1.110   .     S
C31    H67     1.111   .     S
C31    H65     1.111   .     S
C31    C414    1.528   .     S
C32    H68     1.111   .     S
C32    O86     1.418   .     S
C32    H69     1.114   .     S
C32    C33     1.534   .     S
C33    H70     1.111   .     S
C33    H71     1.111   .     S
C33    C803    1.527   1_554 S
C34    C39     1.407   .     A
C34    H52     1.082   .     S
C34    N82     1.363   .     A
C35    H75     1.111   .     S
C35    H72     1.109   .     S
C35    H73     1.111   .     S
C35    C417    1.527   .     S
C36    H63     1.080   .     S
C36    C40     1.406   .     A
C36    N81     1.363   .     A
C37    H74     1.081   .     S
C37    N82     1.363   .     A
C38    H80     1.082   .     S
C39    H42     1.082   .     S
C40    H43     1.082   .     S
N81    Zn96    2.005   .     S
N82    Zn95    2.005   .     S
O83    Zn95    1.974   .     S
O87    Zn96    1.974   .     S
O88    Zn95    1.972   .     S
O89    Zn96    1.972   .     S
O90    Zn95    1.940   .     S
O91    Zn96    1.940   .     S
O92    Zn95    1.940   .     S
O93    Zn96    1.940   .     S
C97    O185    1.289   .     A
C97    C114    1.451   .     S
C97    O179    1.287   .     A
C98    H140    1.082   .     S
C98    C102    1.410   .     A
C98    C133    1.407   .     A
C99    O186    1.272   .     A
C99    C103    1.358   .     S
C99    O189    1.272   .     A
C100   C104    1.358   .     S
C100   O187    1.273   .     A
C100   O188    1.272   .     A
C101   C134    1.411   .     A
C101   C136    1.410   .     A
C101   C294    1.513   1_545 S
C102   C135    1.410   .     A
C102   C293    1.513   .     S
C103   C872    1.160   1_554 S
C104   C487    1.160   .     S
C105   H172    1.084   .     S
C105   C110    1.386   .     A
C105   C116    1.391   .     A
C106   C111    1.388   .     A
C106   H173    1.084   .     S
C106   C117    1.392   .     A
C107   C117    1.396   .     A
C107   H174    1.084   .     S
C107   C112    1.385   .     A
C108   O183    1.287   .     A
C108   O184    1.287   .     A
C108   C115    1.446   .     S
C109   H175    1.084   .     S
C109   C116    1.395   .     A
C109   C113    1.385   .     A
C110   C114    1.417   .     A
C110   O190    1.384   .     S
C111   C115    1.414   .     A
C111   O180    1.383   .     S
C112   O181    1.384   .     S
C112   C115    1.407   .     A
C113   O182    1.386   .     S
C113   C114    1.412   .     A
C117   C20     1.439   1_655 S
C118   O190    1.416   .     S
C118   H142    1.118   .     S
C118   C120    1.531   .     S
C118   H141    1.110   .     S
C119   N177    1.363   .     A
C119   C134    1.407   .     A
C119   H137    1.082   .     S
C120   H144    1.110   .     S
C120   H143    1.111   .     S
C120   C505    1.527   .     S
C121   H146    1.110   .     S
C121   H147    1.111   .     S
C121   H145    1.109   .     S
C121   C888    1.527   1_554 S
C122   C123    1.532   .     S
C122   H150    1.117   .     S
C122   H149    1.108   .     S
C122   O180    1.416   .     S
C123   H151    1.112   .     S
C123   H152    1.110   .     S
C123   C508    1.528   .     S
C124   H153    1.109   .     S
C124   H155    1.111   .     S
C124   H154    1.110   .     S
C124   C891    1.528   1_554 S
C125   O181    1.419   .     S
C125   H157    1.119   .     S
C125   C126    1.530   .     S
C125   H156    1.111   .     S
C126   H160    1.111   .     S
C126   H158    1.111   .     S
C126   C895    1.528   1_554 S
C127   H162    1.110   .     S
C127   H163    1.111   .     S
C127   H161    1.111   .     S
C127   C510    1.528   .     S
C128   H164    1.111   .     S
C128   O182    1.418   .     S
C128   H165    1.114   .     S
C128   C129    1.534   .     S
C129   H166    1.111   .     S
C129   H167    1.111   .     S
C129   C899    1.527   1_554 S
C130   C135    1.407   .     A
C130   H148    1.082   .     S
C130   N178    1.363   .     A
C131   H171    1.111   .     S
C131   H168    1.109   .     S
C131   H169    1.111   .     S
C131   C513    1.527   .     S
C132   H159    1.080   .     S
C132   C136    1.406   .     A
C132   N177    1.363   .     A
C133   H170    1.081   .     S
C133   N178    1.363   .     A
C134   H176    1.082   .     S
C135   H138    1.082   .     S
C136   H139    1.082   .     S
N177   Zn192   2.005   .     S
N178   Zn191   2.005   .     S
O179   Zn191   1.974   .     S
O183   Zn192   1.974   .     S
O184   Zn191   1.972   .     S
O185   Zn192   1.972   .     S
O186   Zn191   1.940   .     S
O187   Zn192   1.940   .     S
O188   Zn191   1.940   .     S
O189   Zn192   1.940   .     S
C193   O281    1.289   .     A
C193   C210    1.451   .     S
C193   O275    1.287   .     A
C194   H236    1.082   .     S
C194   C198    1.410   .     A
C194   C229    1.407   .     A
C195   O282    1.272   .     A
C195   C199    1.358   .     S
C195   O285    1.272   .     A
C196   C200    1.358   .     S
C196   O283    1.273   .     A
C196   O284    1.272   .     A
C197   C230    1.411   .     A
C197   C232    1.410   .     A
C198   C231    1.410   .     A
C198   C5      1.513   1_565 S
C199   C968    1.160   1_554 S
C200   C583    1.160   .     S
C201   H268    1.084   .     S
C201   C206    1.386   .     A
C201   C212    1.391   .     A
C202   C207    1.388   .     A
C202   H269    1.084   .     S
C202   C213    1.392   .     A
C203   C213    1.396   .     A
C203   H270    1.084   .     S
C203   C208    1.385   .     A
C204   O279    1.287   .     A
C204   O280    1.287   .     A
C204   C211    1.446   .     S
C205   H271    1.084   .     S
C205   C212    1.395   .     A
C205   C209    1.385   .     A
C206   C210    1.417   .     A
C206   O286    1.384   .     S
C207   C211    1.414   .     A
C207   O276    1.383   .     S
C208   O277    1.384   .     S
C208   C211    1.407   .     A
C209   O278    1.386   .     S
C209   C210    1.412   .     A
C212   C309    1.439   1_455 S
C213   C308    1.439   .     S
C214   O286    1.416   .     S
C214   H238    1.118   .     S
C214   C216    1.531   .     S
C214   H237    1.110   .     S
C215   N273    1.363   .     A
C215   C230    1.407   .     A
C215   H233    1.082   .     S
C216   H240    1.110   .     S
C216   H239    1.111   .     S
C216   C601    1.527   .     S
C217   H242    1.110   .     S
C217   H243    1.111   .     S
C217   H241    1.109   .     S
C217   C984    1.527   1_554 S
C218   C219    1.532   .     S
C218   H246    1.117   .     S
C218   H245    1.108   .     S
C218   O276    1.416   .     S
C219   H247    1.112   .     S
C219   H248    1.110   .     S
C219   C604    1.528   .     S
C220   H249    1.109   .     S
C220   H251    1.111   .     S
C220   H250    1.110   .     S
C220   C987    1.528   1_554 S
C221   O277    1.419   .     S
C221   H253    1.119   .     S
C221   C222    1.530   .     S
C221   H252    1.111   .     S
C222   H256    1.111   .     S
C222   H254    1.111   .     S
C222   C991    1.528   1_554 S
C223   H258    1.110   .     S
C223   H259    1.111   .     S
C223   H257    1.111   .     S
C223   C606    1.528   .     S
C224   H260    1.111   .     S
C224   O278    1.418   .     S
C224   H261    1.114   .     S
C224   C225    1.534   .     S
C225   H262    1.111   .     S
C225   H263    1.111   .     S
C225   C995    1.527   1_554 S
C226   C231    1.407   .     A
C226   H244    1.082   .     S
C226   N274    1.363   .     A
C227   H267    1.111   .     S
C227   H264    1.109   .     S
C227   H265    1.111   .     S
C227   C609    1.527   .     S
C228   H255    1.080   .     S
C228   C232    1.406   .     A
C228   N273    1.363   .     A
C229   H266    1.081   .     S
C229   N274    1.363   .     A
C230   H272    1.082   .     S
C231   H234    1.082   .     S
C232   H235    1.082   .     S
N273   Zn288   2.005   .     S
N274   Zn287   2.005   .     S
O275   Zn287   1.974   .     S
O279   Zn288   1.974   .     S
O280   Zn287   1.972   .     S
O281   Zn288   1.972   .     S
O282   Zn287   1.940   .     S
O283   Zn288   1.940   .     S
O284   Zn287   1.940   .     S
O285   Zn288   1.940   .     S
C289   O377    1.289   .     A
C289   C306    1.451   .     S
C289   O371    1.287   .     A
C290   H332    1.082   .     S
C290   C294    1.410   .     A
C290   C325    1.407   .     A
C291   O378    1.272   .     A
C291   C295    1.358   .     S
C291   O381    1.272   .     A
C292   C296    1.358   .     S
C292   O379    1.273   .     A
C292   O380    1.272   .     A
C293   C326    1.411   .     A
C293   C328    1.410   .     A
C294   C327    1.410   .     A
C294   C101    1.513   1_565 S
C295   C1064   1.160   1_554 S
C296   C679    1.160   .     S
C297   H364    1.084   .     S
C297   C302    1.386   .     A
C297   C308    1.391   .     A
C298   C303    1.388   .     A
C298   H365    1.084   .     S
C298   C309    1.392   .     A
C299   C309    1.396   .     A
C299   H366    1.084   .     S
C299   C304    1.385   .     A
C300   O375    1.287   .     A
C300   O376    1.287   .     A
C300   C307    1.446   .     S
C301   H367    1.084   .     S
C301   C308    1.395   .     A
C301   C305    1.385   .     A
C302   C306    1.417   .     A
C302   O382    1.384   .     S
C303   C307    1.414   .     A
C303   O372    1.383   .     S
C304   O373    1.384   .     S
C304   C307    1.407   .     A
C305   O374    1.386   .     S
C305   C306    1.412   .     A
C309   C212    1.439   1_655 S
C310   O382    1.416   .     S
C310   H334    1.118   .     S
C310   C312    1.531   .     S
C310   H333    1.110   .     S
C311   N369    1.363   .     A
C311   C326    1.407   .     A
C311   H329    1.082   .     S
C312   H336    1.110   .     S
C312   H335    1.111   .     S
C312   C697    1.527   .     S
C313   H338    1.110   .     S
C313   H339    1.111   .     S
C313   H337    1.109   .     S
C313   C1080   1.527   1_554 S
C314   C315    1.532   .     S
C314   H342    1.117   .     S
C314   H341    1.108   .     S
C314   O372    1.416   .     S
C315   H343    1.112   .     S
C315   H344    1.110   .     S
C315   C700    1.528   .     S
C316   H345    1.109   .     S
C316   H347    1.111   .     S
C316   H346    1.110   .     S
C316   C1083   1.528   1_554 S
C317   O373    1.419   .     S
C317   H349    1.119   .     S
C317   C318    1.530   .     S
C317   H348    1.111   .     S
C318   H352    1.111   .     S
C318   H350    1.111   .     S
C318   C1087   1.528   1_554 S
C319   H354    1.110   .     S
C319   H355    1.111   .     S
C319   H353    1.111   .     S
C319   C702    1.528   .     S
C320   H356    1.111   .     S
C320   O374    1.418   .     S
C320   H357    1.114   .     S
C320   C321    1.534   .     S
C321   H358    1.111   .     S
C321   H359    1.111   .     S
C321   C1091   1.527   1_554 S
C322   C327    1.407   .     A
C322   H340    1.082   .     S
C322   N370    1.363   .     A
C323   H363    1.111   .     S
C323   H360    1.109   .     S
C323   H361    1.111   .     S
C323   C705    1.527   .     S
C324   H351    1.080   .     S
C324   C328    1.406   .     A
C324   N369    1.363   .     A
C325   H362    1.081   .     S
C325   N370    1.363   .     A
C326   H368    1.082   .     S
C327   H330    1.082   .     S
C328   H331    1.082   .     S
N369   Zn384   2.005   .     S
N370   Zn383   2.005   .     S
O371   Zn383   1.974   .     S
O375   Zn384   1.974   .     S
O376   Zn383   1.972   .     S
O377   Zn384   1.972   .     S
O378   Zn383   1.940   .     S
O379   Zn384   1.940   .     S
O380   Zn383   1.940   .     S
O381   Zn384   1.940   .     S
C385   O473    1.289   .     A
C385   C402    1.451   .     S
C385   O467    1.287   .     A
C386   H428    1.082   .     S
C386   C390    1.410   .     A
C386   C421    1.407   .     A
C387   O474    1.272   .     A
C387   C391    1.358   .     S
C387   O477    1.272   .     A
C388   C392    1.358   .     S
C388   O475    1.273   .     A
C388   O476    1.272   .     A
C389   C422    1.411   .     A
C389   C424    1.410   .     A
C389   C582    1.513   1_545 S
C390   C423    1.410   .     A
C390   C581    1.513   .     S
C392   C775    1.160   .     S
C393   H460    1.084   .     S
C393   C398    1.386   .     A
C393   C404    1.391   .     A
C394   C399    1.388   .     A
C394   H461    1.084   .     S
C394   C405    1.392   .     A
C395   C405    1.396   .     A
C395   H462    1.084   .     S
C395   C400    1.385   .     A
C396   O471    1.287   .     A
C396   O472    1.287   .     A
C396   C403    1.446   .     S
C397   H463    1.084   .     S
C397   C404    1.395   .     A
C397   C401    1.385   .     A
C398   C402    1.417   .     A
C398   O478    1.384   .     S
C399   C403    1.414   .     A
C399   O468    1.383   .     S
C400   O469    1.384   .     S
C400   C403    1.407   .     A
C401   O470    1.386   .     S
C401   C402    1.412   .     A
C404   C501    1.439   1_455 S
C405   C500    1.439   .     S
C406   O478    1.416   .     S
C406   H430    1.118   .     S
C406   C408    1.531   .     S
C406   H429    1.110   .     S
C407   N465    1.363   .     A
C407   C422    1.407   .     A
C407   H425    1.082   .     S
C408   H432    1.110   .     S
C408   H431    1.111   .     S
C408   C793    1.527   .     S
C409   H434    1.110   .     S
C409   H435    1.111   .     S
C409   H433    1.109   .     S
C410   C411    1.532   .     S
C410   H438    1.117   .     S
C410   H437    1.108   .     S
C410   O468    1.416   .     S
C411   H439    1.112   .     S
C411   H440    1.110   .     S
C411   C796    1.528   .     S
C412   H441    1.109   .     S
C412   H443    1.111   .     S
C412   H442    1.110   .     S
C413   O469    1.419   .     S
C413   H445    1.119   .     S
C413   C414    1.530   .     S
C413   H444    1.111   .     S
C414   H448    1.111   .     S
C414   H446    1.111   .     S
C415   H450    1.110   .     S
C415   H451    1.111   .     S
C415   H449    1.111   .     S
C415   C798    1.528   .     S
C416   H452    1.111   .     S
C416   O470    1.418   .     S
C416   H453    1.114   .     S
C416   C417    1.534   .     S
C417   H454    1.111   .     S
C417   H455    1.111   .     S
C418   C423    1.407   .     A
C418   H436    1.082   .     S
C418   N466    1.363   .     A
C419   H459    1.111   .     S
C419   H456    1.109   .     S
C419   H457    1.111   .     S
C419   C801    1.527   .     S
C420   H447    1.080   .     S
C420   C424    1.406   .     A
C420   N465    1.363   .     A
C421   H458    1.081   .     S
C421   N466    1.363   .     A
C422   H464    1.082   .     S
C423   H426    1.082   .     S
C424   H427    1.082   .     S
N465   Zn480   2.005   .     S
N466   Zn479   2.005   .     S
O467   Zn479   1.974   .     S
O471   Zn480   1.974   .     S
O472   Zn479   1.972   .     S
O473   Zn480   1.972   .     S
O474   Zn479   1.940   .     S
O475   Zn480   1.940   .     S
O476   Zn479   1.940   .     S
O477   Zn480   1.940   .     S
C481   O569    1.289   .     A
C481   C498    1.451   .     S
C481   O563    1.287   .     A
C482   H524    1.082   .     S
C482   C486    1.410   .     A
C482   C517    1.407   .     A
C483   O570    1.272   .     A
C483   C487    1.358   .     S
C483   O573    1.272   .     A
C484   C488    1.358   .     S
C484   O571    1.273   .     A
C484   O572    1.272   .     A
C485   C518    1.411   .     A
C485   C520    1.410   .     A
C485   C678    1.513   1_545 S
C486   C519    1.410   .     A
C486   C677    1.513   .     S
C488   C871    1.160   .     S
C489   H556    1.084   .     S
C489   C494    1.386   .     A
C489   C500    1.391   .     A
C490   C495    1.388   .     A
C490   H557    1.084   .     S
C490   C501    1.392   .     A
C491   C501    1.396   .     A
C491   H558    1.084   .     S
C491   C496    1.385   .     A
C492   O567    1.287   .     A
C492   O568    1.287   .     A
C492   C499    1.446   .     S
C493   H559    1.084   .     S
C493   C500    1.395   .     A
C493   C497    1.385   .     A
C494   C498    1.417   .     A
C494   O574    1.384   .     S
C495   C499    1.414   .     A
C495   O564    1.383   .     S
C496   O565    1.384   .     S
C496   C499    1.407   .     A
C497   O566    1.386   .     S
C497   C498    1.412   .     A
C501   C404    1.439   1_655 S
C502   O574    1.416   .     S
C502   H526    1.118   .     S
C502   C504    1.531   .     S
C502   H525    1.110   .     S
C503   N561    1.363   .     A
C503   C518    1.407   .     A
C503   H521    1.082   .     S
C504   H528    1.110   .     S
C504   H527    1.111   .     S
C504   C889    1.527   .     S
C505   H530    1.110   .     S
C505   H531    1.111   .     S
C505   H529    1.109   .     S
C506   C507    1.532   .     S
C506   H534    1.117   .     S
C506   H533    1.108   .     S
C506   O564    1.416   .     S
C507   H535    1.112   .     S
C507   H536    1.110   .     S
C507   C892    1.528   .     S
C508   H537    1.109   .     S
C508   H539    1.111   .     S
C508   H538    1.110   .     S
C509   O565    1.419   .     S
C509   H541    1.119   .     S
C509   C510    1.530   .     S
C509   H540    1.111   .     S
C510   H544    1.111   .     S
C510   H542    1.111   .     S
C511   H546    1.110   .     S
C511   H547    1.111   .     S
C511   H545    1.111   .     S
C511   C894    1.528   .     S
C512   H548    1.111   .     S
C512   O566    1.418   .     S
C512   H549    1.114   .     S
C512   C513    1.534   .     S
C513   H550    1.111   .     S
C513   H551    1.111   .     S
C514   C519    1.407   .     A
C514   H532    1.082   .     S
C514   N562    1.363   .     A
C515   H555    1.111   .     S
C515   H552    1.109   .     S
C515   H553    1.111   .     S
C515   C897    1.527   .     S
C516   H543    1.080   .     S
C516   C520    1.406   .     A
C516   N561    1.363   .     A
C517   H554    1.081   .     S
C517   N562    1.363   .     A
C518   H560    1.082   .     S
C519   H522    1.082   .     S
C520   H523    1.082   .     S
N561   Zn576   2.005   .     S
N562   Zn575   2.005   .     S
O563   Zn575   1.974   .     S
O567   Zn576   1.974   .     S
O568   Zn575   1.972   .     S
O569   Zn576   1.972   .     S
O570   Zn575   1.940   .     S
O571   Zn576   1.940   .     S
O572   Zn575   1.940   .     S
O573   Zn576   1.940   .     S
C577   O665    1.289   .     A
C577   C594    1.451   .     S
C577   O659    1.287   .     A
C578   H620    1.082   .     S
C578   C582    1.410   .     A
C578   C613    1.407   .     A
C579   O666    1.272   .     A
C579   C583    1.358   .     S
C579   O669    1.272   .     A
C580   C584    1.358   .     S
C580   O667    1.273   .     A
C580   O668    1.272   .     A
C581   C614    1.411   .     A
C581   C616    1.410   .     A
C582   C615    1.410   .     A
C582   C389    1.513   1_565 S
C584   C967    1.160   .     S
C585   H652    1.084   .     S
C585   C590    1.386   .     A
C585   C596    1.391   .     A
C586   C591    1.388   .     A
C586   H653    1.084   .     S
C586   C597    1.392   .     A
C587   C597    1.396   .     A
C587   H654    1.084   .     S
C587   C592    1.385   .     A
C588   O663    1.287   .     A
C588   O664    1.287   .     A
C588   C595    1.446   .     S
C589   H655    1.084   .     S
C589   C596    1.395   .     A
C589   C593    1.385   .     A
C590   C594    1.417   .     A
C590   O670    1.384   .     S
C591   C595    1.414   .     A
C591   O660    1.383   .     S
C592   O661    1.384   .     S
C592   C595    1.407   .     A
C593   O662    1.386   .     S
C593   C594    1.412   .     A
C596   C693    1.439   1_455 S
C597   C692    1.439   .     S
C598   O670    1.416   .     S
C598   H622    1.118   .     S
C598   C600    1.531   .     S
C598   H621    1.110   .     S
C599   N657    1.363   .     A
C599   C614    1.407   .     A
C599   H617    1.082   .     S
C600   H624    1.110   .     S
C600   H623    1.111   .     S
C600   C985    1.527   .     S
C601   H626    1.110   .     S
C601   H627    1.111   .     S
C601   H625    1.109   .     S
C602   C603    1.532   .     S
C602   H630    1.117   .     S
C602   H629    1.108   .     S
C602   O660    1.416   .     S
C603   H631    1.112   .     S
C603   H632    1.110   .     S
C603   C988    1.528   .     S
C604   H633    1.109   .     S
C604   H635    1.111   .     S
C604   H634    1.110   .     S
C605   O661    1.419   .     S
C605   H637    1.119   .     S
C605   C606    1.530   .     S
C605   H636    1.111   .     S
C606   H640    1.111   .     S
C606   H638    1.111   .     S
C607   H642    1.110   .     S
C607   H643    1.111   .     S
C607   H641    1.111   .     S
C607   C990    1.528   .     S
C608   H644    1.111   .     S
C608   O662    1.418   .     S
C608   H645    1.114   .     S
C608   C609    1.534   .     S
C609   H646    1.111   .     S
C609   H647    1.111   .     S
C610   C615    1.407   .     A
C610   H628    1.082   .     S
C610   N658    1.363   .     A
C611   H651    1.111   .     S
C611   H648    1.109   .     S
C611   H649    1.111   .     S
C611   C993    1.527   .     S
C612   H639    1.080   .     S
C612   C616    1.406   .     A
C612   N657    1.363   .     A
C613   H650    1.081   .     S
C613   N658    1.363   .     A
C614   H656    1.082   .     S
C615   H618    1.082   .     S
C616   H619    1.082   .     S
N657   Zn672   2.005   .     S
N658   Zn671   2.005   .     S
O659   Zn671   1.974   .     S
O663   Zn672   1.974   .     S
O664   Zn671   1.972   .     S
O665   Zn672   1.972   .     S
O666   Zn671   1.940   .     S
O667   Zn672   1.940   .     S
O668   Zn671   1.940   .     S
O669   Zn672   1.940   .     S
C673   O761    1.289   .     A
C673   C690    1.451   .     S
C673   O755    1.287   .     A
C674   H716    1.082   .     S
C674   C678    1.410   .     A
C674   C709    1.407   .     A
C675   O762    1.272   .     A
C675   C679    1.358   .     S
C675   O765    1.272   .     A
C676   C680    1.358   .     S
C676   O763    1.273   .     A
C676   O764    1.272   .     A
C677   C710    1.411   .     A
C677   C712    1.410   .     A
C678   C711    1.410   .     A
C678   C485    1.513   1_565 S
C680   C1063   1.160   .     S
C681   H748    1.084   .     S
C681   C686    1.386   .     A
C681   C692    1.391   .     A
C682   C687    1.388   .     A
C682   H749    1.084   .     S
C682   C693    1.392   .     A
C683   C693    1.396   .     A
C683   H750    1.084   .     S
C683   C688    1.385   .     A
C684   O759    1.287   .     A
C684   O760    1.287   .     A
C684   C691    1.446   .     S
C685   H751    1.084   .     S
C685   C692    1.395   .     A
C685   C689    1.385   .     A
C686   C690    1.417   .     A
C686   O766    1.384   .     S
C687   C691    1.414   .     A
C687   O756    1.383   .     S
C688   O757    1.384   .     S
C688   C691    1.407   .     A
C689   O758    1.386   .     S
C689   C690    1.412   .     A
C693   C596    1.439   1_655 S
C694   O766    1.416   .     S
C694   H718    1.118   .     S
C694   C696    1.531   .     S
C694   H717    1.110   .     S
C695   N753    1.363   .     A
C695   C710    1.407   .     A
C695   H713    1.082   .     S
C696   H720    1.110   .     S
C696   H719    1.111   .     S
C696   C1081   1.527   .     S
C697   H722    1.110   .     S
C697   H723    1.111   .     S
C697   H721    1.109   .     S
C698   C699    1.532   .     S
C698   H726    1.117   .     S
C698   H725    1.108   .     S
C698   O756    1.416   .     S
C699   H727    1.112   .     S
C699   H728    1.110   .     S
C699   C1084   1.528   .     S
C700   H729    1.109   .     S
C700   H731    1.111   .     S
C700   H730    1.110   .     S
C701   O757    1.419   .     S
C701   H733    1.119   .     S
C701   C702    1.530   .     S
C701   H732    1.111   .     S
C702   H736    1.111   .     S
C702   H734    1.111   .     S
C703   H738    1.110   .     S
C703   H739    1.111   .     S
C703   H737    1.111   .     S
C703   C1086   1.528   .     S
C704   H740    1.111   .     S
C704   O758    1.418   .     S
C704   H741    1.114   .     S
C704   C705    1.534   .     S
C705   H742    1.111   .     S
C705   H743    1.111   .     S
C706   C711    1.407   .     A
C706   H724    1.082   .     S
C706   N754    1.363   .     A
C707   H747    1.111   .     S
C707   H744    1.109   .     S
C707   H745    1.111   .     S
C707   C1089   1.527   .     S
C708   H735    1.080   .     S
C708   C712    1.406   .     A
C708   N753    1.363   .     A
C709   H746    1.081   .     S
C709   N754    1.363   .     A
C710   H752    1.082   .     S
C711   H714    1.082   .     S
C712   H715    1.082   .     S
N753   Zn768   2.005   .     S
N754   Zn767   2.005   .     S
O755   Zn767   1.974   .     S
O759   Zn768   1.974   .     S
O760   Zn767   1.972   .     S
O761   Zn768   1.972   .     S
O762   Zn767   1.940   .     S
O763   Zn768   1.940   .     S
O764   Zn767   1.940   .     S
O765   Zn768   1.940   .     S
C769   O857    1.289   .     A
C769   C786    1.451   .     S
C769   O851    1.287   .     A
C770   H812    1.082   .     S
C770   C774    1.410   .     A
C770   C805    1.407   .     A
C771   O858    1.272   .     A
C771   C775    1.358   .     S
C771   O861    1.272   .     A
C772   C776    1.358   .     S
C772   O859    1.273   .     A
C772   O860    1.272   .     A
C773   C806    1.411   .     A
C773   C808    1.410   .     A
C773   C966    1.513   1_545 S
C774   C807    1.410   .     A
C774   C965    1.513   .     S
C776   C7      1.160   1_556 S
C777   H844    1.084   .     S
C777   C782    1.386   .     A
C777   C788    1.391   .     A
C778   C783    1.388   .     A
C778   H845    1.084   .     S
C778   C789    1.392   .     A
C779   C789    1.396   .     A
C779   H846    1.084   .     S
C779   C784    1.385   .     A
C780   O855    1.287   .     A
C780   O856    1.287   .     A
C780   C787    1.446   .     S
C781   H847    1.084   .     S
C781   C788    1.395   .     A
C781   C785    1.385   .     A
C782   C786    1.417   .     A
C782   O862    1.384   .     S
C783   C787    1.414   .     A
C783   O852    1.383   .     S
C784   O853    1.384   .     S
C784   C787    1.407   .     A
C785   O854    1.386   .     S
C785   C786    1.412   .     A
C788   C885    1.439   1_455 S
C789   C884    1.439   .     S
C790   O862    1.416   .     S
C790   H814    1.118   .     S
C790   C792    1.531   .     S
C790   H813    1.110   .     S
C791   N849    1.363   .     A
C791   C806    1.407   .     A
C791   H809    1.082   .     S
C792   H816    1.110   .     S
C792   H815    1.111   .     S
C792   C25     1.527   1_556 S
C793   H818    1.110   .     S
C793   H819    1.111   .     S
C793   H817    1.109   .     S
C794   C795    1.532   .     S
C794   H822    1.117   .     S
C794   H821    1.108   .     S
C794   O852    1.416   .     S
C795   H823    1.112   .     S
C795   H824    1.110   .     S
C795   C28     1.528   1_556 S
C796   H825    1.109   .     S
C796   H827    1.111   .     S
C796   H826    1.110   .     S
C797   O853    1.419   .     S
C797   H829    1.119   .     S
C797   C798    1.530   .     S
C797   H828    1.111   .     S
C798   H832    1.111   .     S
C798   H830    1.111   .     S
C799   H834    1.110   .     S
C799   H835    1.111   .     S
C799   H833    1.111   .     S
C799   C30     1.528   1_556 S
C800   H836    1.111   .     S
C800   O854    1.418   .     S
C800   H837    1.114   .     S
C800   C801    1.534   .     S
C801   H838    1.111   .     S
C801   H839    1.111   .     S
C802   C807    1.407   .     A
C802   H820    1.082   .     S
C802   N850    1.363   .     A
C803   H843    1.111   .     S
C803   H840    1.109   .     S
C803   H841    1.111   .     S
C803   C33     1.527   1_556 S
C804   H831    1.080   .     S
C804   C808    1.406   .     A
C804   N849    1.363   .     A
C805   H842    1.081   .     S
C805   N850    1.363   .     A
C806   H848    1.082   .     S
C807   H810    1.082   .     S
C808   H811    1.082   .     S
N849   Zn864   2.005   .     S
N850   Zn863   2.005   .     S
O851   Zn863   1.974   .     S
O855   Zn864   1.974   .     S
O856   Zn863   1.972   .     S
O857   Zn864   1.972   .     S
O858   Zn863   1.940   .     S
O859   Zn864   1.940   .     S
O860   Zn863   1.940   .     S
O861   Zn864   1.940   .     S
C865   O953    1.289   .     A
C865   C882    1.451   .     S
C865   O947    1.287   .     A
C866   H908    1.082   .     S
C866   C870    1.410   .     A
C866   C901    1.407   .     A
C867   O954    1.272   .     A
C867   C871    1.358   .     S
C867   O957    1.272   .     A
C868   C872    1.358   .     S
C868   O955    1.273   .     A
C868   O956    1.272   .     A
C869   C902    1.411   .     A
C869   C904    1.410   .     A
C869   C1062   1.513   1_545 S
C870   C903    1.410   .     A
C870   C1061   1.513   .     S
C872   C103    1.160   1_556 S
C873   H940    1.084   .     S
C873   C878    1.386   .     A
C873   C884    1.391   .     A
C874   C879    1.388   .     A
C874   H941    1.084   .     S
C874   C885    1.392   .     A
C875   C885    1.396   .     A
C875   H942    1.084   .     S
C875   C880    1.385   .     A
C876   O951    1.287   .     A
C876   O952    1.287   .     A
C876   C883    1.446   .     S
C877   H943    1.084   .     S
C877   C884    1.395   .     A
C877   C881    1.385   .     A
C878   C882    1.417   .     A
C878   O958    1.384   .     S
C879   C883    1.414   .     A
C879   O948    1.383   .     S
C880   O949    1.384   .     S
C880   C883    1.407   .     A
C881   O950    1.386   .     S
C881   C882    1.412   .     A
C885   C788    1.439   1_655 S
C886   O958    1.416   .     S
C886   H910    1.118   .     S
C886   C888    1.531   .     S
C886   H909    1.110   .     S
C887   N945    1.363   .     A
C887   C902    1.407   .     A
C887   H905    1.082   .     S
C888   H912    1.110   .     S
C888   H911    1.111   .     S
C888   C121    1.527   1_556 S
C889   H914    1.110   .     S
C889   H915    1.111   .     S
C889   H913    1.109   .     S
C890   C891    1.532   .     S
C890   H918    1.117   .     S
C890   H917    1.108   .     S
C890   O948    1.416   .     S
C891   H919    1.112   .     S
C891   H920    1.110   .     S
C891   C124    1.528   1_556 S
C892   H921    1.109   .     S
C892   H923    1.111   .     S
C892   H922    1.110   .     S
C893   O949    1.419   .     S
C893   H925    1.119   .     S
C893   C894    1.530   .     S
C893   H924    1.111   .     S
C894   H928    1.111   .     S
C894   H926    1.111   .     S
C895   H930    1.110   .     S
C895   H931    1.111   .     S
C895   H929    1.111   .     S
C895   C126    1.528   1_556 S
C896   H932    1.111   .     S
C896   O950    1.418   .     S
C896   H933    1.114   .     S
C896   C897    1.534   .     S
C897   H934    1.111   .     S
C897   H935    1.111   .     S
C898   C903    1.407   .     A
C898   H916    1.082   .     S
C898   N946    1.363   .     A
C899   H939    1.111   .     S
C899   H936    1.109   .     S
C899   H937    1.111   .     S
C899   C129    1.527   1_556 S
C900   H927    1.080   .     S
C900   C904    1.406   .     A
C900   N945    1.363   .     A
C901   H938    1.081   .     S
C901   N946    1.363   .     A
C902   H944    1.082   .     S
C903   H906    1.082   .     S
C904   H907    1.082   .     S
N945   Zn960   2.005   .     S
N946   Zn959   2.005   .     S
O947   Zn959   1.974   .     S
O951   Zn960   1.974   .     S
O952   Zn959   1.972   .     S
O953   Zn960   1.972   .     S
O954   Zn959   1.940   .     S
O955   Zn960   1.940   .     S
O956   Zn959   1.940   .     S
O957   Zn960   1.940   .     S
C961   O1049   1.289   .     A
C961   C978    1.451   .     S
C961   O1043   1.287   .     A
C962   H1004   1.082   .     S
C962   C966    1.410   .     A
C962   C997    1.407   .     A
C963   O1050   1.272   .     A
C963   C967    1.358   .     S
C963   O1053   1.272   .     A
C964   C968    1.358   .     S
C964   O1051   1.273   .     A
C964   O1052   1.272   .     A
C965   C998    1.411   .     A
C965   C1000   1.410   .     A
C966   C999    1.410   .     A
C966   C773    1.513   1_565 S
C968   C199    1.160   1_556 S
C969   H1036   1.084   .     S
C969   C974    1.386   .     A
C969   C980    1.391   .     A
C970   C975    1.388   .     A
C970   H1037   1.084   .     S
C970   C981    1.392   .     A
C971   C981    1.396   .     A
C971   H1038   1.084   .     S
C971   C976    1.385   .     A
C972   O1047   1.287   .     A
C972   O1048   1.287   .     A
C972   C979    1.446   .     S
C973   H1039   1.084   .     S
C973   C980    1.395   .     A
C973   C977    1.385   .     A
C974   C978    1.417   .     A
C974   O1054   1.384   .     S
C975   C979    1.414   .     A
C975   O1044   1.383   .     S
C976   O1045   1.384   .     S
C976   C979    1.407   .     A
C977   O1046   1.386   .     S
C977   C978    1.412   .     A
C980   C1077   1.439   1_455 S
C981   C1076   1.439   .     S
C982   O1054   1.416   .     S
C982   H1006   1.118   .     S
C982   C984    1.531   .     S
C982   H1005   1.110   .     S
C983   N1041   1.363   .     A
C983   C998    1.407   .     A
C983   H1001   1.082   .     S
C984   H1008   1.110   .     S
C984   H1007   1.111   .     S
C984   C217    1.527   1_556 S
C985   H1010   1.110   .     S
C985   H1011   1.111   .     S
C985   H1009   1.109   .     S
C986   C987    1.532   .     S
C986   H1014   1.117   .     S
C986   H1013   1.108   .     S
C986   O1044   1.416   .     S
C987   H1015   1.112   .     S
C987   H1016   1.110   .     S
C987   C220    1.528   1_556 S
C988   H1017   1.109   .     S
C988   H1019   1.111   .     S
C988   H1018   1.110   .     S
C989   O1045   1.419   .     S
C989   H1021   1.119   .     S
C989   C990    1.530   .     S
C989   H1020   1.111   .     S
C990   H1024   1.111   .     S
C990   H1022   1.111   .     S
C991   H1026   1.110   .     S
C991   H1027   1.111   .     S
C991   H1025   1.111   .     S
C991   C222    1.528   1_556 S
C992   H1028   1.111   .     S
C992   O1046   1.418   .     S
C992   H1029   1.114   .     S
C992   C993    1.534   .     S
C993   H1030   1.111   .     S
C993   H1031   1.111   .     S
C994   C999    1.407   .     A
C994   H1012   1.082   .     S
C994   N1042   1.363   .     A
C995   H1035   1.111   .     S
C995   H1032   1.109   .     S
C995   H1033   1.111   .     S
C995   C225    1.527   1_556 S
C996   H1023   1.080   .     S
C996   C1000   1.406   .     A
C996   N1041   1.363   .     A
C997   H1034   1.081   .     S
C997   N1042   1.363   .     A
C998   H1040   1.082   .     S
C999   H1002   1.082   .     S
C1000  H1003   1.082   .     S
N1041  Zn1056  2.005   .     S
N1042  Zn1055  2.005   .     S
O1043  Zn1055  1.974   .     S
O1047  Zn1056  1.974   .     S
O1048  Zn1055  1.972   .     S
O1049  Zn1056  1.972   .     S
O1050  Zn1055  1.940   .     S
O1051  Zn1056  1.940   .     S
O1052  Zn1055  1.940   .     S
O1053  Zn1056  1.940   .     S
C1057  O1145   1.289   .     A
C1057  C1074   1.451   .     S
C1057  O1139   1.287   .     A
C1058  H1100   1.082   .     S
C1058  C1062   1.410   .     A
C1058  C1093   1.407   .     A
C1059  O1146   1.272   .     A
C1059  C1063   1.358   .     S
C1059  O1149   1.272   .     A
C1060  C1064   1.358   .     S
C1060  O1147   1.273   .     A
C1060  O1148   1.272   .     A
C1061  C1094   1.411   .     A
C1061  C1096   1.410   .     A
C1062  C1095   1.410   .     A
C1062  C869    1.513   1_565 S
C1064  C295    1.160   1_556 S
C1065  H1132   1.084   .     S
C1065  C1070   1.386   .     A
C1065  C1076   1.391   .     A
C1066  C1071   1.388   .     A
C1066  H1133   1.084   .     S
C1066  C1077   1.392   .     A
C1067  C1077   1.396   .     A
C1067  H1134   1.084   .     S
C1067  C1072   1.385   .     A
C1068  O1143   1.287   .     A
C1068  O1144   1.287   .     A
C1068  C1075   1.446   .     S
C1069  H1135   1.084   .     S
C1069  C1076   1.395   .     A
C1069  C1073   1.385   .     A
C1070  C1074   1.417   .     A
C1070  O1150   1.384   .     S
C1071  C1075   1.414   .     A
C1071  O1140   1.383   .     S
C1072  O1141   1.384   .     S
C1072  C1075   1.407   .     A
C1073  O1142   1.386   .     S
C1073  C1074   1.412   .     A
C1077  C980    1.439   1_655 S
C1078  O1150   1.416   .     S
C1078  H1102   1.118   .     S
C1078  C1080   1.531   .     S
C1078  H1101   1.110   .     S
C1079  N1137   1.363   .     A
C1079  C1094   1.407   .     A
C1079  H1097   1.082   .     S
C1080  H1104   1.110   .     S
C1080  H1103   1.111   .     S
C1080  C313    1.527   1_556 S
C1081  H1106   1.110   .     S
C1081  H1107   1.111   .     S
C1081  H1105   1.109   .     S
C1082  C1083   1.532   .     S
C1082  H1110   1.117   .     S
C1082  H1109   1.108   .     S
C1082  O1140   1.416   .     S
C1083  H1111   1.112   .     S
C1083  H1112   1.110   .     S
C1083  C316    1.528   1_556 S
C1084  H1113   1.109   .     S
C1084  H1115   1.111   .     S
C1084  H1114   1.110   .     S
C1085  O1141   1.419   .     S
C1085  H1117   1.119   .     S
C1085  C1086   1.530   .     S
C1085  H1116   1.111   .     S
C1086  H1120   1.111   .     S
C1086  H1118   1.111   .     S
C1087  H1122   1.110   .     S
C1087  H1123   1.111   .     S
C1087  H1121   1.111   .     S
C1087  C318    1.528   1_556 S
C1088  H1124   1.111   .     S
C1088  O1142   1.418   .     S
C1088  H1125   1.114   .     S
C1088  C1089   1.534   .     S
C1089  H1126   1.111   .     S
C1089  H1127   1.111   .     S
C1090  C1095   1.407   .     A
C1090  H1108   1.082   .     S
C1090  N1138   1.363   .     A
C1091  H1131   1.111   .     S
C1091  H1128   1.109   .     S
C1091  H1129   1.111   .     S
C1091  C321    1.527   1_556 S
C1092  H1119   1.080   .     S
C1092  C1096   1.406   .     A
C1092  N1137   1.363   .     A
C1093  H1130   1.081   .     S
C1093  N1138   1.363   .     A
C1094  H1136   1.082   .     S
C1095  H1098   1.082   .     S
C1096  H1099   1.082   .     S
N1137  Zn1152  2.005   .     S
N1138  Zn1151  2.005   .     S
O1139  Zn1151  1.974   .     S
O1143  Zn1152  1.974   .     S
O1144  Zn1151  1.972   .     S
O1145  Zn1152  1.972   .     S
O1146  Zn1151  1.940   .     S
O1147  Zn1152  1.940   .     S
O1148  Zn1151  1.940   .     S
O1149  Zn1152  1.940   .     S
