data_str_m3_o1_o18_pcu_sym.13
_audit_creation_date              2020-01-03
_audit_creation_method            'Materials Studio'
_symmetry_space_group_name_H-M    'P1'
_symmetry_Int_Tables_number       1
_symmetry_cell_setting            triclinic
loop_
_symmetry_equiv_pos_as_xyz
  x,y,z
_cell_length_a                    29.9141
_cell_length_b                    31.9867
_cell_length_c                    30.8900
_cell_angle_alpha                 90.0803
_cell_angle_beta                  68.6725
_cell_angle_gamma                 89.7997
loop_
_atom_site_label
_atom_site_type_symbol
_atom_site_fract_x
_atom_site_fract_y
_atom_site_fract_z
_atom_site_U_iso_or_equiv
_atom_site_adp_type
_atom_site_occupancy
C1     C     0.16674   0.24652   0.24950   0.00000  Uiso   1.00
C2     C     0.14229   0.31242   0.22499   0.00000  Uiso   1.00
C3     C     0.16626   0.04272   0.25125   0.00000  Uiso   1.00
C4     C     0.16624   0.29077   0.24967   0.00000  Uiso   1.00
C5     C     0.32257   0.18525   0.21500   0.00000  Uiso   1.00
C6     C     0.01080   0.14797   0.28493   0.00000  Uiso   1.00
C7     C     0.03689   0.18516   0.21496   0.00000  Uiso   1.00
C8     C     0.29650   0.14787   0.28487   0.00000  Uiso   1.00
C9     C     0.13677   0.16576   0.33780   0.00000  Uiso   1.00
C10    C     0.19662   0.16560   0.16230   0.00000  Uiso   1.00
C11    C     0.11936   0.15973   0.38805   0.00000  Uiso   1.00
C12    C     0.16655   0.08687   0.25050   0.00000  Uiso   1.00
C13    C     0.21445   0.15674   0.11269   0.00000  Uiso   1.00
C14    C     0.05592   0.15181   0.46306   0.00000  Uiso   1.00
C15    C     0.27061   0.12142   0.04533   0.00000  Uiso   1.00
C16    C     0.07041   0.15881   0.41536   0.00000  Uiso   1.00
C17    C     0.25770   0.13544   0.09121   0.00000  Uiso   1.00
C18    C     0.15339   0.15286   0.40845   0.00000  Uiso   1.00
C19    C     0.18352   0.16246   0.08899   0.00000  Uiso   1.00
C20    C     0.13961   0.14481   0.45568   0.00000  Uiso   1.00
C21    C     0.19429   0.14546   0.04476   0.00000  Uiso   1.00
C22    C     0.09015   0.14505   0.48364   0.00000  Uiso   1.00
C23    C     0.11063   0.14343   0.05203   0.00000  Uiso   1.00
C24    C     0.24017   0.12836   0.02084   0.00000  Uiso   1.00
C25    C     0.17406   0.13826   0.47626   0.00000  Uiso   1.00
C26    C     0.15961   0.14402   0.02451   0.00000  Uiso   1.00
C27    C     0.03341   0.08390   0.07141   0.00000  Uiso   1.00
C28    C     0.29712   0.05974   0.43970   0.00000  Uiso   1.00
C29    C     0.17729   0.04734   0.34903   0.00000  Uiso   1.00
C30    C     0.07281   0.29781   0.21337   0.00000  Uiso   1.00
C31    C     0.22162   0.12507   0.45097   0.00000  Uiso   1.00
C32    C     0.07659   0.13875   0.03161   0.00000  Uiso   1.00
C33    C     0.25355   0.11715   0.47379   0.00000  Uiso   1.00
C34    C     0.18895   0.31137   0.27582   0.00000  Uiso   1.00
C35    C     0.14374   0.02219   0.22501   0.00000  Uiso   1.00
C36    C     0.18807   0.02102   0.27776   0.00000  Uiso   1.00
H37    H     0.15032   0.17950   0.10579   0.00000  Uiso   1.00
H38    H     0.12841   0.03966   0.20368   0.00000  Uiso   1.00
H39    H     0.31534   0.20023   0.18684   0.00000  Uiso   1.00
H40    H     0.01805   0.13290   0.31303   0.00000  Uiso   1.00
H41    H     0.06516   0.19995   0.18666   0.00000  Uiso   1.00
H42    H     0.26835   0.13262   0.31289   0.00000  Uiso   1.00
H43    H     0.05050   0.08129   0.09779   0.00000  Uiso   1.00
H44    H     0.05254   0.06369   0.04076   0.00000  Uiso   1.00
H45    H     0.32998   0.07122   0.08757   0.00000  Uiso   1.00
H46    H     0.27807   0.05441   0.41526   0.00000  Uiso   1.00
H47    H     0.27987   0.04164   0.47229   0.00000  Uiso   1.00
H48    H     0.19101   0.15543   0.38745   0.00000  Uiso   1.00
H49    H     0.00093   0.04766   0.42282   0.00000  Uiso   1.00
H50    H     0.14608   0.06658   0.34936   0.00000  Uiso   1.00
H51    H     0.19516   0.06441   0.36950   0.00000  Uiso   1.00
H52    H     0.16488   0.01683   0.36646   0.00000  Uiso   1.00
H53    H     0.05571   0.28860   0.25052   0.00000  Uiso   1.00
H54    H     0.05734   0.27791   0.19298   0.00000  Uiso   1.00
H55    H     0.06363   0.33072   0.20849   0.00000  Uiso   1.00
H56    H     0.28006   0.12851   0.11093   0.00000  Uiso   1.00
H57    H     0.04353   0.16411   0.40009   0.00000  Uiso   1.00
H58    H     0.01824   0.15368   0.48388   0.00000  Uiso   1.00
H59    H     0.30309   0.10355   0.02936   0.00000  Uiso   1.00
H60    H     0.09845   0.14152   0.08952   0.00000  Uiso   1.00
H61    H     0.23364   0.11779   0.41433   0.00000  Uiso   1.00
H62    H     0.20656   0.29414   0.29537   0.00000  Uiso   1.00
N63    N     0.04759   0.16668   0.25001   0.00000  Uiso   1.00
N64    N     0.28574   0.16666   0.24999   0.00000  Uiso   1.00
O65    O     0.12846   0.22775   0.25000   0.00000  Uiso   1.00
O66    O     0.29942   0.10266   0.44905   0.00000  Uiso   1.00
O67    O     0.21068   0.04160   0.30347   0.00000  Uiso   1.00
O68    O     0.12294   0.29131   0.19670   0.00000  Uiso   1.00
O69    O     0.20488   0.10558   0.24999   0.00000  Uiso   1.00
O70    O     0.20490   0.22774   0.25000   0.00000  Uiso   1.00
O71    O     0.12843   0.10559   0.25000   0.00000  Uiso   1.00
O72    O     0.10661   0.16667   0.31612   0.00000  Uiso   1.00
O73    O     0.22672   0.16666   0.18387   0.00000  Uiso   1.00
O74    O     0.18305   0.16666   0.31612   0.00000  Uiso   1.00
O75    O     0.15028   0.16667   0.18388   0.00000  Uiso   1.00
O76    O     0.03098   0.12612   0.05836   0.00000  Uiso   1.00
Zn77   Zn    0.11562   0.16667   0.25000   0.00000  Uiso   1.00
Zn78   Zn    0.21771   0.16666   0.25000   0.00000  Uiso   1.00
C79    C     0.50007   0.24652   0.24950   0.00000  Uiso   1.00
C80    C     0.47562   0.31242   0.22499   0.00000  Uiso   1.00
C81    C     0.49959   0.04272   0.25125   0.00000  Uiso   1.00
C82    C     0.49957   0.29077   0.24967   0.00000  Uiso   1.00
C83    C     0.65590   0.18525   0.21500   0.00000  Uiso   1.00
C84    C     0.34413   0.14797   0.28493   0.00000  Uiso   1.00
C85    C     0.37023   0.18516   0.21496   0.00000  Uiso   1.00
C86    C     0.62984   0.14787   0.28487   0.00000  Uiso   1.00
C87    C     0.47011   0.16576   0.33780   0.00000  Uiso   1.00
C88    C     0.52995   0.16560   0.16230   0.00000  Uiso   1.00
C89    C     0.45269   0.15973   0.38805   0.00000  Uiso   1.00
C90    C     0.49989   0.08687   0.25050   0.00000  Uiso   1.00
C91    C     0.54778   0.15674   0.11269   0.00000  Uiso   1.00
C92    C     0.38925   0.15181   0.46306   0.00000  Uiso   1.00
C93    C     0.60394   0.12142   0.04533   0.00000  Uiso   1.00
C94    C     0.40374   0.15881   0.41536   0.00000  Uiso   1.00
C95    C     0.59104   0.13544   0.09121   0.00000  Uiso   1.00
C96    C     0.48672   0.15286   0.40845   0.00000  Uiso   1.00
C97    C     0.51685   0.16246   0.08899   0.00000  Uiso   1.00
C98    C     0.47294   0.14481   0.45568   0.00000  Uiso   1.00
C99    C     0.52763   0.14546   0.04476   0.00000  Uiso   1.00
C100   C     0.42348   0.14505   0.48364   0.00000  Uiso   1.00
C101   C     0.44396   0.14343   0.05203   0.00000  Uiso   1.00
C102   C     0.57350   0.12836   0.02084   0.00000  Uiso   1.00
C103   C     0.50739   0.13826   0.47626   0.00000  Uiso   1.00
C104   C     0.49295   0.14402   0.02451   0.00000  Uiso   1.00
C105   C     0.36674   0.08390   0.07141   0.00000  Uiso   1.00
C106   C     0.63046   0.05974   0.43970   0.00000  Uiso   1.00
C107   C     0.51063   0.04734   0.34903   0.00000  Uiso   1.00
C108   C     0.40614   0.29781   0.21337   0.00000  Uiso   1.00
C109   C     0.55495   0.12507   0.45097   0.00000  Uiso   1.00
C110   C     0.40992   0.13875   0.03161   0.00000  Uiso   1.00
C111   C     0.58688   0.11715   0.47379   0.00000  Uiso   1.00
C112   C     0.52228   0.31137   0.27582   0.00000  Uiso   1.00
C113   C     0.47707   0.02219   0.22501   0.00000  Uiso   1.00
C114   C     0.52140   0.02102   0.27776   0.00000  Uiso   1.00
H115   H     0.48366   0.17950   0.10579   0.00000  Uiso   1.00
H116   H     0.46174   0.03966   0.20368   0.00000  Uiso   1.00
H117   H     0.64868   0.20023   0.18684   0.00000  Uiso   1.00
H118   H     0.35139   0.13290   0.31303   0.00000  Uiso   1.00
H119   H     0.39850   0.19995   0.18666   0.00000  Uiso   1.00
H120   H     0.60169   0.13262   0.31289   0.00000  Uiso   1.00
H121   H     0.38384   0.08129   0.09779   0.00000  Uiso   1.00
H122   H     0.38587   0.06369   0.04076   0.00000  Uiso   1.00
H123   H     0.66332   0.07122   0.08757   0.00000  Uiso   1.00
H124   H     0.61141   0.05441   0.41526   0.00000  Uiso   1.00
H125   H     0.61320   0.04164   0.47229   0.00000  Uiso   1.00
H126   H     0.52434   0.15543   0.38745   0.00000  Uiso   1.00
H127   H     0.33426   0.04766   0.42282   0.00000  Uiso   1.00
H128   H     0.47941   0.06658   0.34936   0.00000  Uiso   1.00
H129   H     0.52850   0.06441   0.36950   0.00000  Uiso   1.00
H130   H     0.49821   0.01683   0.36646   0.00000  Uiso   1.00
H131   H     0.38904   0.28860   0.25052   0.00000  Uiso   1.00
H132   H     0.39068   0.27791   0.19298   0.00000  Uiso   1.00
H133   H     0.39696   0.33072   0.20849   0.00000  Uiso   1.00
H134   H     0.61340   0.12851   0.11093   0.00000  Uiso   1.00
H135   H     0.37687   0.16411   0.40009   0.00000  Uiso   1.00
H136   H     0.35158   0.15368   0.48388   0.00000  Uiso   1.00
H137   H     0.63642   0.10355   0.02936   0.00000  Uiso   1.00
H138   H     0.43178   0.14152   0.08952   0.00000  Uiso   1.00
H139   H     0.56697   0.11779   0.41433   0.00000  Uiso   1.00
H140   H     0.53989   0.29414   0.29537   0.00000  Uiso   1.00
N141   N     0.38093   0.16668   0.25001   0.00000  Uiso   1.00
N142   N     0.61907   0.16666   0.24999   0.00000  Uiso   1.00
O143   O     0.46179   0.22775   0.25000   0.00000  Uiso   1.00
O144   O     0.63275   0.10266   0.44905   0.00000  Uiso   1.00
O145   O     0.54402   0.04160   0.30347   0.00000  Uiso   1.00
O146   O     0.45627   0.29131   0.19670   0.00000  Uiso   1.00
O147   O     0.53821   0.10558   0.24999   0.00000  Uiso   1.00
O148   O     0.53823   0.22774   0.25000   0.00000  Uiso   1.00
O149   O     0.46177   0.10559   0.25000   0.00000  Uiso   1.00
O150   O     0.43994   0.16667   0.31612   0.00000  Uiso   1.00
O151   O     0.56006   0.16666   0.18387   0.00000  Uiso   1.00
O152   O     0.51639   0.16666   0.31612   0.00000  Uiso   1.00
O153   O     0.48361   0.16667   0.18388   0.00000  Uiso   1.00
O154   O     0.36431   0.12612   0.05836   0.00000  Uiso   1.00
Zn155  Zn    0.44896   0.16667   0.25000   0.00000  Uiso   1.00
Zn156  Zn    0.55104   0.16666   0.25000   0.00000  Uiso   1.00
C157   C     0.83341   0.24652   0.24950   0.00000  Uiso   1.00
C158   C     0.80895   0.31242   0.22499   0.00000  Uiso   1.00
C159   C     0.83292   0.04272   0.25125   0.00000  Uiso   1.00
C160   C     0.83291   0.29077   0.24967   0.00000  Uiso   1.00
C161   C     0.98923   0.18525   0.21500   0.00000  Uiso   1.00
C162   C     0.67747   0.14797   0.28493   0.00000  Uiso   1.00
C163   C     0.70356   0.18516   0.21496   0.00000  Uiso   1.00
C164   C     0.96317   0.14787   0.28487   0.00000  Uiso   1.00
C165   C     0.80344   0.16576   0.33780   0.00000  Uiso   1.00
C166   C     0.86328   0.16560   0.16230   0.00000  Uiso   1.00
C167   C     0.78603   0.15973   0.38805   0.00000  Uiso   1.00
C168   C     0.83322   0.08687   0.25050   0.00000  Uiso   1.00
C169   C     0.88111   0.15674   0.11269   0.00000  Uiso   1.00
C170   C     0.72258   0.15181   0.46306   0.00000  Uiso   1.00
C171   C     0.93728   0.12142   0.04533   0.00000  Uiso   1.00
C172   C     0.73708   0.15881   0.41536   0.00000  Uiso   1.00
C173   C     0.92437   0.13544   0.09121   0.00000  Uiso   1.00
C174   C     0.82005   0.15286   0.40845   0.00000  Uiso   1.00
C175   C     0.85018   0.16246   0.08899   0.00000  Uiso   1.00
C176   C     0.80627   0.14481   0.45568   0.00000  Uiso   1.00
C177   C     0.86096   0.14546   0.04476   0.00000  Uiso   1.00
C178   C     0.75682   0.14505   0.48364   0.00000  Uiso   1.00
C179   C     0.77730   0.14343   0.05203   0.00000  Uiso   1.00
C180   C     0.90683   0.12836   0.02084   0.00000  Uiso   1.00
C181   C     0.84073   0.13826   0.47626   0.00000  Uiso   1.00
C182   C     0.82628   0.14402   0.02451   0.00000  Uiso   1.00
C183   C     0.70007   0.08390   0.07141   0.00000  Uiso   1.00
C184   C     0.96379   0.05974   0.43970   0.00000  Uiso   1.00
C185   C     0.84396   0.04734   0.34903   0.00000  Uiso   1.00
C186   C     0.73948   0.29781   0.21337   0.00000  Uiso   1.00
C187   C     0.88828   0.12507   0.45097   0.00000  Uiso   1.00
C188   C     0.74325   0.13875   0.03161   0.00000  Uiso   1.00
C189   C     0.92022   0.11715   0.47379   0.00000  Uiso   1.00
C190   C     0.85562   0.31137   0.27582   0.00000  Uiso   1.00
C191   C     0.81040   0.02219   0.22501   0.00000  Uiso   1.00
C192   C     0.85473   0.02102   0.27776   0.00000  Uiso   1.00
H193   H     0.81699   0.17950   0.10579   0.00000  Uiso   1.00
H194   H     0.79507   0.03966   0.20368   0.00000  Uiso   1.00
H195   H     0.98201   0.20023   0.18684   0.00000  Uiso   1.00
H196   H     0.68472   0.13290   0.31303   0.00000  Uiso   1.00
H197   H     0.73183   0.19995   0.18666   0.00000  Uiso   1.00
H198   H     0.93502   0.13262   0.31289   0.00000  Uiso   1.00
H199   H     0.71717   0.08129   0.09779   0.00000  Uiso   1.00
H200   H     0.71921   0.06369   0.04076   0.00000  Uiso   1.00
H201   H     0.99665   0.07122   0.08757   0.00000  Uiso   1.00
H202   H     0.94474   0.05441   0.41526   0.00000  Uiso   1.00
H203   H     0.94653   0.04164   0.47229   0.00000  Uiso   1.00
H204   H     0.85767   0.15543   0.38745   0.00000  Uiso   1.00
H205   H     0.66759   0.04766   0.42282   0.00000  Uiso   1.00
H206   H     0.81274   0.06658   0.34936   0.00000  Uiso   1.00
H207   H     0.86183   0.06441   0.36950   0.00000  Uiso   1.00
H208   H     0.83154   0.01683   0.36646   0.00000  Uiso   1.00
H209   H     0.72238   0.28860   0.25052   0.00000  Uiso   1.00
H210   H     0.72401   0.27791   0.19298   0.00000  Uiso   1.00
H211   H     0.73029   0.33072   0.20849   0.00000  Uiso   1.00
H212   H     0.94673   0.12851   0.11093   0.00000  Uiso   1.00
H213   H     0.71020   0.16411   0.40009   0.00000  Uiso   1.00
H214   H     0.68491   0.15368   0.48388   0.00000  Uiso   1.00
H215   H     0.96976   0.10355   0.02936   0.00000  Uiso   1.00
H216   H     0.76511   0.14152   0.08952   0.00000  Uiso   1.00
H217   H     0.90031   0.11779   0.41433   0.00000  Uiso   1.00
H218   H     0.87323   0.29414   0.29537   0.00000  Uiso   1.00
N219   N     0.71426   0.16668   0.25001   0.00000  Uiso   1.00
N220   N     0.95241   0.16666   0.24999   0.00000  Uiso   1.00
O221   O     0.79512   0.22775   0.25000   0.00000  Uiso   1.00
O222   O     0.96609   0.10266   0.44905   0.00000  Uiso   1.00
O223   O     0.87735   0.04160   0.30347   0.00000  Uiso   1.00
O224   O     0.78961   0.29131   0.19670   0.00000  Uiso   1.00
O225   O     0.87154   0.10558   0.24999   0.00000  Uiso   1.00
O226   O     0.87157   0.22774   0.25000   0.00000  Uiso   1.00
O227   O     0.79510   0.10559   0.25000   0.00000  Uiso   1.00
O228   O     0.77328   0.16667   0.31612   0.00000  Uiso   1.00
O229   O     0.89339   0.16666   0.18387   0.00000  Uiso   1.00
O230   O     0.84972   0.16666   0.31612   0.00000  Uiso   1.00
O231   O     0.81695   0.16667   0.18388   0.00000  Uiso   1.00
O232   O     0.69764   0.12612   0.05836   0.00000  Uiso   1.00
Zn233  Zn    0.78229   0.16667   0.25000   0.00000  Uiso   1.00
Zn234  Zn    0.88438   0.16666   0.25000   0.00000  Uiso   1.00
C235   C     0.16674   0.57986   0.24950   0.00000  Uiso   1.00
C236   C     0.14229   0.64575   0.22499   0.00000  Uiso   1.00
C237   C     0.16626   0.37606   0.25125   0.00000  Uiso   1.00
C238   C     0.16624   0.62410   0.24967   0.00000  Uiso   1.00
C239   C     0.32257   0.51858   0.21500   0.00000  Uiso   1.00
C240   C     0.01080   0.48130   0.28493   0.00000  Uiso   1.00
C241   C     0.03689   0.51850   0.21496   0.00000  Uiso   1.00
C242   C     0.29650   0.48121   0.28487   0.00000  Uiso   1.00
C243   C     0.13677   0.49910   0.33780   0.00000  Uiso   1.00
C244   C     0.19662   0.49893   0.16230   0.00000  Uiso   1.00
C245   C     0.11936   0.49307   0.38805   0.00000  Uiso   1.00
C246   C     0.16655   0.42020   0.25050   0.00000  Uiso   1.00
C247   C     0.21445   0.49007   0.11269   0.00000  Uiso   1.00
C248   C     0.05592   0.48514   0.46306   0.00000  Uiso   1.00
C249   C     0.27061   0.45475   0.04533   0.00000  Uiso   1.00
C250   C     0.07041   0.49214   0.41536   0.00000  Uiso   1.00
C251   C     0.25770   0.46878   0.09121   0.00000  Uiso   1.00
C252   C     0.15339   0.48619   0.40845   0.00000  Uiso   1.00
C253   C     0.18352   0.49579   0.08899   0.00000  Uiso   1.00
C254   C     0.13961   0.47814   0.45568   0.00000  Uiso   1.00
C255   C     0.19429   0.47879   0.04476   0.00000  Uiso   1.00
C256   C     0.09015   0.47838   0.48364   0.00000  Uiso   1.00
C257   C     0.11063   0.47676   0.05203   0.00000  Uiso   1.00
C258   C     0.24017   0.46170   0.02084   0.00000  Uiso   1.00
C259   C     0.17406   0.47159   0.47626   0.00000  Uiso   1.00
C260   C     0.15961   0.47735   0.02451   0.00000  Uiso   1.00
C261   C     0.03341   0.41724   0.07141   0.00000  Uiso   1.00
C262   C     0.29712   0.39308   0.43970   0.00000  Uiso   1.00
C263   C     0.17729   0.38068   0.34903   0.00000  Uiso   1.00
C264   C     0.07281   0.63115   0.21337   0.00000  Uiso   1.00
C265   C     0.22162   0.45840   0.45097   0.00000  Uiso   1.00
C266   C     0.07659   0.47208   0.03161   0.00000  Uiso   1.00
C267   C     0.25355   0.45048   0.47379   0.00000  Uiso   1.00
C268   C     0.18895   0.64470   0.27582   0.00000  Uiso   1.00
C269   C     0.14374   0.35553   0.22501   0.00000  Uiso   1.00
C270   C     0.18807   0.35436   0.27776   0.00000  Uiso   1.00
H271   H     0.15032   0.51283   0.10579   0.00000  Uiso   1.00
H272   H     0.12841   0.37300   0.20368   0.00000  Uiso   1.00
H273   H     0.31534   0.53356   0.18684   0.00000  Uiso   1.00
H274   H     0.01805   0.46623   0.31303   0.00000  Uiso   1.00
H275   H     0.06516   0.53329   0.18666   0.00000  Uiso   1.00
H276   H     0.26835   0.46596   0.31289   0.00000  Uiso   1.00
H277   H     0.05050   0.41462   0.09779   0.00000  Uiso   1.00
H278   H     0.05254   0.39703   0.04076   0.00000  Uiso   1.00
H279   H     0.32998   0.40455   0.08757   0.00000  Uiso   1.00
H280   H     0.27807   0.38774   0.41526   0.00000  Uiso   1.00
H281   H     0.27987   0.37497   0.47229   0.00000  Uiso   1.00
H282   H     0.19101   0.48877   0.38745   0.00000  Uiso   1.00
H283   H     0.00093   0.38099   0.42282   0.00000  Uiso   1.00
H284   H     0.14608   0.39991   0.34936   0.00000  Uiso   1.00
H285   H     0.19516   0.39775   0.36950   0.00000  Uiso   1.00
H286   H     0.16488   0.35016   0.36646   0.00000  Uiso   1.00
H287   H     0.05571   0.62193   0.25052   0.00000  Uiso   1.00
H288   H     0.05734   0.61124   0.19298   0.00000  Uiso   1.00
H289   H     0.06363   0.66406   0.20849   0.00000  Uiso   1.00
H290   H     0.28006   0.46184   0.11093   0.00000  Uiso   1.00
H291   H     0.04353   0.49744   0.40009   0.00000  Uiso   1.00
H292   H     0.01824   0.48701   0.48388   0.00000  Uiso   1.00
H293   H     0.30309   0.43688   0.02936   0.00000  Uiso   1.00
H294   H     0.09845   0.47485   0.08952   0.00000  Uiso   1.00
H295   H     0.23364   0.45112   0.41433   0.00000  Uiso   1.00
H296   H     0.20656   0.62748   0.29537   0.00000  Uiso   1.00
N297   N     0.04759   0.50001   0.25001   0.00000  Uiso   1.00
N298   N     0.28574   0.49999   0.24999   0.00000  Uiso   1.00
O299   O     0.12846   0.56108   0.25000   0.00000  Uiso   1.00
O300   O     0.29942   0.43599   0.44905   0.00000  Uiso   1.00
O301   O     0.21068   0.37493   0.30347   0.00000  Uiso   1.00
O302   O     0.12294   0.62464   0.19670   0.00000  Uiso   1.00
O303   O     0.20488   0.43892   0.24999   0.00000  Uiso   1.00
O304   O     0.20490   0.56107   0.25000   0.00000  Uiso   1.00
O305   O     0.12843   0.43893   0.25000   0.00000  Uiso   1.00
O306   O     0.10661   0.50001   0.31612   0.00000  Uiso   1.00
O307   O     0.22672   0.49999   0.18387   0.00000  Uiso   1.00
O308   O     0.18305   0.50000   0.31612   0.00000  Uiso   1.00
O309   O     0.15028   0.50000   0.18388   0.00000  Uiso   1.00
O310   O     0.03098   0.45945   0.05836   0.00000  Uiso   1.00
Zn311  Zn    0.11562   0.50001   0.25000   0.00000  Uiso   1.00
Zn312  Zn    0.21771   0.49999   0.25000   0.00000  Uiso   1.00
C313   C     0.50007   0.57986   0.24950   0.00000  Uiso   1.00
C314   C     0.47562   0.64575   0.22499   0.00000  Uiso   1.00
C315   C     0.49959   0.37606   0.25125   0.00000  Uiso   1.00
C316   C     0.49957   0.62410   0.24967   0.00000  Uiso   1.00
C317   C     0.65590   0.51858   0.21500   0.00000  Uiso   1.00
C318   C     0.34413   0.48130   0.28493   0.00000  Uiso   1.00
C319   C     0.37023   0.51850   0.21496   0.00000  Uiso   1.00
C320   C     0.62984   0.48121   0.28487   0.00000  Uiso   1.00
C321   C     0.47011   0.49910   0.33780   0.00000  Uiso   1.00
C322   C     0.52995   0.49893   0.16230   0.00000  Uiso   1.00
C323   C     0.45269   0.49307   0.38805   0.00000  Uiso   1.00
C324   C     0.49989   0.42020   0.25050   0.00000  Uiso   1.00
C325   C     0.54778   0.49007   0.11269   0.00000  Uiso   1.00
C326   C     0.38925   0.48514   0.46306   0.00000  Uiso   1.00
C327   C     0.60394   0.45475   0.04533   0.00000  Uiso   1.00
C328   C     0.40374   0.49214   0.41536   0.00000  Uiso   1.00
C329   C     0.59104   0.46878   0.09121   0.00000  Uiso   1.00
C330   C     0.48672   0.48619   0.40845   0.00000  Uiso   1.00
C331   C     0.51685   0.49579   0.08899   0.00000  Uiso   1.00
C332   C     0.47294   0.47814   0.45568   0.00000  Uiso   1.00
C333   C     0.52763   0.47879   0.04476   0.00000  Uiso   1.00
C334   C     0.42348   0.47838   0.48364   0.00000  Uiso   1.00
C335   C     0.44396   0.47676   0.05203   0.00000  Uiso   1.00
C336   C     0.57350   0.46170   0.02084   0.00000  Uiso   1.00
C337   C     0.50739   0.47159   0.47626   0.00000  Uiso   1.00
C338   C     0.49295   0.47735   0.02451   0.00000  Uiso   1.00
C339   C     0.36674   0.41724   0.07141   0.00000  Uiso   1.00
C340   C     0.63046   0.39308   0.43970   0.00000  Uiso   1.00
C341   C     0.51063   0.38068   0.34903   0.00000  Uiso   1.00
C342   C     0.40614   0.63115   0.21337   0.00000  Uiso   1.00
C343   C     0.55495   0.45840   0.45097   0.00000  Uiso   1.00
C344   C     0.40992   0.47208   0.03161   0.00000  Uiso   1.00
C345   C     0.58688   0.45048   0.47379   0.00000  Uiso   1.00
C346   C     0.52228   0.64470   0.27582   0.00000  Uiso   1.00
C347   C     0.47707   0.35553   0.22501   0.00000  Uiso   1.00
C348   C     0.52140   0.35436   0.27776   0.00000  Uiso   1.00
H349   H     0.48366   0.51283   0.10579   0.00000  Uiso   1.00
H350   H     0.46174   0.37300   0.20368   0.00000  Uiso   1.00
H351   H     0.64868   0.53356   0.18684   0.00000  Uiso   1.00
H352   H     0.35139   0.46623   0.31303   0.00000  Uiso   1.00
H353   H     0.39850   0.53329   0.18666   0.00000  Uiso   1.00
H354   H     0.60169   0.46596   0.31289   0.00000  Uiso   1.00
H355   H     0.38384   0.41462   0.09779   0.00000  Uiso   1.00
H356   H     0.38587   0.39703   0.04076   0.00000  Uiso   1.00
H357   H     0.66332   0.40455   0.08757   0.00000  Uiso   1.00
H358   H     0.61141   0.38774   0.41526   0.00000  Uiso   1.00
H359   H     0.61320   0.37497   0.47229   0.00000  Uiso   1.00
H360   H     0.52434   0.48877   0.38745   0.00000  Uiso   1.00
H361   H     0.33426   0.38099   0.42282   0.00000  Uiso   1.00
H362   H     0.47941   0.39991   0.34936   0.00000  Uiso   1.00
H363   H     0.52850   0.39775   0.36950   0.00000  Uiso   1.00
H364   H     0.49821   0.35016   0.36646   0.00000  Uiso   1.00
H365   H     0.38904   0.62193   0.25052   0.00000  Uiso   1.00
H366   H     0.39068   0.61124   0.19298   0.00000  Uiso   1.00
H367   H     0.39696   0.66406   0.20849   0.00000  Uiso   1.00
H368   H     0.61340   0.46184   0.11093   0.00000  Uiso   1.00
H369   H     0.37687   0.49744   0.40009   0.00000  Uiso   1.00
H370   H     0.35158   0.48701   0.48388   0.00000  Uiso   1.00
H371   H     0.63642   0.43688   0.02936   0.00000  Uiso   1.00
H372   H     0.43178   0.47485   0.08952   0.00000  Uiso   1.00
H373   H     0.56697   0.45112   0.41433   0.00000  Uiso   1.00
H374   H     0.53989   0.62748   0.29537   0.00000  Uiso   1.00
N375   N     0.38093   0.50001   0.25001   0.00000  Uiso   1.00
N376   N     0.61907   0.49999   0.24999   0.00000  Uiso   1.00
O377   O     0.46179   0.56108   0.25000   0.00000  Uiso   1.00
O378   O     0.63275   0.43599   0.44905   0.00000  Uiso   1.00
O379   O     0.54402   0.37493   0.30347   0.00000  Uiso   1.00
O380   O     0.45627   0.62464   0.19670   0.00000  Uiso   1.00
O381   O     0.53821   0.43892   0.24999   0.00000  Uiso   1.00
O382   O     0.53823   0.56107   0.25000   0.00000  Uiso   1.00
O383   O     0.46177   0.43893   0.25000   0.00000  Uiso   1.00
O384   O     0.43994   0.50001   0.31612   0.00000  Uiso   1.00
O385   O     0.56006   0.49999   0.18387   0.00000  Uiso   1.00
O386   O     0.51639   0.50000   0.31612   0.00000  Uiso   1.00
O387   O     0.48361   0.50000   0.18388   0.00000  Uiso   1.00
O388   O     0.36431   0.45945   0.05836   0.00000  Uiso   1.00
Zn389  Zn    0.44896   0.50001   0.25000   0.00000  Uiso   1.00
Zn390  Zn    0.55104   0.49999   0.25000   0.00000  Uiso   1.00
C391   C     0.83341   0.57986   0.24950   0.00000  Uiso   1.00
C392   C     0.80895   0.64575   0.22499   0.00000  Uiso   1.00
C393   C     0.83292   0.37606   0.25125   0.00000  Uiso   1.00
C394   C     0.83291   0.62410   0.24967   0.00000  Uiso   1.00
C395   C     0.98923   0.51858   0.21500   0.00000  Uiso   1.00
C396   C     0.67747   0.48130   0.28493   0.00000  Uiso   1.00
C397   C     0.70356   0.51850   0.21496   0.00000  Uiso   1.00
C398   C     0.96317   0.48121   0.28487   0.00000  Uiso   1.00
C399   C     0.80344   0.49910   0.33780   0.00000  Uiso   1.00
C400   C     0.86328   0.49893   0.16230   0.00000  Uiso   1.00
C401   C     0.78603   0.49307   0.38805   0.00000  Uiso   1.00
C402   C     0.83322   0.42020   0.25050   0.00000  Uiso   1.00
C403   C     0.88111   0.49007   0.11269   0.00000  Uiso   1.00
C404   C     0.72258   0.48514   0.46306   0.00000  Uiso   1.00
C405   C     0.93728   0.45475   0.04533   0.00000  Uiso   1.00
C406   C     0.73708   0.49214   0.41536   0.00000  Uiso   1.00
C407   C     0.92437   0.46878   0.09121   0.00000  Uiso   1.00
C408   C     0.82005   0.48619   0.40845   0.00000  Uiso   1.00
C409   C     0.85018   0.49579   0.08899   0.00000  Uiso   1.00
C410   C     0.80627   0.47814   0.45568   0.00000  Uiso   1.00
C411   C     0.86096   0.47879   0.04476   0.00000  Uiso   1.00
C412   C     0.75682   0.47838   0.48364   0.00000  Uiso   1.00
C413   C     0.77730   0.47676   0.05203   0.00000  Uiso   1.00
C414   C     0.90683   0.46170   0.02084   0.00000  Uiso   1.00
C415   C     0.84073   0.47159   0.47626   0.00000  Uiso   1.00
C416   C     0.82628   0.47735   0.02451   0.00000  Uiso   1.00
C417   C     0.70007   0.41724   0.07141   0.00000  Uiso   1.00
C418   C     0.96379   0.39308   0.43970   0.00000  Uiso   1.00
C419   C     0.84396   0.38068   0.34903   0.00000  Uiso   1.00
C420   C     0.73948   0.63115   0.21337   0.00000  Uiso   1.00
C421   C     0.88828   0.45840   0.45097   0.00000  Uiso   1.00
C422   C     0.74325   0.47208   0.03161   0.00000  Uiso   1.00
C423   C     0.92022   0.45048   0.47379   0.00000  Uiso   1.00
C424   C     0.85562   0.64470   0.27582   0.00000  Uiso   1.00
C425   C     0.81040   0.35553   0.22501   0.00000  Uiso   1.00
C426   C     0.85473   0.35436   0.27776   0.00000  Uiso   1.00
H427   H     0.81699   0.51283   0.10579   0.00000  Uiso   1.00
H428   H     0.79507   0.37300   0.20368   0.00000  Uiso   1.00
H429   H     0.98201   0.53356   0.18684   0.00000  Uiso   1.00
H430   H     0.68472   0.46623   0.31303   0.00000  Uiso   1.00
H431   H     0.73183   0.53329   0.18666   0.00000  Uiso   1.00
H432   H     0.93502   0.46596   0.31289   0.00000  Uiso   1.00
H433   H     0.71717   0.41462   0.09779   0.00000  Uiso   1.00
H434   H     0.71921   0.39703   0.04076   0.00000  Uiso   1.00
H435   H     0.99665   0.40455   0.08757   0.00000  Uiso   1.00
H436   H     0.94474   0.38774   0.41526   0.00000  Uiso   1.00
H437   H     0.94653   0.37497   0.47229   0.00000  Uiso   1.00
H438   H     0.85767   0.48877   0.38745   0.00000  Uiso   1.00
H439   H     0.66759   0.38099   0.42282   0.00000  Uiso   1.00
H440   H     0.81274   0.39991   0.34936   0.00000  Uiso   1.00
H441   H     0.86183   0.39775   0.36950   0.00000  Uiso   1.00
H442   H     0.83154   0.35016   0.36646   0.00000  Uiso   1.00
H443   H     0.72238   0.62193   0.25052   0.00000  Uiso   1.00
H444   H     0.72401   0.61124   0.19298   0.00000  Uiso   1.00
H445   H     0.73029   0.66406   0.20849   0.00000  Uiso   1.00
H446   H     0.94673   0.46184   0.11093   0.00000  Uiso   1.00
H447   H     0.71020   0.49744   0.40009   0.00000  Uiso   1.00
H448   H     0.68491   0.48701   0.48388   0.00000  Uiso   1.00
H449   H     0.96976   0.43688   0.02936   0.00000  Uiso   1.00
H450   H     0.76511   0.47485   0.08952   0.00000  Uiso   1.00
H451   H     0.90031   0.45112   0.41433   0.00000  Uiso   1.00
H452   H     0.87323   0.62748   0.29537   0.00000  Uiso   1.00
N453   N     0.71426   0.50001   0.25001   0.00000  Uiso   1.00
N454   N     0.95241   0.49999   0.24999   0.00000  Uiso   1.00
O455   O     0.79512   0.56108   0.25000   0.00000  Uiso   1.00
O456   O     0.96609   0.43599   0.44905   0.00000  Uiso   1.00
O457   O     0.87735   0.37493   0.30347   0.00000  Uiso   1.00
O458   O     0.78961   0.62464   0.19670   0.00000  Uiso   1.00
O459   O     0.87154   0.43892   0.24999   0.00000  Uiso   1.00
O460   O     0.87157   0.56107   0.25000   0.00000  Uiso   1.00
O461   O     0.79510   0.43893   0.25000   0.00000  Uiso   1.00
O462   O     0.77328   0.50001   0.31612   0.00000  Uiso   1.00
O463   O     0.89339   0.49999   0.18387   0.00000  Uiso   1.00
O464   O     0.84972   0.50000   0.31612   0.00000  Uiso   1.00
O465   O     0.81695   0.50000   0.18388   0.00000  Uiso   1.00
O466   O     0.69764   0.45945   0.05836   0.00000  Uiso   1.00
Zn467  Zn    0.78229   0.50001   0.25000   0.00000  Uiso   1.00
Zn468  Zn    0.88438   0.49999   0.25000   0.00000  Uiso   1.00
C469   C     0.16674   0.91319   0.24950   0.00000  Uiso   1.00
C470   C     0.14229   0.97909   0.22499   0.00000  Uiso   1.00
C471   C     0.16626   0.70939   0.25125   0.00000  Uiso   1.00
C472   C     0.16624   0.95744   0.24967   0.00000  Uiso   1.00
C473   C     0.32257   0.85191   0.21500   0.00000  Uiso   1.00
C474   C     0.01080   0.81463   0.28493   0.00000  Uiso   1.00
C475   C     0.03689   0.85183   0.21496   0.00000  Uiso   1.00
C476   C     0.29650   0.81454   0.28487   0.00000  Uiso   1.00
C477   C     0.13677   0.83243   0.33780   0.00000  Uiso   1.00
C478   C     0.19662   0.83226   0.16230   0.00000  Uiso   1.00
C479   C     0.11936   0.82640   0.38805   0.00000  Uiso   1.00
C480   C     0.16655   0.75353   0.25050   0.00000  Uiso   1.00
C481   C     0.21445   0.82340   0.11269   0.00000  Uiso   1.00
C482   C     0.05592   0.81848   0.46306   0.00000  Uiso   1.00
C483   C     0.27061   0.78808   0.04533   0.00000  Uiso   1.00
C484   C     0.07041   0.82548   0.41536   0.00000  Uiso   1.00
C485   C     0.25770   0.80211   0.09121   0.00000  Uiso   1.00
C486   C     0.15339   0.81953   0.40845   0.00000  Uiso   1.00
C487   C     0.18352   0.82912   0.08899   0.00000  Uiso   1.00
C488   C     0.13961   0.81148   0.45568   0.00000  Uiso   1.00
C489   C     0.19429   0.81213   0.04476   0.00000  Uiso   1.00
C490   C     0.09015   0.81172   0.48364   0.00000  Uiso   1.00
C491   C     0.11063   0.81009   0.05203   0.00000  Uiso   1.00
C492   C     0.24017   0.79503   0.02084   0.00000  Uiso   1.00
C493   C     0.17406   0.80493   0.47626   0.00000  Uiso   1.00
C494   C     0.15961   0.81069   0.02451   0.00000  Uiso   1.00
C495   C     0.03341   0.75057   0.07141   0.00000  Uiso   1.00
C496   C     0.29712   0.72641   0.43970   0.00000  Uiso   1.00
C497   C     0.17729   0.71401   0.34903   0.00000  Uiso   1.00
C498   C     0.07281   0.96448   0.21337   0.00000  Uiso   1.00
C499   C     0.22162   0.79173   0.45097   0.00000  Uiso   1.00
C500   C     0.07659   0.80542   0.03161   0.00000  Uiso   1.00
C501   C     0.25355   0.78382   0.47379   0.00000  Uiso   1.00
C502   C     0.18895   0.97803   0.27582   0.00000  Uiso   1.00
C503   C     0.14374   0.68886   0.22501   0.00000  Uiso   1.00
C504   C     0.18807   0.68769   0.27776   0.00000  Uiso   1.00
H505   H     0.15032   0.84616   0.10579   0.00000  Uiso   1.00
H506   H     0.12841   0.70633   0.20368   0.00000  Uiso   1.00
H507   H     0.31534   0.86689   0.18684   0.00000  Uiso   1.00
H508   H     0.01805   0.79956   0.31303   0.00000  Uiso   1.00
H509   H     0.06516   0.86662   0.18666   0.00000  Uiso   1.00
H510   H     0.26835   0.79929   0.31289   0.00000  Uiso   1.00
H511   H     0.05050   0.74796   0.09779   0.00000  Uiso   1.00
H512   H     0.05254   0.73036   0.04076   0.00000  Uiso   1.00
H513   H     0.32998   0.73789   0.08757   0.00000  Uiso   1.00
H514   H     0.27807   0.72107   0.41526   0.00000  Uiso   1.00
H515   H     0.27987   0.70830   0.47229   0.00000  Uiso   1.00
H516   H     0.19101   0.82210   0.38745   0.00000  Uiso   1.00
H517   H     0.00093   0.71433   0.42282   0.00000  Uiso   1.00
H518   H     0.14608   0.73324   0.34936   0.00000  Uiso   1.00
H519   H     0.19516   0.73108   0.36950   0.00000  Uiso   1.00
H520   H     0.16488   0.68349   0.36646   0.00000  Uiso   1.00
H521   H     0.05571   0.95526   0.25052   0.00000  Uiso   1.00
H522   H     0.05734   0.94458   0.19298   0.00000  Uiso   1.00
H523   H     0.06363   0.99739   0.20849   0.00000  Uiso   1.00
H524   H     0.28006   0.79518   0.11093   0.00000  Uiso   1.00
H525   H     0.04353   0.83077   0.40009   0.00000  Uiso   1.00
H526   H     0.01824   0.82035   0.48388   0.00000  Uiso   1.00
H527   H     0.30309   0.77021   0.02936   0.00000  Uiso   1.00
H528   H     0.09845   0.80818   0.08952   0.00000  Uiso   1.00
H529   H     0.23364   0.78445   0.41433   0.00000  Uiso   1.00
H530   H     0.20656   0.96081   0.29537   0.00000  Uiso   1.00
N531   N     0.04759   0.83334   0.25001   0.00000  Uiso   1.00
N532   N     0.28574   0.83332   0.24999   0.00000  Uiso   1.00
O533   O     0.12846   0.89442   0.25000   0.00000  Uiso   1.00
O534   O     0.29942   0.76933   0.44905   0.00000  Uiso   1.00
O535   O     0.21068   0.70827   0.30347   0.00000  Uiso   1.00
O536   O     0.12294   0.95797   0.19670   0.00000  Uiso   1.00
O537   O     0.20488   0.77225   0.24999   0.00000  Uiso   1.00
O538   O     0.20490   0.89441   0.25000   0.00000  Uiso   1.00
O539   O     0.12843   0.77226   0.25000   0.00000  Uiso   1.00
O540   O     0.10661   0.83334   0.31612   0.00000  Uiso   1.00
O541   O     0.22672   0.83333   0.18387   0.00000  Uiso   1.00
O542   O     0.18305   0.83333   0.31612   0.00000  Uiso   1.00
O543   O     0.15028   0.83334   0.18388   0.00000  Uiso   1.00
O544   O     0.03098   0.79279   0.05836   0.00000  Uiso   1.00
Zn545  Zn    0.11562   0.83334   0.25000   0.00000  Uiso   1.00
Zn546  Zn    0.21771   0.83333   0.25000   0.00000  Uiso   1.00
C547   C     0.50007   0.91319   0.24950   0.00000  Uiso   1.00
C548   C     0.47562   0.97909   0.22499   0.00000  Uiso   1.00
C549   C     0.49959   0.70939   0.25125   0.00000  Uiso   1.00
C550   C     0.49957   0.95744   0.24967   0.00000  Uiso   1.00
C551   C     0.65590   0.85191   0.21500   0.00000  Uiso   1.00
C552   C     0.34413   0.81463   0.28493   0.00000  Uiso   1.00
C553   C     0.37023   0.85183   0.21496   0.00000  Uiso   1.00
C554   C     0.62984   0.81454   0.28487   0.00000  Uiso   1.00
C555   C     0.47011   0.83243   0.33780   0.00000  Uiso   1.00
C556   C     0.52995   0.83226   0.16230   0.00000  Uiso   1.00
C557   C     0.45269   0.82640   0.38805   0.00000  Uiso   1.00
C558   C     0.49989   0.75353   0.25050   0.00000  Uiso   1.00
C559   C     0.54778   0.82340   0.11269   0.00000  Uiso   1.00
C560   C     0.38925   0.81848   0.46306   0.00000  Uiso   1.00
C561   C     0.60394   0.78808   0.04533   0.00000  Uiso   1.00
C562   C     0.40374   0.82548   0.41536   0.00000  Uiso   1.00
C563   C     0.59104   0.80211   0.09121   0.00000  Uiso   1.00
C564   C     0.48672   0.81953   0.40845   0.00000  Uiso   1.00
C565   C     0.51685   0.82912   0.08899   0.00000  Uiso   1.00
C566   C     0.47294   0.81148   0.45568   0.00000  Uiso   1.00
C567   C     0.52763   0.81213   0.04476   0.00000  Uiso   1.00
C568   C     0.42348   0.81172   0.48364   0.00000  Uiso   1.00
C569   C     0.44396   0.81009   0.05203   0.00000  Uiso   1.00
C570   C     0.57350   0.79503   0.02084   0.00000  Uiso   1.00
C571   C     0.50739   0.80493   0.47626   0.00000  Uiso   1.00
C572   C     0.49295   0.81069   0.02451   0.00000  Uiso   1.00
C573   C     0.36674   0.75057   0.07141   0.00000  Uiso   1.00
C574   C     0.63046   0.72641   0.43970   0.00000  Uiso   1.00
C575   C     0.51063   0.71401   0.34903   0.00000  Uiso   1.00
C576   C     0.40614   0.96448   0.21337   0.00000  Uiso   1.00
C577   C     0.55495   0.79173   0.45097   0.00000  Uiso   1.00
C578   C     0.40992   0.80542   0.03161   0.00000  Uiso   1.00
C579   C     0.58688   0.78382   0.47379   0.00000  Uiso   1.00
C580   C     0.52228   0.97803   0.27582   0.00000  Uiso   1.00
C581   C     0.47707   0.68886   0.22501   0.00000  Uiso   1.00
C582   C     0.52140   0.68769   0.27776   0.00000  Uiso   1.00
H583   H     0.48366   0.84616   0.10579   0.00000  Uiso   1.00
H584   H     0.46174   0.70633   0.20368   0.00000  Uiso   1.00
H585   H     0.64868   0.86689   0.18684   0.00000  Uiso   1.00
H586   H     0.35139   0.79956   0.31303   0.00000  Uiso   1.00
H587   H     0.39850   0.86662   0.18666   0.00000  Uiso   1.00
H588   H     0.60169   0.79929   0.31289   0.00000  Uiso   1.00
H589   H     0.38384   0.74796   0.09779   0.00000  Uiso   1.00
H590   H     0.38587   0.73036   0.04076   0.00000  Uiso   1.00
H591   H     0.66332   0.73789   0.08757   0.00000  Uiso   1.00
H592   H     0.61141   0.72107   0.41526   0.00000  Uiso   1.00
H593   H     0.61320   0.70830   0.47229   0.00000  Uiso   1.00
H594   H     0.52434   0.82210   0.38745   0.00000  Uiso   1.00
H595   H     0.33426   0.71433   0.42282   0.00000  Uiso   1.00
H596   H     0.47941   0.73324   0.34936   0.00000  Uiso   1.00
H597   H     0.52850   0.73108   0.36950   0.00000  Uiso   1.00
H598   H     0.49821   0.68349   0.36646   0.00000  Uiso   1.00
H599   H     0.38904   0.95526   0.25052   0.00000  Uiso   1.00
H600   H     0.39068   0.94458   0.19298   0.00000  Uiso   1.00
H601   H     0.39696   0.99739   0.20849   0.00000  Uiso   1.00
H602   H     0.61340   0.79518   0.11093   0.00000  Uiso   1.00
H603   H     0.37687   0.83077   0.40009   0.00000  Uiso   1.00
H604   H     0.35158   0.82035   0.48388   0.00000  Uiso   1.00
H605   H     0.63642   0.77021   0.02936   0.00000  Uiso   1.00
H606   H     0.43178   0.80818   0.08952   0.00000  Uiso   1.00
H607   H     0.56697   0.78445   0.41433   0.00000  Uiso   1.00
H608   H     0.53989   0.96081   0.29537   0.00000  Uiso   1.00
N609   N     0.38093   0.83334   0.25001   0.00000  Uiso   1.00
N610   N     0.61907   0.83332   0.24999   0.00000  Uiso   1.00
O611   O     0.46179   0.89442   0.25000   0.00000  Uiso   1.00
O612   O     0.63275   0.76933   0.44905   0.00000  Uiso   1.00
O613   O     0.54402   0.70827   0.30347   0.00000  Uiso   1.00
O614   O     0.45627   0.95797   0.19670   0.00000  Uiso   1.00
O615   O     0.53821   0.77225   0.24999   0.00000  Uiso   1.00
O616   O     0.53823   0.89441   0.25000   0.00000  Uiso   1.00
O617   O     0.46177   0.77226   0.25000   0.00000  Uiso   1.00
O618   O     0.43994   0.83334   0.31612   0.00000  Uiso   1.00
O619   O     0.56006   0.83333   0.18387   0.00000  Uiso   1.00
O620   O     0.51639   0.83333   0.31612   0.00000  Uiso   1.00
O621   O     0.48361   0.83334   0.18388   0.00000  Uiso   1.00
O622   O     0.36431   0.79279   0.05836   0.00000  Uiso   1.00
Zn623  Zn    0.44896   0.83334   0.25000   0.00000  Uiso   1.00
Zn624  Zn    0.55104   0.83333   0.25000   0.00000  Uiso   1.00
C625   C     0.83341   0.91319   0.24950   0.00000  Uiso   1.00
C626   C     0.80895   0.97909   0.22499   0.00000  Uiso   1.00
C627   C     0.83292   0.70939   0.25125   0.00000  Uiso   1.00
C628   C     0.83291   0.95744   0.24967   0.00000  Uiso   1.00
C629   C     0.98923   0.85191   0.21500   0.00000  Uiso   1.00
C630   C     0.67747   0.81463   0.28493   0.00000  Uiso   1.00
C631   C     0.70356   0.85183   0.21496   0.00000  Uiso   1.00
C632   C     0.96317   0.81454   0.28487   0.00000  Uiso   1.00
C633   C     0.80344   0.83243   0.33780   0.00000  Uiso   1.00
C634   C     0.86328   0.83226   0.16230   0.00000  Uiso   1.00
C635   C     0.78603   0.82640   0.38805   0.00000  Uiso   1.00
C636   C     0.83322   0.75353   0.25050   0.00000  Uiso   1.00
C637   C     0.88111   0.82340   0.11269   0.00000  Uiso   1.00
C638   C     0.72258   0.81848   0.46306   0.00000  Uiso   1.00
C639   C     0.93728   0.78808   0.04533   0.00000  Uiso   1.00
C640   C     0.73708   0.82548   0.41536   0.00000  Uiso   1.00
C641   C     0.92437   0.80211   0.09121   0.00000  Uiso   1.00
C642   C     0.82005   0.81953   0.40845   0.00000  Uiso   1.00
C643   C     0.85018   0.82912   0.08899   0.00000  Uiso   1.00
C644   C     0.80627   0.81148   0.45568   0.00000  Uiso   1.00
C645   C     0.86096   0.81213   0.04476   0.00000  Uiso   1.00
C646   C     0.75682   0.81172   0.48364   0.00000  Uiso   1.00
C647   C     0.77730   0.81009   0.05203   0.00000  Uiso   1.00
C648   C     0.90683   0.79503   0.02084   0.00000  Uiso   1.00
C649   C     0.84073   0.80493   0.47626   0.00000  Uiso   1.00
C650   C     0.82628   0.81069   0.02451   0.00000  Uiso   1.00
C651   C     0.70007   0.75057   0.07141   0.00000  Uiso   1.00
C652   C     0.96379   0.72641   0.43970   0.00000  Uiso   1.00
C653   C     0.84396   0.71401   0.34903   0.00000  Uiso   1.00
C654   C     0.73948   0.96448   0.21337   0.00000  Uiso   1.00
C655   C     0.88828   0.79173   0.45097   0.00000  Uiso   1.00
C656   C     0.74325   0.80542   0.03161   0.00000  Uiso   1.00
C657   C     0.92022   0.78382   0.47379   0.00000  Uiso   1.00
C658   C     0.85562   0.97803   0.27582   0.00000  Uiso   1.00
C659   C     0.81040   0.68886   0.22501   0.00000  Uiso   1.00
C660   C     0.85473   0.68769   0.27776   0.00000  Uiso   1.00
H661   H     0.81699   0.84616   0.10579   0.00000  Uiso   1.00
H662   H     0.79507   0.70633   0.20368   0.00000  Uiso   1.00
H663   H     0.98201   0.86689   0.18684   0.00000  Uiso   1.00
H664   H     0.68472   0.79956   0.31303   0.00000  Uiso   1.00
H665   H     0.73183   0.86662   0.18666   0.00000  Uiso   1.00
H666   H     0.93502   0.79929   0.31289   0.00000  Uiso   1.00
H667   H     0.71717   0.74796   0.09779   0.00000  Uiso   1.00
H668   H     0.71921   0.73036   0.04076   0.00000  Uiso   1.00
H669   H     0.99665   0.73789   0.08757   0.00000  Uiso   1.00
H670   H     0.94474   0.72107   0.41526   0.00000  Uiso   1.00
H671   H     0.94653   0.70830   0.47229   0.00000  Uiso   1.00
H672   H     0.85767   0.82210   0.38745   0.00000  Uiso   1.00
H673   H     0.66759   0.71433   0.42282   0.00000  Uiso   1.00
H674   H     0.81274   0.73324   0.34936   0.00000  Uiso   1.00
H675   H     0.86183   0.73108   0.36950   0.00000  Uiso   1.00
H676   H     0.83154   0.68349   0.36646   0.00000  Uiso   1.00
H677   H     0.72238   0.95526   0.25052   0.00000  Uiso   1.00
H678   H     0.72401   0.94458   0.19298   0.00000  Uiso   1.00
H679   H     0.73029   0.99739   0.20849   0.00000  Uiso   1.00
H680   H     0.94673   0.79518   0.11093   0.00000  Uiso   1.00
H681   H     0.71020   0.83077   0.40009   0.00000  Uiso   1.00
H682   H     0.68491   0.82035   0.48388   0.00000  Uiso   1.00
H683   H     0.96976   0.77021   0.02936   0.00000  Uiso   1.00
H684   H     0.76511   0.80818   0.08952   0.00000  Uiso   1.00
H685   H     0.90031   0.78445   0.41433   0.00000  Uiso   1.00
H686   H     0.87323   0.96081   0.29537   0.00000  Uiso   1.00
N687   N     0.71426   0.83334   0.25001   0.00000  Uiso   1.00
N688   N     0.95241   0.83332   0.24999   0.00000  Uiso   1.00
O689   O     0.79512   0.89442   0.25000   0.00000  Uiso   1.00
O690   O     0.96609   0.76933   0.44905   0.00000  Uiso   1.00
O691   O     0.87735   0.70827   0.30347   0.00000  Uiso   1.00
O692   O     0.78961   0.95797   0.19670   0.00000  Uiso   1.00
O693   O     0.87154   0.77225   0.24999   0.00000  Uiso   1.00
O694   O     0.87157   0.89441   0.25000   0.00000  Uiso   1.00
O695   O     0.79510   0.77226   0.25000   0.00000  Uiso   1.00
O696   O     0.77328   0.83334   0.31612   0.00000  Uiso   1.00
O697   O     0.89339   0.83333   0.18387   0.00000  Uiso   1.00
O698   O     0.84972   0.83333   0.31612   0.00000  Uiso   1.00
O699   O     0.81695   0.83334   0.18388   0.00000  Uiso   1.00
O700   O     0.69764   0.79279   0.05836   0.00000  Uiso   1.00
Zn701  Zn    0.78229   0.83334   0.25000   0.00000  Uiso   1.00
Zn702  Zn    0.88438   0.83333   0.25000   0.00000  Uiso   1.00
C703   C     0.16674   0.24652   0.74950   0.00000  Uiso   1.00
C704   C     0.14229   0.31242   0.72499   0.00000  Uiso   1.00
C705   C     0.16626   0.04272   0.75125   0.00000  Uiso   1.00
C706   C     0.16624   0.29077   0.74967   0.00000  Uiso   1.00
C707   C     0.32257   0.18525   0.71500   0.00000  Uiso   1.00
C708   C     0.01080   0.14797   0.78493   0.00000  Uiso   1.00
C709   C     0.03689   0.18516   0.71496   0.00000  Uiso   1.00
C710   C     0.29650   0.14787   0.78487   0.00000  Uiso   1.00
C711   C     0.13677   0.16576   0.83780   0.00000  Uiso   1.00
C712   C     0.19662   0.16560   0.66230   0.00000  Uiso   1.00
C713   C     0.11936   0.15973   0.88805   0.00000  Uiso   1.00
C714   C     0.16655   0.08687   0.75050   0.00000  Uiso   1.00
C715   C     0.21445   0.15674   0.61269   0.00000  Uiso   1.00
C716   C     0.05592   0.15181   0.96306   0.00000  Uiso   1.00
C717   C     0.27061   0.12142   0.54533   0.00000  Uiso   1.00
C718   C     0.07041   0.15881   0.91536   0.00000  Uiso   1.00
C719   C     0.25770   0.13544   0.59121   0.00000  Uiso   1.00
C720   C     0.15339   0.15286   0.90845   0.00000  Uiso   1.00
C721   C     0.18352   0.16246   0.58899   0.00000  Uiso   1.00
C722   C     0.13961   0.14481   0.95568   0.00000  Uiso   1.00
C723   C     0.19429   0.14546   0.54476   0.00000  Uiso   1.00
C724   C     0.09015   0.14505   0.98364   0.00000  Uiso   1.00
C725   C     0.11063   0.14343   0.55203   0.00000  Uiso   1.00
C726   C     0.24017   0.12836   0.52084   0.00000  Uiso   1.00
C727   C     0.17406   0.13826   0.97626   0.00000  Uiso   1.00
C728   C     0.15961   0.14402   0.52451   0.00000  Uiso   1.00
C729   C     0.03341   0.08390   0.57141   0.00000  Uiso   1.00
C730   C     0.29712   0.05974   0.93970   0.00000  Uiso   1.00
C731   C     0.17729   0.04734   0.84903   0.00000  Uiso   1.00
C732   C     0.07281   0.29781   0.71337   0.00000  Uiso   1.00
C733   C     0.22162   0.12507   0.95097   0.00000  Uiso   1.00
C734   C     0.07659   0.13875   0.53161   0.00000  Uiso   1.00
C735   C     0.25355   0.11715   0.97379   0.00000  Uiso   1.00
C736   C     0.18895   0.31137   0.77582   0.00000  Uiso   1.00
C737   C     0.14374   0.02219   0.72501   0.00000  Uiso   1.00
C738   C     0.18807   0.02102   0.77776   0.00000  Uiso   1.00
H739   H     0.15032   0.17950   0.60579   0.00000  Uiso   1.00
H740   H     0.12841   0.03966   0.70368   0.00000  Uiso   1.00
H741   H     0.31534   0.20023   0.68684   0.00000  Uiso   1.00
H742   H     0.01805   0.13290   0.81303   0.00000  Uiso   1.00
H743   H     0.06516   0.19995   0.68666   0.00000  Uiso   1.00
H744   H     0.26835   0.13262   0.81289   0.00000  Uiso   1.00
H745   H     0.05050   0.08129   0.59779   0.00000  Uiso   1.00
H746   H     0.05254   0.06369   0.54076   0.00000  Uiso   1.00
H747   H     0.32998   0.07122   0.58757   0.00000  Uiso   1.00
H748   H     0.27807   0.05441   0.91526   0.00000  Uiso   1.00
H749   H     0.27987   0.04164   0.97229   0.00000  Uiso   1.00
H750   H     0.19101   0.15543   0.88745   0.00000  Uiso   1.00
H751   H     0.00093   0.04766   0.92282   0.00000  Uiso   1.00
H752   H     0.14608   0.06658   0.84936   0.00000  Uiso   1.00
H753   H     0.19516   0.06441   0.86950   0.00000  Uiso   1.00
H754   H     0.16488   0.01683   0.86646   0.00000  Uiso   1.00
H755   H     0.05571   0.28860   0.75052   0.00000  Uiso   1.00
H756   H     0.05734   0.27791   0.69298   0.00000  Uiso   1.00
H757   H     0.06363   0.33072   0.70849   0.00000  Uiso   1.00
H758   H     0.28006   0.12851   0.61093   0.00000  Uiso   1.00
H759   H     0.04353   0.16411   0.90009   0.00000  Uiso   1.00
H760   H     0.01824   0.15368   0.98388   0.00000  Uiso   1.00
H761   H     0.30309   0.10355   0.52936   0.00000  Uiso   1.00
H762   H     0.09845   0.14152   0.58952   0.00000  Uiso   1.00
H763   H     0.23364   0.11779   0.91433   0.00000  Uiso   1.00
H764   H     0.20656   0.29414   0.79537   0.00000  Uiso   1.00
N765   N     0.04759   0.16668   0.75001   0.00000  Uiso   1.00
N766   N     0.28574   0.16666   0.74999   0.00000  Uiso   1.00
O767   O     0.12846   0.22775   0.75000   0.00000  Uiso   1.00
O768   O     0.29942   0.10266   0.94905   0.00000  Uiso   1.00
O769   O     0.21068   0.04160   0.80347   0.00000  Uiso   1.00
O770   O     0.12294   0.29131   0.69670   0.00000  Uiso   1.00
O771   O     0.20488   0.10558   0.74999   0.00000  Uiso   1.00
O772   O     0.20490   0.22774   0.75000   0.00000  Uiso   1.00
O773   O     0.12843   0.10559   0.75000   0.00000  Uiso   1.00
O774   O     0.10661   0.16667   0.81612   0.00000  Uiso   1.00
O775   O     0.22672   0.16666   0.68387   0.00000  Uiso   1.00
O776   O     0.18305   0.16666   0.81612   0.00000  Uiso   1.00
O777   O     0.15028   0.16667   0.68388   0.00000  Uiso   1.00
O778   O     0.03098   0.12612   0.55836   0.00000  Uiso   1.00
Zn779  Zn    0.11562   0.16667   0.75000   0.00000  Uiso   1.00
Zn780  Zn    0.21771   0.16666   0.75000   0.00000  Uiso   1.00
C781   C     0.50007   0.24652   0.74950   0.00000  Uiso   1.00
C782   C     0.47562   0.31242   0.72499   0.00000  Uiso   1.00
C783   C     0.49959   0.04272   0.75125   0.00000  Uiso   1.00
C784   C     0.49957   0.29077   0.74967   0.00000  Uiso   1.00
C785   C     0.65590   0.18525   0.71500   0.00000  Uiso   1.00
C786   C     0.34413   0.14797   0.78493   0.00000  Uiso   1.00
C787   C     0.37023   0.18516   0.71496   0.00000  Uiso   1.00
C788   C     0.62984   0.14787   0.78487   0.00000  Uiso   1.00
C789   C     0.47011   0.16576   0.83780   0.00000  Uiso   1.00
C790   C     0.52995   0.16560   0.66230   0.00000  Uiso   1.00
C791   C     0.45269   0.15973   0.88805   0.00000  Uiso   1.00
C792   C     0.49989   0.08687   0.75050   0.00000  Uiso   1.00
C793   C     0.54778   0.15674   0.61269   0.00000  Uiso   1.00
C794   C     0.38925   0.15181   0.96306   0.00000  Uiso   1.00
C795   C     0.60394   0.12142   0.54533   0.00000  Uiso   1.00
C796   C     0.40374   0.15881   0.91536   0.00000  Uiso   1.00
C797   C     0.59104   0.13544   0.59121   0.00000  Uiso   1.00
C798   C     0.48672   0.15286   0.90845   0.00000  Uiso   1.00
C799   C     0.51685   0.16246   0.58899   0.00000  Uiso   1.00
C800   C     0.47294   0.14481   0.95568   0.00000  Uiso   1.00
C801   C     0.52763   0.14546   0.54476   0.00000  Uiso   1.00
C802   C     0.42348   0.14505   0.98364   0.00000  Uiso   1.00
C803   C     0.44396   0.14343   0.55203   0.00000  Uiso   1.00
C804   C     0.57350   0.12836   0.52084   0.00000  Uiso   1.00
C805   C     0.50739   0.13826   0.97626   0.00000  Uiso   1.00
C806   C     0.49295   0.14402   0.52451   0.00000  Uiso   1.00
C807   C     0.36674   0.08390   0.57141   0.00000  Uiso   1.00
C808   C     0.63046   0.05974   0.93970   0.00000  Uiso   1.00
C809   C     0.51063   0.04734   0.84903   0.00000  Uiso   1.00
C810   C     0.40614   0.29781   0.71337   0.00000  Uiso   1.00
C811   C     0.55495   0.12507   0.95097   0.00000  Uiso   1.00
C812   C     0.40992   0.13875   0.53161   0.00000  Uiso   1.00
C813   C     0.58688   0.11715   0.97379   0.00000  Uiso   1.00
C814   C     0.52228   0.31137   0.77582   0.00000  Uiso   1.00
C815   C     0.47707   0.02219   0.72501   0.00000  Uiso   1.00
C816   C     0.52140   0.02102   0.77776   0.00000  Uiso   1.00
H817   H     0.48366   0.17950   0.60579   0.00000  Uiso   1.00
H818   H     0.46174   0.03966   0.70368   0.00000  Uiso   1.00
H819   H     0.64868   0.20023   0.68684   0.00000  Uiso   1.00
H820   H     0.35139   0.13290   0.81303   0.00000  Uiso   1.00
H821   H     0.39850   0.19995   0.68666   0.00000  Uiso   1.00
H822   H     0.60169   0.13262   0.81289   0.00000  Uiso   1.00
H823   H     0.38384   0.08129   0.59779   0.00000  Uiso   1.00
H824   H     0.38587   0.06369   0.54076   0.00000  Uiso   1.00
H825   H     0.66332   0.07122   0.58757   0.00000  Uiso   1.00
H826   H     0.61141   0.05441   0.91526   0.00000  Uiso   1.00
H827   H     0.61320   0.04164   0.97229   0.00000  Uiso   1.00
H828   H     0.52434   0.15543   0.88745   0.00000  Uiso   1.00
H829   H     0.33426   0.04766   0.92282   0.00000  Uiso   1.00
H830   H     0.47941   0.06658   0.84936   0.00000  Uiso   1.00
H831   H     0.52850   0.06441   0.86950   0.00000  Uiso   1.00
H832   H     0.49821   0.01683   0.86646   0.00000  Uiso   1.00
H833   H     0.38904   0.28860   0.75052   0.00000  Uiso   1.00
H834   H     0.39068   0.27791   0.69298   0.00000  Uiso   1.00
H835   H     0.39696   0.33072   0.70849   0.00000  Uiso   1.00
H836   H     0.61340   0.12851   0.61093   0.00000  Uiso   1.00
H837   H     0.37687   0.16411   0.90009   0.00000  Uiso   1.00
H838   H     0.35158   0.15368   0.98388   0.00000  Uiso   1.00
H839   H     0.63642   0.10355   0.52936   0.00000  Uiso   1.00
H840   H     0.43178   0.14152   0.58952   0.00000  Uiso   1.00
H841   H     0.56697   0.11779   0.91433   0.00000  Uiso   1.00
H842   H     0.53989   0.29414   0.79537   0.00000  Uiso   1.00
N843   N     0.38093   0.16668   0.75001   0.00000  Uiso   1.00
N844   N     0.61907   0.16666   0.74999   0.00000  Uiso   1.00
O845   O     0.46179   0.22775   0.75000   0.00000  Uiso   1.00
O846   O     0.63275   0.10266   0.94905   0.00000  Uiso   1.00
O847   O     0.54402   0.04160   0.80347   0.00000  Uiso   1.00
O848   O     0.45627   0.29131   0.69670   0.00000  Uiso   1.00
O849   O     0.53821   0.10558   0.74999   0.00000  Uiso   1.00
O850   O     0.53823   0.22774   0.75000   0.00000  Uiso   1.00
O851   O     0.46177   0.10559   0.75000   0.00000  Uiso   1.00
O852   O     0.43994   0.16667   0.81612   0.00000  Uiso   1.00
O853   O     0.56006   0.16666   0.68387   0.00000  Uiso   1.00
O854   O     0.51639   0.16666   0.81612   0.00000  Uiso   1.00
O855   O     0.48361   0.16667   0.68388   0.00000  Uiso   1.00
O856   O     0.36431   0.12612   0.55836   0.00000  Uiso   1.00
Zn857  Zn    0.44896   0.16667   0.75000   0.00000  Uiso   1.00
Zn858  Zn    0.55104   0.16666   0.75000   0.00000  Uiso   1.00
C859   C     0.83341   0.24652   0.74950   0.00000  Uiso   1.00
C860   C     0.80895   0.31242   0.72499   0.00000  Uiso   1.00
C861   C     0.83292   0.04272   0.75125   0.00000  Uiso   1.00
C862   C     0.83291   0.29077   0.74967   0.00000  Uiso   1.00
C863   C     0.98923   0.18525   0.71500   0.00000  Uiso   1.00
C864   C     0.67747   0.14797   0.78493   0.00000  Uiso   1.00
C865   C     0.70356   0.18516   0.71496   0.00000  Uiso   1.00
C866   C     0.96317   0.14787   0.78487   0.00000  Uiso   1.00
C867   C     0.80344   0.16576   0.83780   0.00000  Uiso   1.00
C868   C     0.86328   0.16560   0.66230   0.00000  Uiso   1.00
C869   C     0.78603   0.15973   0.88805   0.00000  Uiso   1.00
C870   C     0.83322   0.08687   0.75050   0.00000  Uiso   1.00
C871   C     0.88111   0.15674   0.61269   0.00000  Uiso   1.00
C872   C     0.72258   0.15181   0.96306   0.00000  Uiso   1.00
C873   C     0.93728   0.12142   0.54533   0.00000  Uiso   1.00
C874   C     0.73708   0.15881   0.91536   0.00000  Uiso   1.00
C875   C     0.92437   0.13544   0.59121   0.00000  Uiso   1.00
C876   C     0.82005   0.15286   0.90845   0.00000  Uiso   1.00
C877   C     0.85018   0.16246   0.58899   0.00000  Uiso   1.00
C878   C     0.80627   0.14481   0.95568   0.00000  Uiso   1.00
C879   C     0.86096   0.14546   0.54476   0.00000  Uiso   1.00
C880   C     0.75682   0.14505   0.98364   0.00000  Uiso   1.00
C881   C     0.77730   0.14343   0.55203   0.00000  Uiso   1.00
C882   C     0.90683   0.12836   0.52084   0.00000  Uiso   1.00
C883   C     0.84073   0.13826   0.97626   0.00000  Uiso   1.00
C884   C     0.82628   0.14402   0.52451   0.00000  Uiso   1.00
C885   C     0.70007   0.08390   0.57141   0.00000  Uiso   1.00
C886   C     0.96379   0.05974   0.93970   0.00000  Uiso   1.00
C887   C     0.84396   0.04734   0.84903   0.00000  Uiso   1.00
C888   C     0.73948   0.29781   0.71337   0.00000  Uiso   1.00
C889   C     0.88828   0.12507   0.95097   0.00000  Uiso   1.00
C890   C     0.74325   0.13875   0.53161   0.00000  Uiso   1.00
C891   C     0.92022   0.11715   0.97379   0.00000  Uiso   1.00
C892   C     0.85562   0.31137   0.77582   0.00000  Uiso   1.00
C893   C     0.81040   0.02219   0.72501   0.00000  Uiso   1.00
C894   C     0.85473   0.02102   0.77776   0.00000  Uiso   1.00
H895   H     0.81699   0.17950   0.60579   0.00000  Uiso   1.00
H896   H     0.79507   0.03966   0.70368   0.00000  Uiso   1.00
H897   H     0.98201   0.20023   0.68684   0.00000  Uiso   1.00
H898   H     0.68472   0.13290   0.81303   0.00000  Uiso   1.00
H899   H     0.73183   0.19995   0.68666   0.00000  Uiso   1.00
H900   H     0.93502   0.13262   0.81289   0.00000  Uiso   1.00
H901   H     0.71717   0.08129   0.59779   0.00000  Uiso   1.00
H902   H     0.71921   0.06369   0.54076   0.00000  Uiso   1.00
H903   H     0.99665   0.07122   0.58757   0.00000  Uiso   1.00
H904   H     0.94474   0.05441   0.91526   0.00000  Uiso   1.00
H905   H     0.94653   0.04164   0.97229   0.00000  Uiso   1.00
H906   H     0.85767   0.15543   0.88745   0.00000  Uiso   1.00
H907   H     0.66759   0.04766   0.92282   0.00000  Uiso   1.00
H908   H     0.81274   0.06658   0.84936   0.00000  Uiso   1.00
H909   H     0.86183   0.06441   0.86950   0.00000  Uiso   1.00
H910   H     0.83154   0.01683   0.86646   0.00000  Uiso   1.00
H911   H     0.72238   0.28860   0.75052   0.00000  Uiso   1.00
H912   H     0.72401   0.27791   0.69298   0.00000  Uiso   1.00
H913   H     0.73029   0.33072   0.70849   0.00000  Uiso   1.00
H914   H     0.94673   0.12851   0.61093   0.00000  Uiso   1.00
H915   H     0.71020   0.16411   0.90009   0.00000  Uiso   1.00
H916   H     0.68491   0.15368   0.98388   0.00000  Uiso   1.00
H917   H     0.96976   0.10355   0.52936   0.00000  Uiso   1.00
H918   H     0.76511   0.14152   0.58952   0.00000  Uiso   1.00
H919   H     0.90031   0.11779   0.91433   0.00000  Uiso   1.00
H920   H     0.87323   0.29414   0.79537   0.00000  Uiso   1.00
N921   N     0.71426   0.16668   0.75001   0.00000  Uiso   1.00
N922   N     0.95241   0.16666   0.74999   0.00000  Uiso   1.00
O923   O     0.79512   0.22775   0.75000   0.00000  Uiso   1.00
O924   O     0.96609   0.10266   0.94905   0.00000  Uiso   1.00
O925   O     0.87735   0.04160   0.80347   0.00000  Uiso   1.00
O926   O     0.78961   0.29131   0.69670   0.00000  Uiso   1.00
O927   O     0.87154   0.10558   0.74999   0.00000  Uiso   1.00
O928   O     0.87157   0.22774   0.75000   0.00000  Uiso   1.00
O929   O     0.79510   0.10559   0.75000   0.00000  Uiso   1.00
O930   O     0.77328   0.16667   0.81612   0.00000  Uiso   1.00
O931   O     0.89339   0.16666   0.68387   0.00000  Uiso   1.00
O932   O     0.84972   0.16666   0.81612   0.00000  Uiso   1.00
O933   O     0.81695   0.16667   0.68388   0.00000  Uiso   1.00
O934   O     0.69764   0.12612   0.55836   0.00000  Uiso   1.00
Zn935  Zn    0.78229   0.16667   0.75000   0.00000  Uiso   1.00
Zn936  Zn    0.88438   0.16666   0.75000   0.00000  Uiso   1.00
C937   C     0.16674   0.57986   0.74950   0.00000  Uiso   1.00
C938   C     0.14229   0.64575   0.72499   0.00000  Uiso   1.00
C939   C     0.16626   0.37606   0.75125   0.00000  Uiso   1.00
C940   C     0.16624   0.62410   0.74967   0.00000  Uiso   1.00
C941   C     0.32257   0.51858   0.71500   0.00000  Uiso   1.00
C942   C     0.01080   0.48130   0.78493   0.00000  Uiso   1.00
C943   C     0.03689   0.51850   0.71496   0.00000  Uiso   1.00
C944   C     0.29650   0.48121   0.78487   0.00000  Uiso   1.00
C945   C     0.13677   0.49910   0.83780   0.00000  Uiso   1.00
C946   C     0.19662   0.49893   0.66230   0.00000  Uiso   1.00
C947   C     0.11936   0.49307   0.88805   0.00000  Uiso   1.00
C948   C     0.16655   0.42020   0.75050   0.00000  Uiso   1.00
C949   C     0.21445   0.49007   0.61269   0.00000  Uiso   1.00
C950   C     0.05592   0.48514   0.96306   0.00000  Uiso   1.00
C951   C     0.27061   0.45475   0.54533   0.00000  Uiso   1.00
C952   C     0.07041   0.49214   0.91536   0.00000  Uiso   1.00
C953   C     0.25770   0.46878   0.59121   0.00000  Uiso   1.00
C954   C     0.15339   0.48619   0.90845   0.00000  Uiso   1.00
C955   C     0.18352   0.49579   0.58899   0.00000  Uiso   1.00
C956   C     0.13961   0.47814   0.95568   0.00000  Uiso   1.00
C957   C     0.19429   0.47879   0.54476   0.00000  Uiso   1.00
C958   C     0.09015   0.47838   0.98364   0.00000  Uiso   1.00
C959   C     0.11063   0.47676   0.55203   0.00000  Uiso   1.00
C960   C     0.24017   0.46170   0.52084   0.00000  Uiso   1.00
C961   C     0.17406   0.47159   0.97626   0.00000  Uiso   1.00
C962   C     0.15961   0.47735   0.52451   0.00000  Uiso   1.00
C963   C     0.03341   0.41724   0.57141   0.00000  Uiso   1.00
C964   C     0.29712   0.39308   0.93970   0.00000  Uiso   1.00
C965   C     0.17729   0.38068   0.84903   0.00000  Uiso   1.00
C966   C     0.07281   0.63115   0.71337   0.00000  Uiso   1.00
C967   C     0.22162   0.45840   0.95097   0.00000  Uiso   1.00
C968   C     0.07659   0.47208   0.53161   0.00000  Uiso   1.00
C969   C     0.25355   0.45048   0.97379   0.00000  Uiso   1.00
C970   C     0.18895   0.64470   0.77582   0.00000  Uiso   1.00
C971   C     0.14374   0.35553   0.72501   0.00000  Uiso   1.00
C972   C     0.18807   0.35436   0.77776   0.00000  Uiso   1.00
H973   H     0.15032   0.51283   0.60579   0.00000  Uiso   1.00
H974   H     0.12841   0.37300   0.70368   0.00000  Uiso   1.00
H975   H     0.31534   0.53356   0.68684   0.00000  Uiso   1.00
H976   H     0.01805   0.46623   0.81303   0.00000  Uiso   1.00
H977   H     0.06516   0.53329   0.68666   0.00000  Uiso   1.00
H978   H     0.26835   0.46596   0.81289   0.00000  Uiso   1.00
H979   H     0.05050   0.41462   0.59779   0.00000  Uiso   1.00
H980   H     0.05254   0.39703   0.54076   0.00000  Uiso   1.00
H981   H     0.32998   0.40455   0.58757   0.00000  Uiso   1.00
H982   H     0.27807   0.38774   0.91526   0.00000  Uiso   1.00
H983   H     0.27987   0.37497   0.97229   0.00000  Uiso   1.00
H984   H     0.19101   0.48877   0.88745   0.00000  Uiso   1.00
H985   H     0.00093   0.38099   0.92282   0.00000  Uiso   1.00
H986   H     0.14608   0.39991   0.84936   0.00000  Uiso   1.00
H987   H     0.19516   0.39775   0.86950   0.00000  Uiso   1.00
H988   H     0.16488   0.35016   0.86646   0.00000  Uiso   1.00
H989   H     0.05571   0.62193   0.75052   0.00000  Uiso   1.00
H990   H     0.05734   0.61124   0.69298   0.00000  Uiso   1.00
H991   H     0.06363   0.66406   0.70849   0.00000  Uiso   1.00
H992   H     0.28006   0.46184   0.61093   0.00000  Uiso   1.00
H993   H     0.04353   0.49744   0.90009   0.00000  Uiso   1.00
H994   H     0.01824   0.48701   0.98388   0.00000  Uiso   1.00
H995   H     0.30309   0.43688   0.52936   0.00000  Uiso   1.00
H996   H     0.09845   0.47485   0.58952   0.00000  Uiso   1.00
H997   H     0.23364   0.45112   0.91433   0.00000  Uiso   1.00
H998   H     0.20656   0.62748   0.79537   0.00000  Uiso   1.00
N999   N     0.04759   0.50001   0.75001   0.00000  Uiso   1.00
N1000  N     0.28574   0.49999   0.74999   0.00000  Uiso   1.00
O1001  O     0.12846   0.56108   0.75000   0.00000  Uiso   1.00
O1002  O     0.29942   0.43599   0.94905   0.00000  Uiso   1.00
O1003  O     0.21068   0.37493   0.80347   0.00000  Uiso   1.00
O1004  O     0.12294   0.62464   0.69670   0.00000  Uiso   1.00
O1005  O     0.20488   0.43892   0.74999   0.00000  Uiso   1.00
O1006  O     0.20490   0.56107   0.75000   0.00000  Uiso   1.00
O1007  O     0.12843   0.43893   0.75000   0.00000  Uiso   1.00
O1008  O     0.10661   0.50001   0.81612   0.00000  Uiso   1.00
O1009  O     0.22672   0.49999   0.68387   0.00000  Uiso   1.00
O1010  O     0.18305   0.50000   0.81612   0.00000  Uiso   1.00
O1011  O     0.15028   0.50000   0.68388   0.00000  Uiso   1.00
O1012  O     0.03098   0.45945   0.55836   0.00000  Uiso   1.00
Zn1013 Zn    0.11562   0.50001   0.75000   0.00000  Uiso   1.00
Zn1014 Zn    0.21771   0.49999   0.75000   0.00000  Uiso   1.00
C1015  C     0.50007   0.57986   0.74950   0.00000  Uiso   1.00
C1016  C     0.47562   0.64575   0.72499   0.00000  Uiso   1.00
C1017  C     0.49959   0.37606   0.75125   0.00000  Uiso   1.00
C1018  C     0.49957   0.62410   0.74967   0.00000  Uiso   1.00
C1019  C     0.65590   0.51858   0.71500   0.00000  Uiso   1.00
C1020  C     0.34413   0.48130   0.78493   0.00000  Uiso   1.00
C1021  C     0.37023   0.51850   0.71496   0.00000  Uiso   1.00
C1022  C     0.62984   0.48121   0.78487   0.00000  Uiso   1.00
C1023  C     0.47011   0.49910   0.83780   0.00000  Uiso   1.00
C1024  C     0.52995   0.49893   0.66230   0.00000  Uiso   1.00
C1025  C     0.45269   0.49307   0.88805   0.00000  Uiso   1.00
C1026  C     0.49989   0.42020   0.75050   0.00000  Uiso   1.00
C1027  C     0.54778   0.49007   0.61269   0.00000  Uiso   1.00
C1028  C     0.38925   0.48514   0.96306   0.00000  Uiso   1.00
C1029  C     0.60394   0.45475   0.54533   0.00000  Uiso   1.00
C1030  C     0.40374   0.49214   0.91536   0.00000  Uiso   1.00
C1031  C     0.59104   0.46878   0.59121   0.00000  Uiso   1.00
C1032  C     0.48672   0.48619   0.90845   0.00000  Uiso   1.00
C1033  C     0.51685   0.49579   0.58899   0.00000  Uiso   1.00
C1034  C     0.47294   0.47814   0.95568   0.00000  Uiso   1.00
C1035  C     0.52763   0.47879   0.54476   0.00000  Uiso   1.00
C1036  C     0.42348   0.47838   0.98364   0.00000  Uiso   1.00
C1037  C     0.44396   0.47676   0.55203   0.00000  Uiso   1.00
C1038  C     0.57350   0.46170   0.52084   0.00000  Uiso   1.00
C1039  C     0.50739   0.47159   0.97626   0.00000  Uiso   1.00
C1040  C     0.49295   0.47735   0.52451   0.00000  Uiso   1.00
C1041  C     0.36674   0.41724   0.57141   0.00000  Uiso   1.00
C1042  C     0.63046   0.39308   0.93970   0.00000  Uiso   1.00
C1043  C     0.51063   0.38068   0.84903   0.00000  Uiso   1.00
C1044  C     0.40614   0.63115   0.71337   0.00000  Uiso   1.00
C1045  C     0.55495   0.45840   0.95097   0.00000  Uiso   1.00
C1046  C     0.40992   0.47208   0.53161   0.00000  Uiso   1.00
C1047  C     0.58688   0.45048   0.97379   0.00000  Uiso   1.00
C1048  C     0.52228   0.64470   0.77582   0.00000  Uiso   1.00
C1049  C     0.47707   0.35553   0.72501   0.00000  Uiso   1.00
C1050  C     0.52140   0.35436   0.77776   0.00000  Uiso   1.00
H1051  H     0.48366   0.51283   0.60579   0.00000  Uiso   1.00
H1052  H     0.46174   0.37300   0.70368   0.00000  Uiso   1.00
H1053  H     0.64868   0.53356   0.68684   0.00000  Uiso   1.00
H1054  H     0.35139   0.46623   0.81303   0.00000  Uiso   1.00
H1055  H     0.39850   0.53329   0.68666   0.00000  Uiso   1.00
H1056  H     0.60169   0.46596   0.81289   0.00000  Uiso   1.00
H1057  H     0.38384   0.41462   0.59779   0.00000  Uiso   1.00
H1058  H     0.38587   0.39703   0.54076   0.00000  Uiso   1.00
H1059  H     0.66332   0.40455   0.58757   0.00000  Uiso   1.00
H1060  H     0.61141   0.38774   0.91526   0.00000  Uiso   1.00
H1061  H     0.61320   0.37497   0.97229   0.00000  Uiso   1.00
H1062  H     0.52434   0.48877   0.88745   0.00000  Uiso   1.00
H1063  H     0.33426   0.38099   0.92282   0.00000  Uiso   1.00
H1064  H     0.47941   0.39991   0.84936   0.00000  Uiso   1.00
H1065  H     0.52850   0.39775   0.86950   0.00000  Uiso   1.00
H1066  H     0.49821   0.35016   0.86646   0.00000  Uiso   1.00
H1067  H     0.38904   0.62193   0.75052   0.00000  Uiso   1.00
H1068  H     0.39068   0.61124   0.69298   0.00000  Uiso   1.00
H1069  H     0.39696   0.66406   0.70849   0.00000  Uiso   1.00
H1070  H     0.61340   0.46184   0.61093   0.00000  Uiso   1.00
H1071  H     0.37687   0.49744   0.90009   0.00000  Uiso   1.00
H1072  H     0.35158   0.48701   0.98388   0.00000  Uiso   1.00
H1073  H     0.63642   0.43688   0.52936   0.00000  Uiso   1.00
H1074  H     0.43178   0.47485   0.58952   0.00000  Uiso   1.00
H1075  H     0.56697   0.45112   0.91433   0.00000  Uiso   1.00
H1076  H     0.53989   0.62748   0.79537   0.00000  Uiso   1.00
N1077  N     0.38093   0.50001   0.75001   0.00000  Uiso   1.00
N1078  N     0.61907   0.49999   0.74999   0.00000  Uiso   1.00
O1079  O     0.46179   0.56108   0.75000   0.00000  Uiso   1.00
O1080  O     0.63275   0.43599   0.94905   0.00000  Uiso   1.00
O1081  O     0.54402   0.37493   0.80347   0.00000  Uiso   1.00
O1082  O     0.45627   0.62464   0.69670   0.00000  Uiso   1.00
O1083  O     0.53821   0.43892   0.74999   0.00000  Uiso   1.00
O1084  O     0.53823   0.56107   0.75000   0.00000  Uiso   1.00
O1085  O     0.46177   0.43893   0.75000   0.00000  Uiso   1.00
O1086  O     0.43994   0.50001   0.81612   0.00000  Uiso   1.00
O1087  O     0.56006   0.49999   0.68387   0.00000  Uiso   1.00
O1088  O     0.51639   0.50000   0.81612   0.00000  Uiso   1.00
O1089  O     0.48361   0.50000   0.68388   0.00000  Uiso   1.00
O1090  O     0.36431   0.45945   0.55836   0.00000  Uiso   1.00
Zn1091 Zn    0.44896   0.50001   0.75000   0.00000  Uiso   1.00
Zn1092 Zn    0.55104   0.49999   0.75000   0.00000  Uiso   1.00
C1093  C     0.83341   0.57986   0.74950   0.00000  Uiso   1.00
C1094  C     0.80895   0.64575   0.72499   0.00000  Uiso   1.00
C1095  C     0.83292   0.37606   0.75125   0.00000  Uiso   1.00
C1096  C     0.83291   0.62410   0.74967   0.00000  Uiso   1.00
C1097  C     0.98923   0.51858   0.71500   0.00000  Uiso   1.00
C1098  C     0.67747   0.48130   0.78493   0.00000  Uiso   1.00
C1099  C     0.70356   0.51850   0.71496   0.00000  Uiso   1.00
C1100  C     0.96317   0.48121   0.78487   0.00000  Uiso   1.00
C1101  C     0.80344   0.49910   0.83780   0.00000  Uiso   1.00
C1102  C     0.86328   0.49893   0.66230   0.00000  Uiso   1.00
C1103  C     0.78603   0.49307   0.88805   0.00000  Uiso   1.00
C1104  C     0.83322   0.42020   0.75050   0.00000  Uiso   1.00
C1105  C     0.88111   0.49007   0.61269   0.00000  Uiso   1.00
C1106  C     0.72258   0.48514   0.96306   0.00000  Uiso   1.00
C1107  C     0.93728   0.45475   0.54533   0.00000  Uiso   1.00
C1108  C     0.73708   0.49214   0.91536   0.00000  Uiso   1.00
C1109  C     0.92437   0.46878   0.59121   0.00000  Uiso   1.00
C1110  C     0.82005   0.48619   0.90845   0.00000  Uiso   1.00
C1111  C     0.85018   0.49579   0.58899   0.00000  Uiso   1.00
C1112  C     0.80627   0.47814   0.95568   0.00000  Uiso   1.00
C1113  C     0.86096   0.47879   0.54476   0.00000  Uiso   1.00
C1114  C     0.75682   0.47838   0.98364   0.00000  Uiso   1.00
C1115  C     0.77730   0.47676   0.55203   0.00000  Uiso   1.00
C1116  C     0.90683   0.46170   0.52084   0.00000  Uiso   1.00
C1117  C     0.84073   0.47159   0.97626   0.00000  Uiso   1.00
C1118  C     0.82628   0.47735   0.52451   0.00000  Uiso   1.00
C1119  C     0.70007   0.41724   0.57141   0.00000  Uiso   1.00
C1120  C     0.96379   0.39308   0.93970   0.00000  Uiso   1.00
C1121  C     0.84396   0.38068   0.84903   0.00000  Uiso   1.00
C1122  C     0.73948   0.63115   0.71337   0.00000  Uiso   1.00
C1123  C     0.88828   0.45840   0.95097   0.00000  Uiso   1.00
C1124  C     0.74325   0.47208   0.53161   0.00000  Uiso   1.00
C1125  C     0.92022   0.45048   0.97379   0.00000  Uiso   1.00
C1126  C     0.85562   0.64470   0.77582   0.00000  Uiso   1.00
C1127  C     0.81040   0.35553   0.72501   0.00000  Uiso   1.00
C1128  C     0.85473   0.35436   0.77776   0.00000  Uiso   1.00
H1129  H     0.81699   0.51283   0.60579   0.00000  Uiso   1.00
H1130  H     0.79507   0.37300   0.70368   0.00000  Uiso   1.00
H1131  H     0.98201   0.53356   0.68684   0.00000  Uiso   1.00
H1132  H     0.68472   0.46623   0.81303   0.00000  Uiso   1.00
H1133  H     0.73183   0.53329   0.68666   0.00000  Uiso   1.00
H1134  H     0.93502   0.46596   0.81289   0.00000  Uiso   1.00
H1135  H     0.71717   0.41462   0.59779   0.00000  Uiso   1.00
H1136  H     0.71921   0.39703   0.54076   0.00000  Uiso   1.00
H1137  H     0.99665   0.40455   0.58757   0.00000  Uiso   1.00
H1138  H     0.94474   0.38774   0.91526   0.00000  Uiso   1.00
H1139  H     0.94653   0.37497   0.97229   0.00000  Uiso   1.00
H1140  H     0.85767   0.48877   0.88745   0.00000  Uiso   1.00
H1141  H     0.66759   0.38099   0.92282   0.00000  Uiso   1.00
H1142  H     0.81274   0.39991   0.84936   0.00000  Uiso   1.00
H1143  H     0.86183   0.39775   0.86950   0.00000  Uiso   1.00
H1144  H     0.83154   0.35016   0.86646   0.00000  Uiso   1.00
H1145  H     0.72238   0.62193   0.75052   0.00000  Uiso   1.00
H1146  H     0.72401   0.61124   0.69298   0.00000  Uiso   1.00
H1147  H     0.73029   0.66406   0.70849   0.00000  Uiso   1.00
H1148  H     0.94673   0.46184   0.61093   0.00000  Uiso   1.00
H1149  H     0.71020   0.49744   0.90009   0.00000  Uiso   1.00
H1150  H     0.68491   0.48701   0.98388   0.00000  Uiso   1.00
H1151  H     0.96976   0.43688   0.52936   0.00000  Uiso   1.00
H1152  H     0.76511   0.47485   0.58952   0.00000  Uiso   1.00
H1153  H     0.90031   0.45112   0.91433   0.00000  Uiso   1.00
H1154  H     0.87323   0.62748   0.79537   0.00000  Uiso   1.00
N1155  N     0.71426   0.50001   0.75001   0.00000  Uiso   1.00
N1156  N     0.95241   0.49999   0.74999   0.00000  Uiso   1.00
O1157  O     0.79512   0.56108   0.75000   0.00000  Uiso   1.00
O1158  O     0.96609   0.43599   0.94905   0.00000  Uiso   1.00
O1159  O     0.87735   0.37493   0.80347   0.00000  Uiso   1.00
O1160  O     0.78961   0.62464   0.69670   0.00000  Uiso   1.00
O1161  O     0.87154   0.43892   0.74999   0.00000  Uiso   1.00
O1162  O     0.87157   0.56107   0.75000   0.00000  Uiso   1.00
O1163  O     0.79510   0.43893   0.75000   0.00000  Uiso   1.00
O1164  O     0.77328   0.50001   0.81612   0.00000  Uiso   1.00
O1165  O     0.89339   0.49999   0.68387   0.00000  Uiso   1.00
O1166  O     0.84972   0.50000   0.81612   0.00000  Uiso   1.00
O1167  O     0.81695   0.50000   0.68388   0.00000  Uiso   1.00
O1168  O     0.69764   0.45945   0.55836   0.00000  Uiso   1.00
Zn1169 Zn    0.78229   0.50001   0.75000   0.00000  Uiso   1.00
Zn1170 Zn    0.88438   0.49999   0.75000   0.00000  Uiso   1.00
C1171  C     0.16674   0.91319   0.74950   0.00000  Uiso   1.00
C1172  C     0.14229   0.97909   0.72499   0.00000  Uiso   1.00
C1173  C     0.16626   0.70939   0.75125   0.00000  Uiso   1.00
C1174  C     0.16624   0.95744   0.74967   0.00000  Uiso   1.00
C1175  C     0.32257   0.85191   0.71500   0.00000  Uiso   1.00
C1176  C     0.01080   0.81463   0.78493   0.00000  Uiso   1.00
C1177  C     0.03689   0.85183   0.71496   0.00000  Uiso   1.00
C1178  C     0.29650   0.81454   0.78487   0.00000  Uiso   1.00
C1179  C     0.13677   0.83243   0.83780   0.00000  Uiso   1.00
C1180  C     0.19662   0.83226   0.66230   0.00000  Uiso   1.00
C1181  C     0.11936   0.82640   0.88805   0.00000  Uiso   1.00
C1182  C     0.16655   0.75353   0.75050   0.00000  Uiso   1.00
C1183  C     0.21445   0.82340   0.61269   0.00000  Uiso   1.00
C1184  C     0.05592   0.81848   0.96306   0.00000  Uiso   1.00
C1185  C     0.27061   0.78808   0.54533   0.00000  Uiso   1.00
C1186  C     0.07041   0.82548   0.91536   0.00000  Uiso   1.00
C1187  C     0.25770   0.80211   0.59121   0.00000  Uiso   1.00
C1188  C     0.15339   0.81953   0.90845   0.00000  Uiso   1.00
C1189  C     0.18352   0.82912   0.58899   0.00000  Uiso   1.00
C1190  C     0.13961   0.81148   0.95568   0.00000  Uiso   1.00
C1191  C     0.19429   0.81213   0.54476   0.00000  Uiso   1.00
C1192  C     0.09015   0.81172   0.98364   0.00000  Uiso   1.00
C1193  C     0.11063   0.81009   0.55203   0.00000  Uiso   1.00
C1194  C     0.24017   0.79503   0.52084   0.00000  Uiso   1.00
C1195  C     0.17406   0.80493   0.97626   0.00000  Uiso   1.00
C1196  C     0.15961   0.81069   0.52451   0.00000  Uiso   1.00
C1197  C     0.03341   0.75057   0.57141   0.00000  Uiso   1.00
C1198  C     0.29712   0.72641   0.93970   0.00000  Uiso   1.00
C1199  C     0.17729   0.71401   0.84903   0.00000  Uiso   1.00
C1200  C     0.07281   0.96448   0.71337   0.00000  Uiso   1.00
C1201  C     0.22162   0.79173   0.95097   0.00000  Uiso   1.00
C1202  C     0.07659   0.80542   0.53161   0.00000  Uiso   1.00
C1203  C     0.25355   0.78382   0.97379   0.00000  Uiso   1.00
C1204  C     0.18895   0.97803   0.77582   0.00000  Uiso   1.00
C1205  C     0.14374   0.68886   0.72501   0.00000  Uiso   1.00
C1206  C     0.18807   0.68769   0.77776   0.00000  Uiso   1.00
H1207  H     0.15032   0.84616   0.60579   0.00000  Uiso   1.00
H1208  H     0.12841   0.70633   0.70368   0.00000  Uiso   1.00
H1209  H     0.31534   0.86689   0.68684   0.00000  Uiso   1.00
H1210  H     0.01805   0.79956   0.81303   0.00000  Uiso   1.00
H1211  H     0.06516   0.86662   0.68666   0.00000  Uiso   1.00
H1212  H     0.26835   0.79929   0.81289   0.00000  Uiso   1.00
H1213  H     0.05050   0.74796   0.59779   0.00000  Uiso   1.00
H1214  H     0.05254   0.73036   0.54076   0.00000  Uiso   1.00
H1215  H     0.32998   0.73789   0.58757   0.00000  Uiso   1.00
H1216  H     0.27807   0.72107   0.91526   0.00000  Uiso   1.00
H1217  H     0.27987   0.70830   0.97229   0.00000  Uiso   1.00
H1218  H     0.19101   0.82210   0.88745   0.00000  Uiso   1.00
H1219  H     0.00093   0.71433   0.92282   0.00000  Uiso   1.00
H1220  H     0.14608   0.73324   0.84936   0.00000  Uiso   1.00
H1221  H     0.19516   0.73108   0.86950   0.00000  Uiso   1.00
H1222  H     0.16488   0.68349   0.86646   0.00000  Uiso   1.00
H1223  H     0.05571   0.95526   0.75052   0.00000  Uiso   1.00
H1224  H     0.05734   0.94458   0.69298   0.00000  Uiso   1.00
H1225  H     0.06363   0.99739   0.70849   0.00000  Uiso   1.00
H1226  H     0.28006   0.79518   0.61093   0.00000  Uiso   1.00
H1227  H     0.04353   0.83077   0.90009   0.00000  Uiso   1.00
H1228  H     0.01824   0.82035   0.98388   0.00000  Uiso   1.00
H1229  H     0.30309   0.77021   0.52936   0.00000  Uiso   1.00
H1230  H     0.09845   0.80818   0.58952   0.00000  Uiso   1.00
H1231  H     0.23364   0.78445   0.91433   0.00000  Uiso   1.00
H1232  H     0.20656   0.96081   0.79537   0.00000  Uiso   1.00
N1233  N     0.04759   0.83334   0.75001   0.00000  Uiso   1.00
N1234  N     0.28574   0.83332   0.74999   0.00000  Uiso   1.00
O1235  O     0.12846   0.89442   0.75000   0.00000  Uiso   1.00
O1236  O     0.29942   0.76933   0.94905   0.00000  Uiso   1.00
O1237  O     0.21068   0.70827   0.80347   0.00000  Uiso   1.00
O1238  O     0.12294   0.95797   0.69670   0.00000  Uiso   1.00
O1239  O     0.20488   0.77225   0.74999   0.00000  Uiso   1.00
O1240  O     0.20490   0.89441   0.75000   0.00000  Uiso   1.00
O1241  O     0.12843   0.77226   0.75000   0.00000  Uiso   1.00
O1242  O     0.10661   0.83334   0.81612   0.00000  Uiso   1.00
O1243  O     0.22672   0.83333   0.68387   0.00000  Uiso   1.00
O1244  O     0.18305   0.83333   0.81612   0.00000  Uiso   1.00
O1245  O     0.15028   0.83334   0.68388   0.00000  Uiso   1.00
O1246  O     0.03098   0.79279   0.55836   0.00000  Uiso   1.00
Zn1247 Zn    0.11562   0.83334   0.75000   0.00000  Uiso   1.00
Zn1248 Zn    0.21771   0.83333   0.75000   0.00000  Uiso   1.00
C1249  C     0.50007   0.91319   0.74950   0.00000  Uiso   1.00
C1250  C     0.47562   0.97909   0.72499   0.00000  Uiso   1.00
C1251  C     0.49959   0.70939   0.75125   0.00000  Uiso   1.00
C1252  C     0.49957   0.95744   0.74967   0.00000  Uiso   1.00
C1253  C     0.65590   0.85191   0.71500   0.00000  Uiso   1.00
C1254  C     0.34413   0.81463   0.78493   0.00000  Uiso   1.00
C1255  C     0.37023   0.85183   0.71496   0.00000  Uiso   1.00
C1256  C     0.62984   0.81454   0.78487   0.00000  Uiso   1.00
C1257  C     0.47011   0.83243   0.83780   0.00000  Uiso   1.00
C1258  C     0.52995   0.83226   0.66230   0.00000  Uiso   1.00
C1259  C     0.45269   0.82640   0.88805   0.00000  Uiso   1.00
C1260  C     0.49989   0.75353   0.75050   0.00000  Uiso   1.00
C1261  C     0.54778   0.82340   0.61269   0.00000  Uiso   1.00
C1262  C     0.38925   0.81848   0.96306   0.00000  Uiso   1.00
C1263  C     0.60394   0.78808   0.54533   0.00000  Uiso   1.00
C1264  C     0.40374   0.82548   0.91536   0.00000  Uiso   1.00
C1265  C     0.59104   0.80211   0.59121   0.00000  Uiso   1.00
C1266  C     0.48672   0.81953   0.90845   0.00000  Uiso   1.00
C1267  C     0.51685   0.82912   0.58899   0.00000  Uiso   1.00
C1268  C     0.47294   0.81148   0.95568   0.00000  Uiso   1.00
C1269  C     0.52763   0.81213   0.54476   0.00000  Uiso   1.00
C1270  C     0.42348   0.81172   0.98364   0.00000  Uiso   1.00
C1271  C     0.44396   0.81009   0.55203   0.00000  Uiso   1.00
C1272  C     0.57350   0.79503   0.52084   0.00000  Uiso   1.00
C1273  C     0.50739   0.80493   0.97626   0.00000  Uiso   1.00
C1274  C     0.49295   0.81069   0.52451   0.00000  Uiso   1.00
C1275  C     0.36674   0.75057   0.57141   0.00000  Uiso   1.00
C1276  C     0.63046   0.72641   0.93970   0.00000  Uiso   1.00
C1277  C     0.51063   0.71401   0.84903   0.00000  Uiso   1.00
C1278  C     0.40614   0.96448   0.71337   0.00000  Uiso   1.00
C1279  C     0.55495   0.79173   0.95097   0.00000  Uiso   1.00
C1280  C     0.40992   0.80542   0.53161   0.00000  Uiso   1.00
C1281  C     0.58688   0.78382   0.97379   0.00000  Uiso   1.00
C1282  C     0.52228   0.97803   0.77582   0.00000  Uiso   1.00
C1283  C     0.47707   0.68886   0.72501   0.00000  Uiso   1.00
C1284  C     0.52140   0.68769   0.77776   0.00000  Uiso   1.00
H1285  H     0.48366   0.84616   0.60579   0.00000  Uiso   1.00
H1286  H     0.46174   0.70633   0.70368   0.00000  Uiso   1.00
H1287  H     0.64868   0.86689   0.68684   0.00000  Uiso   1.00
H1288  H     0.35139   0.79956   0.81303   0.00000  Uiso   1.00
H1289  H     0.39850   0.86662   0.68666   0.00000  Uiso   1.00
H1290  H     0.60169   0.79929   0.81289   0.00000  Uiso   1.00
H1291  H     0.38384   0.74796   0.59779   0.00000  Uiso   1.00
H1292  H     0.38587   0.73036   0.54076   0.00000  Uiso   1.00
H1293  H     0.66332   0.73789   0.58757   0.00000  Uiso   1.00
H1294  H     0.61141   0.72107   0.91526   0.00000  Uiso   1.00
H1295  H     0.61320   0.70830   0.97229   0.00000  Uiso   1.00
H1296  H     0.52434   0.82210   0.88745   0.00000  Uiso   1.00
H1297  H     0.33426   0.71433   0.92282   0.00000  Uiso   1.00
H1298  H     0.47941   0.73324   0.84936   0.00000  Uiso   1.00
H1299  H     0.52850   0.73108   0.86950   0.00000  Uiso   1.00
H1300  H     0.49821   0.68349   0.86646   0.00000  Uiso   1.00
H1301  H     0.38904   0.95526   0.75052   0.00000  Uiso   1.00
H1302  H     0.39068   0.94458   0.69298   0.00000  Uiso   1.00
H1303  H     0.39696   0.99739   0.70849   0.00000  Uiso   1.00
H1304  H     0.61340   0.79518   0.61093   0.00000  Uiso   1.00
H1305  H     0.37687   0.83077   0.90009   0.00000  Uiso   1.00
H1306  H     0.35158   0.82035   0.98388   0.00000  Uiso   1.00
H1307  H     0.63642   0.77021   0.52936   0.00000  Uiso   1.00
H1308  H     0.43178   0.80818   0.58952   0.00000  Uiso   1.00
H1309  H     0.56697   0.78445   0.91433   0.00000  Uiso   1.00
H1310  H     0.53989   0.96081   0.79537   0.00000  Uiso   1.00
N1311  N     0.38093   0.83334   0.75001   0.00000  Uiso   1.00
N1312  N     0.61907   0.83332   0.74999   0.00000  Uiso   1.00
O1313  O     0.46179   0.89442   0.75000   0.00000  Uiso   1.00
O1314  O     0.63275   0.76933   0.94905   0.00000  Uiso   1.00
O1315  O     0.54402   0.70827   0.80347   0.00000  Uiso   1.00
O1316  O     0.45627   0.95797   0.69670   0.00000  Uiso   1.00
O1317  O     0.53821   0.77225   0.74999   0.00000  Uiso   1.00
O1318  O     0.53823   0.89441   0.75000   0.00000  Uiso   1.00
O1319  O     0.46177   0.77226   0.75000   0.00000  Uiso   1.00
O1320  O     0.43994   0.83334   0.81612   0.00000  Uiso   1.00
O1321  O     0.56006   0.83333   0.68387   0.00000  Uiso   1.00
O1322  O     0.51639   0.83333   0.81612   0.00000  Uiso   1.00
O1323  O     0.48361   0.83334   0.68388   0.00000  Uiso   1.00
O1324  O     0.36431   0.79279   0.55836   0.00000  Uiso   1.00
Zn1325 Zn    0.44896   0.83334   0.75000   0.00000  Uiso   1.00
Zn1326 Zn    0.55104   0.83333   0.75000   0.00000  Uiso   1.00
C1327  C     0.83341   0.91319   0.74950   0.00000  Uiso   1.00
C1328  C     0.80895   0.97909   0.72499   0.00000  Uiso   1.00
C1329  C     0.83292   0.70939   0.75125   0.00000  Uiso   1.00
C1330  C     0.83291   0.95744   0.74967   0.00000  Uiso   1.00
C1331  C     0.98923   0.85191   0.71500   0.00000  Uiso   1.00
C1332  C     0.67747   0.81463   0.78493   0.00000  Uiso   1.00
C1333  C     0.70356   0.85183   0.71496   0.00000  Uiso   1.00
C1334  C     0.96317   0.81454   0.78487   0.00000  Uiso   1.00
C1335  C     0.80344   0.83243   0.83780   0.00000  Uiso   1.00
C1336  C     0.86328   0.83226   0.66230   0.00000  Uiso   1.00
C1337  C     0.78603   0.82640   0.88805   0.00000  Uiso   1.00
C1338  C     0.83322   0.75353   0.75050   0.00000  Uiso   1.00
C1339  C     0.88111   0.82340   0.61269   0.00000  Uiso   1.00
C1340  C     0.72258   0.81848   0.96306   0.00000  Uiso   1.00
C1341  C     0.93728   0.78808   0.54533   0.00000  Uiso   1.00
C1342  C     0.73708   0.82548   0.91536   0.00000  Uiso   1.00
C1343  C     0.92437   0.80211   0.59121   0.00000  Uiso   1.00
C1344  C     0.82005   0.81953   0.90845   0.00000  Uiso   1.00
C1345  C     0.85018   0.82912   0.58899   0.00000  Uiso   1.00
C1346  C     0.80627   0.81148   0.95568   0.00000  Uiso   1.00
C1347  C     0.86096   0.81213   0.54476   0.00000  Uiso   1.00
C1348  C     0.75682   0.81172   0.98364   0.00000  Uiso   1.00
C1349  C     0.77730   0.81009   0.55203   0.00000  Uiso   1.00
C1350  C     0.90683   0.79503   0.52084   0.00000  Uiso   1.00
C1351  C     0.84073   0.80493   0.97626   0.00000  Uiso   1.00
C1352  C     0.82628   0.81069   0.52451   0.00000  Uiso   1.00
C1353  C     0.70007   0.75057   0.57141   0.00000  Uiso   1.00
C1354  C     0.96379   0.72641   0.93970   0.00000  Uiso   1.00
C1355  C     0.84396   0.71401   0.84903   0.00000  Uiso   1.00
C1356  C     0.73948   0.96448   0.71337   0.00000  Uiso   1.00
C1357  C     0.88828   0.79173   0.95097   0.00000  Uiso   1.00
C1358  C     0.74325   0.80542   0.53161   0.00000  Uiso   1.00
C1359  C     0.92022   0.78382   0.97379   0.00000  Uiso   1.00
C1360  C     0.85562   0.97803   0.77582   0.00000  Uiso   1.00
C1361  C     0.81040   0.68886   0.72501   0.00000  Uiso   1.00
C1362  C     0.85473   0.68769   0.77776   0.00000  Uiso   1.00
H1363  H     0.81699   0.84616   0.60579   0.00000  Uiso   1.00
H1364  H     0.79507   0.70633   0.70368   0.00000  Uiso   1.00
H1365  H     0.98201   0.86689   0.68684   0.00000  Uiso   1.00
H1366  H     0.68472   0.79956   0.81303   0.00000  Uiso   1.00
H1367  H     0.73183   0.86662   0.68666   0.00000  Uiso   1.00
H1368  H     0.93502   0.79929   0.81289   0.00000  Uiso   1.00
H1369  H     0.71717   0.74796   0.59779   0.00000  Uiso   1.00
H1370  H     0.71921   0.73036   0.54076   0.00000  Uiso   1.00
H1371  H     0.99665   0.73789   0.58757   0.00000  Uiso   1.00
H1372  H     0.94474   0.72107   0.91526   0.00000  Uiso   1.00
H1373  H     0.94653   0.70830   0.97229   0.00000  Uiso   1.00
H1374  H     0.85767   0.82210   0.88745   0.00000  Uiso   1.00
H1375  H     0.66759   0.71433   0.92282   0.00000  Uiso   1.00
H1376  H     0.81274   0.73324   0.84936   0.00000  Uiso   1.00
H1377  H     0.86183   0.73108   0.86950   0.00000  Uiso   1.00
H1378  H     0.83154   0.68349   0.86646   0.00000  Uiso   1.00
H1379  H     0.72238   0.95526   0.75052   0.00000  Uiso   1.00
H1380  H     0.72401   0.94458   0.69298   0.00000  Uiso   1.00
H1381  H     0.73029   0.99739   0.70849   0.00000  Uiso   1.00
H1382  H     0.94673   0.79518   0.61093   0.00000  Uiso   1.00
H1383  H     0.71020   0.83077   0.90009   0.00000  Uiso   1.00
H1384  H     0.68491   0.82035   0.98388   0.00000  Uiso   1.00
H1385  H     0.96976   0.77021   0.52936   0.00000  Uiso   1.00
H1386  H     0.76511   0.80818   0.58952   0.00000  Uiso   1.00
H1387  H     0.90031   0.78445   0.91433   0.00000  Uiso   1.00
H1388  H     0.87323   0.96081   0.79537   0.00000  Uiso   1.00
N1389  N     0.71426   0.83334   0.75001   0.00000  Uiso   1.00
N1390  N     0.95241   0.83332   0.74999   0.00000  Uiso   1.00
O1391  O     0.79512   0.89442   0.75000   0.00000  Uiso   1.00
O1392  O     0.96609   0.76933   0.94905   0.00000  Uiso   1.00
O1393  O     0.87735   0.70827   0.80347   0.00000  Uiso   1.00
O1394  O     0.78961   0.95797   0.69670   0.00000  Uiso   1.00
O1395  O     0.87154   0.77225   0.74999   0.00000  Uiso   1.00
O1396  O     0.87157   0.89441   0.75000   0.00000  Uiso   1.00
O1397  O     0.79510   0.77226   0.75000   0.00000  Uiso   1.00
O1398  O     0.77328   0.83334   0.81612   0.00000  Uiso   1.00
O1399  O     0.89339   0.83333   0.68387   0.00000  Uiso   1.00
O1400  O     0.84972   0.83333   0.81612   0.00000  Uiso   1.00
O1401  O     0.81695   0.83334   0.68388   0.00000  Uiso   1.00
O1402  O     0.69764   0.79279   0.55836   0.00000  Uiso   1.00
Zn1403 Zn    0.78229   0.83334   0.75000   0.00000  Uiso   1.00
Zn1404 Zn    0.88438   0.83333   0.75000   0.00000  Uiso   1.00
loop_
_geom_bond_atom_site_label_1
_geom_bond_atom_site_label_2
_geom_bond_distance
_geom_bond_site_symmetry_2
_ccdc_geom_bond_type
C1     O65     1.290   .     A
C1     O70     1.293   .     A
C1     C4      1.415   .     S
C2     C4      1.403   .     A
C2     O68     1.387   .     S
C2     C269    1.380   .     S
C3     C12     1.412   .     S
C3     C35     1.393   .     A
C3     C36     1.402   .     A
C4     C34     1.396   .     A
C5     N64     1.369   .     A
C5     H39     1.082   .     S
C5     C85     1.425   .     S
C6     H40     1.082   .     S
C6     N63     1.370   .     A
C6     C164    1.425   1_455 S
C7     N63     1.370   .     A
C7     H41     1.081   .     S
C7     C161    1.425   1_455 S
C8     H42     1.082   .     S
C8     N64     1.371   .     A
C8     C84     1.425   .     S
C9     O72     1.305   .     A
C9     C11     1.460   .     S
C9     O74     1.301   .     A
C10    O73     1.301   .     A
C10    C13     1.455   .     S
C10    O75     1.302   .     A
C11    C18     1.395   .     A
C11    C16     1.400   .     A
C12    O69     1.290   .     A
C12    O71     1.291   .     A
C13    C19     1.385   .     A
C13    C17     1.395   .     A
C14    H58     1.077   .     S
C14    C16     1.395   .     A
C14    C22     1.404   .     A
C15    H59     1.077   .     S
C15    C24     1.397   .     A
C15    C17     1.399   .     A
C16    H57     1.083   .     S
C17    H56     1.078   .     S
C18    C20     1.389   .     A
C18    H48     1.079   .     S
C19    C21     1.394   .     A
C19    H37     1.083   .     S
C20    C25     1.409   .     A
C20    C22     1.416   .     A
C21    C26     1.394   .     A
C21    C24     1.409   .     A
C22    C734    1.402   .     S
C23    C26     1.402   .     A
C23    H60     1.082   .     S
C23    C32     1.388   .     A
C24    C735    1.406   1_554 S
C25    C31     1.414   .     A
C25    C728    1.404   .     S
C26    C727    1.404   1_554 S
C27    H44     1.115   .     S
C27    O76     1.419   .     S
C27    H43     1.112   .     S
C27    H201    1.108   1_455 S
C28    H47     1.114   .     S
C28    H46     1.112   .     S
C28    O66     1.409   .     S
C28    H127    1.109   .     S
C29    O67     1.410   .     S
C29    H50     1.113   .     S
C29    H51     1.109   .     S
C29    H52     1.113   .     S
C30    H54     1.109   .     S
C30    H53     1.114   .     S
C30    H55     1.111   .     S
C30    O68     1.412   .     S
C31    H61     1.080   .     S
C31    C33     1.401   .     A
C32    O76     1.376   .     S
C32    C724    1.402   1_554 S
C33    O66     1.383   .     S
C33    C726    1.406   .     S
C34    H62     1.084   .     S
C34    C270    1.376   .     S
C35    H38     1.084   .     S
C35    C470    1.380   1_545 S
C36    O67     1.383   .     S
C36    C502    1.376   1_545 S
H45    C105    1.108   .     S
H49    C184    1.109   1_455 S
N63    Zn77    2.035   .     S
N64    Zn78    2.035   .     S
O65    Zn77    1.992   .     S
O69    Zn78    1.992   .     S
O70    Zn78    1.990   .     S
O71    Zn77    1.990   .     S
O72    Zn77    1.961   .     S
O73    Zn78    1.961   .     S
O74    Zn78    1.925   .     S
O75    Zn77    1.925   .     S
C79    O143    1.290   .     A
C79    O148    1.293   .     A
C79    C82     1.415   .     S
C80    C82     1.403   .     A
C80    O146    1.387   .     S
C80    C347    1.380   .     S
C81    C90     1.412   .     S
C81    C113    1.393   .     A
C81    C114    1.402   .     A
C82    C112    1.396   .     A
C83    N142    1.369   .     A
C83    H117    1.082   .     S
C83    C163    1.425   .     S
C84    H118    1.082   .     S
C84    N141    1.370   .     A
C85    N141    1.370   .     A
C85    H119    1.081   .     S
C86    H120    1.082   .     S
C86    N142    1.371   .     A
C86    C162    1.425   .     S
C87    O150    1.305   .     A
C87    C89     1.460   .     S
C87    O152    1.301   .     A
C88    O151    1.301   .     A
C88    C91     1.455   .     S
C88    O153    1.302   .     A
C89    C96     1.395   .     A
C89    C94     1.400   .     A
C90    O147    1.290   .     A
C90    O149    1.291   .     A
C91    C97     1.385   .     A
C91    C95     1.395   .     A
C92    H136    1.077   .     S
C92    C94     1.395   .     A
C92    C100    1.404   .     A
C93    H137    1.077   .     S
C93    C102    1.397   .     A
C93    C95     1.399   .     A
C94    H135    1.083   .     S
C95    H134    1.078   .     S
C96    C98     1.389   .     A
C96    H126    1.079   .     S
C97    C99     1.394   .     A
C97    H115    1.083   .     S
C98    C103    1.409   .     A
C98    C100    1.416   .     A
C99    C104    1.394   .     A
C99    C102    1.409   .     A
C100   C812    1.402   .     S
C101   C104    1.402   .     A
C101   H138    1.082   .     S
C101   C110    1.388   .     A
C102   C813    1.406   1_554 S
C103   C109    1.414   .     A
C103   C806    1.404   .     S
C104   C805    1.404   1_554 S
C105   H122    1.115   .     S
C105   O154    1.419   .     S
C105   H121    1.112   .     S
C106   H125    1.114   .     S
C106   H124    1.112   .     S
C106   O144    1.409   .     S
C106   H205    1.109   .     S
C107   O145    1.410   .     S
C107   H128    1.113   .     S
C107   H129    1.109   .     S
C107   H130    1.113   .     S
C108   H132    1.109   .     S
C108   H131    1.114   .     S
C108   H133    1.111   .     S
C108   O146    1.412   .     S
C109   H139    1.080   .     S
C109   C111    1.401   .     A
C110   O154    1.376   .     S
C110   C802    1.402   1_554 S
C111   O144    1.383   .     S
C111   C804    1.406   .     S
C112   H140    1.084   .     S
C112   C348    1.376   .     S
C113   H116    1.084   .     S
C113   C548    1.380   1_545 S
C114   O145    1.383   .     S
C114   C580    1.376   1_545 S
H123   C183    1.108   .     S
N141   Zn155   2.035   .     S
N142   Zn156   2.035   .     S
O143   Zn155   1.992   .     S
O147   Zn156   1.992   .     S
O148   Zn156   1.990   .     S
O149   Zn155   1.990   .     S
O150   Zn155   1.961   .     S
O151   Zn156   1.961   .     S
O152   Zn156   1.925   .     S
O153   Zn155   1.925   .     S
C157   O221    1.290   .     A
C157   O226    1.293   .     A
C157   C160    1.415   .     S
C158   C160    1.403   .     A
C158   O224    1.387   .     S
C158   C425    1.380   .     S
C159   C168    1.412   .     S
C159   C191    1.393   .     A
C159   C192    1.402   .     A
C160   C190    1.396   .     A
C161   N220    1.369   .     A
C161   H195    1.082   .     S
C161   C7      1.425   1_655 S
C162   H196    1.082   .     S
C162   N219    1.370   .     A
C163   N219    1.370   .     A
C163   H197    1.081   .     S
C164   H198    1.082   .     S
C164   N220    1.371   .     A
C164   C6      1.425   1_655 S
C165   O228    1.305   .     A
C165   C167    1.460   .     S
C165   O230    1.301   .     A
C166   O229    1.301   .     A
C166   C169    1.455   .     S
C166   O231    1.302   .     A
C167   C174    1.395   .     A
C167   C172    1.400   .     A
C168   O225    1.290   .     A
C168   O227    1.291   .     A
C169   C175    1.385   .     A
C169   C173    1.395   .     A
C170   H214    1.077   .     S
C170   C172    1.395   .     A
C170   C178    1.404   .     A
C171   H215    1.077   .     S
C171   C180    1.397   .     A
C171   C173    1.399   .     A
C172   H213    1.083   .     S
C173   H212    1.078   .     S
C174   C176    1.389   .     A
C174   H204    1.079   .     S
C175   C177    1.394   .     A
C175   H193    1.083   .     S
C176   C181    1.409   .     A
C176   C178    1.416   .     A
C177   C182    1.394   .     A
C177   C180    1.409   .     A
C178   C890    1.402   .     S
C179   C182    1.402   .     A
C179   H216    1.082   .     S
C179   C188    1.388   .     A
C180   C891    1.406   1_554 S
C181   C187    1.414   .     A
C181   C884    1.404   .     S
C182   C883    1.404   1_554 S
C183   H200    1.115   .     S
C183   O232    1.419   .     S
C183   H199    1.112   .     S
C184   H203    1.114   .     S
C184   H202    1.112   .     S
C184   O222    1.409   .     S
C184   H49     1.109   1_655 S
C185   O223    1.410   .     S
C185   H206    1.113   .     S
C185   H207    1.109   .     S
C185   H208    1.113   .     S
C186   H210    1.109   .     S
C186   H209    1.114   .     S
C186   H211    1.111   .     S
C186   O224    1.412   .     S
C187   H217    1.080   .     S
C187   C189    1.401   .     A
C188   O232    1.376   .     S
C188   C880    1.402   1_554 S
C189   O222    1.383   .     S
C189   C882    1.406   .     S
C190   H218    1.084   .     S
C190   C426    1.376   .     S
C191   H194    1.084   .     S
C191   C626    1.380   1_545 S
C192   O223    1.383   .     S
C192   C658    1.376   1_545 S
H201   C27     1.108   1_655 S
N219   Zn233   2.035   .     S
N220   Zn234   2.035   .     S
O221   Zn233   1.992   .     S
O225   Zn234   1.992   .     S
O226   Zn234   1.990   .     S
O227   Zn233   1.990   .     S
O228   Zn233   1.961   .     S
O229   Zn234   1.961   .     S
O230   Zn234   1.925   .     S
O231   Zn233   1.925   .     S
C235   O299    1.290   .     A
C235   O304    1.293   .     A
C235   C238    1.415   .     S
C236   C238    1.403   .     A
C236   O302    1.387   .     S
C236   C503    1.380   .     S
C237   C246    1.412   .     S
C237   C269    1.393   .     A
C237   C270    1.402   .     A
C238   C268    1.396   .     A
C239   N298    1.369   .     A
C239   H273    1.082   .     S
C239   C319    1.425   .     S
C240   H274    1.082   .     S
C240   N297    1.370   .     A
C240   C398    1.425   1_455 S
C241   N297    1.370   .     A
C241   H275    1.081   .     S
C241   C395    1.425   1_455 S
C242   H276    1.082   .     S
C242   N298    1.371   .     A
C242   C318    1.425   .     S
C243   O306    1.305   .     A
C243   C245    1.460   .     S
C243   O308    1.301   .     A
C244   O307    1.301   .     A
C244   C247    1.455   .     S
C244   O309    1.302   .     A
C245   C252    1.395   .     A
C245   C250    1.400   .     A
C246   O303    1.290   .     A
C246   O305    1.291   .     A
C247   C253    1.385   .     A
C247   C251    1.395   .     A
C248   H292    1.077   .     S
C248   C250    1.395   .     A
C248   C256    1.404   .     A
C249   H293    1.077   .     S
C249   C258    1.397   .     A
C249   C251    1.399   .     A
C250   H291    1.083   .     S
C251   H290    1.078   .     S
C252   C254    1.389   .     A
C252   H282    1.079   .     S
C253   C255    1.394   .     A
C253   H271    1.083   .     S
C254   C259    1.409   .     A
C254   C256    1.416   .     A
C255   C260    1.394   .     A
C255   C258    1.409   .     A
C256   C968    1.402   .     S
C257   C260    1.402   .     A
C257   H294    1.082   .     S
C257   C266    1.388   .     A
C258   C969    1.406   1_554 S
C259   C265    1.414   .     A
C259   C962    1.404   .     S
C260   C961    1.404   1_554 S
C261   H278    1.115   .     S
C261   O310    1.419   .     S
C261   H277    1.112   .     S
C261   H435    1.108   1_455 S
C262   H281    1.114   .     S
C262   H280    1.112   .     S
C262   O300    1.409   .     S
C262   H361    1.109   .     S
C263   O301    1.410   .     S
C263   H284    1.113   .     S
C263   H285    1.109   .     S
C263   H286    1.113   .     S
C264   H288    1.109   .     S
C264   H287    1.114   .     S
C264   H289    1.111   .     S
C264   O302    1.412   .     S
C265   H295    1.080   .     S
C265   C267    1.401   .     A
C266   O310    1.376   .     S
C266   C958    1.402   1_554 S
C267   O300    1.383   .     S
C267   C960    1.406   .     S
C268   H296    1.084   .     S
C268   C504    1.376   .     S
C269   H272    1.084   .     S
C270   O301    1.383   .     S
H279   C339    1.108   .     S
H283   C418    1.109   1_455 S
N297   Zn311   2.035   .     S
N298   Zn312   2.035   .     S
O299   Zn311   1.992   .     S
O303   Zn312   1.992   .     S
O304   Zn312   1.990   .     S
O305   Zn311   1.990   .     S
O306   Zn311   1.961   .     S
O307   Zn312   1.961   .     S
O308   Zn312   1.925   .     S
O309   Zn311   1.925   .     S
C313   O377    1.290   .     A
C313   O382    1.293   .     A
C313   C316    1.415   .     S
C314   C316    1.403   .     A
C314   O380    1.387   .     S
C314   C581    1.380   .     S
C315   C324    1.412   .     S
C315   C347    1.393   .     A
C315   C348    1.402   .     A
C316   C346    1.396   .     A
C317   N376    1.369   .     A
C317   H351    1.082   .     S
C317   C397    1.425   .     S
C318   H352    1.082   .     S
C318   N375    1.370   .     A
C319   N375    1.370   .     A
C319   H353    1.081   .     S
C320   H354    1.082   .     S
C320   N376    1.371   .     A
C320   C396    1.425   .     S
C321   O384    1.305   .     A
C321   C323    1.460   .     S
C321   O386    1.301   .     A
C322   O385    1.301   .     A
C322   C325    1.455   .     S
C322   O387    1.302   .     A
C323   C330    1.395   .     A
C323   C328    1.400   .     A
C324   O381    1.290   .     A
C324   O383    1.291   .     A
C325   C331    1.385   .     A
C325   C329    1.395   .     A
C326   H370    1.077   .     S
C326   C328    1.395   .     A
C326   C334    1.404   .     A
C327   H371    1.077   .     S
C327   C336    1.397   .     A
C327   C329    1.399   .     A
C328   H369    1.083   .     S
C329   H368    1.078   .     S
C330   C332    1.389   .     A
C330   H360    1.079   .     S
C331   C333    1.394   .     A
C331   H349    1.083   .     S
C332   C337    1.409   .     A
C332   C334    1.416   .     A
C333   C338    1.394   .     A
C333   C336    1.409   .     A
C334   C1046   1.402   .     S
C335   C338    1.402   .     A
C335   H372    1.082   .     S
C335   C344    1.388   .     A
C336   C1047   1.406   1_554 S
C337   C343    1.414   .     A
C337   C1040   1.404   .     S
C338   C1039   1.404   1_554 S
C339   H356    1.115   .     S
C339   O388    1.419   .     S
C339   H355    1.112   .     S
C340   H359    1.114   .     S
C340   H358    1.112   .     S
C340   O378    1.409   .     S
C340   H439    1.109   .     S
C341   O379    1.410   .     S
C341   H362    1.113   .     S
C341   H363    1.109   .     S
C341   H364    1.113   .     S
C342   H366    1.109   .     S
C342   H365    1.114   .     S
C342   H367    1.111   .     S
C342   O380    1.412   .     S
C343   H373    1.080   .     S
C343   C345    1.401   .     A
C344   O388    1.376   .     S
C344   C1036   1.402   1_554 S
C345   O378    1.383   .     S
C345   C1038   1.406   .     S
C346   H374    1.084   .     S
C346   C582    1.376   .     S
C347   H350    1.084   .     S
C348   O379    1.383   .     S
H357   C417    1.108   .     S
N375   Zn389   2.035   .     S
N376   Zn390   2.035   .     S
O377   Zn389   1.992   .     S
O381   Zn390   1.992   .     S
O382   Zn390   1.990   .     S
O383   Zn389   1.990   .     S
O384   Zn389   1.961   .     S
O385   Zn390   1.961   .     S
O386   Zn390   1.925   .     S
O387   Zn389   1.925   .     S
C391   O455    1.290   .     A
C391   O460    1.293   .     A
C391   C394    1.415   .     S
C392   C394    1.403   .     A
C392   O458    1.387   .     S
C392   C659    1.380   .     S
C393   C402    1.412   .     S
C393   C425    1.393   .     A
C393   C426    1.402   .     A
C394   C424    1.396   .     A
C395   N454    1.369   .     A
C395   H429    1.082   .     S
C395   C241    1.425   1_655 S
C396   H430    1.082   .     S
C396   N453    1.370   .     A
C397   N453    1.370   .     A
C397   H431    1.081   .     S
C398   H432    1.082   .     S
C398   N454    1.371   .     A
C398   C240    1.425   1_655 S
C399   O462    1.305   .     A
C399   C401    1.460   .     S
C399   O464    1.301   .     A
C400   O463    1.301   .     A
C400   C403    1.455   .     S
C400   O465    1.302   .     A
C401   C408    1.395   .     A
C401   C406    1.400   .     A
C402   O459    1.290   .     A
C402   O461    1.291   .     A
C403   C409    1.385   .     A
C403   C407    1.395   .     A
C404   H448    1.077   .     S
C404   C406    1.395   .     A
C404   C412    1.404   .     A
C405   H449    1.077   .     S
C405   C414    1.397   .     A
C405   C407    1.399   .     A
C406   H447    1.083   .     S
C407   H446    1.078   .     S
C408   C410    1.389   .     A
C408   H438    1.079   .     S
C409   C411    1.394   .     A
C409   H427    1.083   .     S
C410   C415    1.409   .     A
C410   C412    1.416   .     A
C411   C416    1.394   .     A
C411   C414    1.409   .     A
C412   C1124   1.402   .     S
C413   C416    1.402   .     A
C413   H450    1.082   .     S
C413   C422    1.388   .     A
C414   C1125   1.406   1_554 S
C415   C421    1.414   .     A
C415   C1118   1.404   .     S
C416   C1117   1.404   1_554 S
C417   H434    1.115   .     S
C417   O466    1.419   .     S
C417   H433    1.112   .     S
C418   H437    1.114   .     S
C418   H436    1.112   .     S
C418   O456    1.409   .     S
C418   H283    1.109   1_655 S
C419   O457    1.410   .     S
C419   H440    1.113   .     S
C419   H441    1.109   .     S
C419   H442    1.113   .     S
C420   H444    1.109   .     S
C420   H443    1.114   .     S
C420   H445    1.111   .     S
C420   O458    1.412   .     S
C421   H451    1.080   .     S
C421   C423    1.401   .     A
C422   O466    1.376   .     S
C422   C1114   1.402   1_554 S
C423   O456    1.383   .     S
C423   C1116   1.406   .     S
C424   H452    1.084   .     S
C424   C660    1.376   .     S
C425   H428    1.084   .     S
C426   O457    1.383   .     S
H435   C261    1.108   1_655 S
N453   Zn467   2.035   .     S
N454   Zn468   2.035   .     S
O455   Zn467   1.992   .     S
O459   Zn468   1.992   .     S
O460   Zn468   1.990   .     S
O461   Zn467   1.990   .     S
O462   Zn467   1.961   .     S
O463   Zn468   1.961   .     S
O464   Zn468   1.925   .     S
O465   Zn467   1.925   .     S
C469   O533    1.290   .     A
C469   O538    1.293   .     A
C469   C472    1.415   .     S
C470   C472    1.403   .     A
C470   O536    1.387   .     S
C470   C35     1.380   1_565 S
C471   C480    1.412   .     S
C471   C503    1.393   .     A
C471   C504    1.402   .     A
C472   C502    1.396   .     A
C473   N532    1.369   .     A
C473   H507    1.082   .     S
C473   C553    1.425   .     S
C474   H508    1.082   .     S
C474   N531    1.370   .     A
C474   C632    1.425   1_455 S
C475   N531    1.370   .     A
C475   H509    1.081   .     S
C475   C629    1.425   1_455 S
C476   H510    1.082   .     S
C476   N532    1.371   .     A
C476   C552    1.425   .     S
C477   O540    1.305   .     A
C477   C479    1.460   .     S
C477   O542    1.301   .     A
C478   O541    1.301   .     A
C478   C481    1.455   .     S
C478   O543    1.302   .     A
C479   C486    1.395   .     A
C479   C484    1.400   .     A
C480   O537    1.290   .     A
C480   O539    1.291   .     A
C481   C487    1.385   .     A
C481   C485    1.395   .     A
C482   H526    1.077   .     S
C482   C484    1.395   .     A
C482   C490    1.404   .     A
C483   H527    1.077   .     S
C483   C492    1.397   .     A
C483   C485    1.399   .     A
C484   H525    1.083   .     S
C485   H524    1.078   .     S
C486   C488    1.389   .     A
C486   H516    1.079   .     S
C487   C489    1.394   .     A
C487   H505    1.083   .     S
C488   C493    1.409   .     A
C488   C490    1.416   .     A
C489   C494    1.394   .     A
C489   C492    1.409   .     A
C490   C1202   1.402   .     S
C491   C494    1.402   .     A
C491   H528    1.082   .     S
C491   C500    1.388   .     A
C492   C1203   1.406   1_554 S
C493   C499    1.414   .     A
C493   C1196   1.404   .     S
C494   C1195   1.404   1_554 S
C495   H512    1.115   .     S
C495   O544    1.419   .     S
C495   H511    1.112   .     S
C495   H669    1.108   1_455 S
C496   H515    1.114   .     S
C496   H514    1.112   .     S
C496   O534    1.409   .     S
C496   H595    1.109   .     S
C497   O535    1.410   .     S
C497   H518    1.113   .     S
C497   H519    1.109   .     S
C497   H520    1.113   .     S
C498   H522    1.109   .     S
C498   H521    1.114   .     S
C498   H523    1.111   .     S
C498   O536    1.412   .     S
C499   H529    1.080   .     S
C499   C501    1.401   .     A
C500   O544    1.376   .     S
C500   C1192   1.402   1_554 S
C501   O534    1.383   .     S
C501   C1194   1.406   .     S
C502   H530    1.084   .     S
C502   C36     1.376   1_565 S
C503   H506    1.084   .     S
C504   O535    1.383   .     S
H513   C573    1.108   .     S
H517   C652    1.109   1_455 S
N531   Zn545   2.035   .     S
N532   Zn546   2.035   .     S
O533   Zn545   1.992   .     S
O537   Zn546   1.992   .     S
O538   Zn546   1.990   .     S
O539   Zn545   1.990   .     S
O540   Zn545   1.961   .     S
O541   Zn546   1.961   .     S
O542   Zn546   1.925   .     S
O543   Zn545   1.925   .     S
C547   O611    1.290   .     A
C547   O616    1.293   .     A
C547   C550    1.415   .     S
C548   C550    1.403   .     A
C548   O614    1.387   .     S
C548   C113    1.380   1_565 S
C549   C558    1.412   .     S
C549   C581    1.393   .     A
C549   C582    1.402   .     A
C550   C580    1.396   .     A
C551   N610    1.369   .     A
C551   H585    1.082   .     S
C551   C631    1.425   .     S
C552   H586    1.082   .     S
C552   N609    1.370   .     A
C553   N609    1.370   .     A
C553   H587    1.081   .     S
C554   H588    1.082   .     S
C554   N610    1.371   .     A
C554   C630    1.425   .     S
C555   O618    1.305   .     A
C555   C557    1.460   .     S
C555   O620    1.301   .     A
C556   O619    1.301   .     A
C556   C559    1.455   .     S
C556   O621    1.302   .     A
C557   C564    1.395   .     A
C557   C562    1.400   .     A
C558   O615    1.290   .     A
C558   O617    1.291   .     A
C559   C565    1.385   .     A
C559   C563    1.395   .     A
C560   H604    1.077   .     S
C560   C562    1.395   .     A
C560   C568    1.404   .     A
C561   H605    1.077   .     S
C561   C570    1.397   .     A
C561   C563    1.399   .     A
C562   H603    1.083   .     S
C563   H602    1.078   .     S
C564   C566    1.389   .     A
C564   H594    1.079   .     S
C565   C567    1.394   .     A
C565   H583    1.083   .     S
C566   C571    1.409   .     A
C566   C568    1.416   .     A
C567   C572    1.394   .     A
C567   C570    1.409   .     A
C568   C1280   1.402   .     S
C569   C572    1.402   .     A
C569   H606    1.082   .     S
C569   C578    1.388   .     A
C570   C1281   1.406   1_554 S
C571   C577    1.414   .     A
C571   C1274   1.404   .     S
C572   C1273   1.404   1_554 S
C573   H590    1.115   .     S
C573   O622    1.419   .     S
C573   H589    1.112   .     S
C574   H593    1.114   .     S
C574   H592    1.112   .     S
C574   O612    1.409   .     S
C574   H673    1.109   .     S
C575   O613    1.410   .     S
C575   H596    1.113   .     S
C575   H597    1.109   .     S
C575   H598    1.113   .     S
C576   H600    1.109   .     S
C576   H599    1.114   .     S
C576   H601    1.111   .     S
C576   O614    1.412   .     S
C577   H607    1.080   .     S
C577   C579    1.401   .     A
C578   O622    1.376   .     S
C578   C1270   1.402   1_554 S
C579   O612    1.383   .     S
C579   C1272   1.406   .     S
C580   H608    1.084   .     S
C580   C114    1.376   1_565 S
C581   H584    1.084   .     S
C582   O613    1.383   .     S
H591   C651    1.108   .     S
N609   Zn623   2.035   .     S
N610   Zn624   2.035   .     S
O611   Zn623   1.992   .     S
O615   Zn624   1.992   .     S
O616   Zn624   1.990   .     S
O617   Zn623   1.990   .     S
O618   Zn623   1.961   .     S
O619   Zn624   1.961   .     S
O620   Zn624   1.925   .     S
O621   Zn623   1.925   .     S
C625   O689    1.290   .     A
C625   O694    1.293   .     A
C625   C628    1.415   .     S
C626   C628    1.403   .     A
C626   O692    1.387   .     S
C626   C191    1.380   1_565 S
C627   C636    1.412   .     S
C627   C659    1.393   .     A
C627   C660    1.402   .     A
C628   C658    1.396   .     A
C629   N688    1.369   .     A
C629   H663    1.082   .     S
C629   C475    1.425   1_655 S
C630   H664    1.082   .     S
C630   N687    1.370   .     A
C631   N687    1.370   .     A
C631   H665    1.081   .     S
C632   H666    1.082   .     S
C632   N688    1.371   .     A
C632   C474    1.425   1_655 S
C633   O696    1.305   .     A
C633   C635    1.460   .     S
C633   O698    1.301   .     A
C634   O697    1.301   .     A
C634   C637    1.455   .     S
C634   O699    1.302   .     A
C635   C642    1.395   .     A
C635   C640    1.400   .     A
C636   O693    1.290   .     A
C636   O695    1.291   .     A
C637   C643    1.385   .     A
C637   C641    1.395   .     A
C638   H682    1.077   .     S
C638   C640    1.395   .     A
C638   C646    1.404   .     A
C639   H683    1.077   .     S
C639   C648    1.397   .     A
C639   C641    1.399   .     A
C640   H681    1.083   .     S
C641   H680    1.078   .     S
C642   C644    1.389   .     A
C642   H672    1.079   .     S
C643   C645    1.394   .     A
C643   H661    1.083   .     S
C644   C649    1.409   .     A
C644   C646    1.416   .     A
C645   C650    1.394   .     A
C645   C648    1.409   .     A
C646   C1358   1.402   .     S
C647   C650    1.402   .     A
C647   H684    1.082   .     S
C647   C656    1.388   .     A
C648   C1359   1.406   1_554 S
C649   C655    1.414   .     A
C649   C1352   1.404   .     S
C650   C1351   1.404   1_554 S
C651   H668    1.115   .     S
C651   O700    1.419   .     S
C651   H667    1.112   .     S
C652   H671    1.114   .     S
C652   H670    1.112   .     S
C652   O690    1.409   .     S
C652   H517    1.109   1_655 S
C653   O691    1.410   .     S
C653   H674    1.113   .     S
C653   H675    1.109   .     S
C653   H676    1.113   .     S
C654   H678    1.109   .     S
C654   H677    1.114   .     S
C654   H679    1.111   .     S
C654   O692    1.412   .     S
C655   H685    1.080   .     S
C655   C657    1.401   .     A
C656   O700    1.376   .     S
C656   C1348   1.402   1_554 S
C657   O690    1.383   .     S
C657   C1350   1.406   .     S
C658   H686    1.084   .     S
C658   C192    1.376   1_565 S
C659   H662    1.084   .     S
C660   O691    1.383   .     S
H669   C495    1.108   1_655 S
N687   Zn701   2.035   .     S
N688   Zn702   2.035   .     S
O689   Zn701   1.992   .     S
O693   Zn702   1.992   .     S
O694   Zn702   1.990   .     S
O695   Zn701   1.990   .     S
O696   Zn701   1.961   .     S
O697   Zn702   1.961   .     S
O698   Zn702   1.925   .     S
O699   Zn701   1.925   .     S
C703   O767    1.290   .     A
C703   O772    1.293   .     A
C703   C706    1.415   .     S
C704   C706    1.403   .     A
C704   O770    1.387   .     S
C704   C971    1.380   .     S
C705   C714    1.412   .     S
C705   C737    1.393   .     A
C705   C738    1.402   .     A
C706   C736    1.396   .     A
C707   N766    1.369   .     A
C707   H741    1.082   .     S
C707   C787    1.425   .     S
C708   H742    1.082   .     S
C708   N765    1.370   .     A
C708   C866    1.425   1_455 S
C709   N765    1.370   .     A
C709   H743    1.081   .     S
C709   C863    1.425   1_455 S
C710   H744    1.082   .     S
C710   N766    1.371   .     A
C710   C786    1.425   .     S
C711   O774    1.305   .     A
C711   C713    1.460   .     S
C711   O776    1.301   .     A
C712   O775    1.301   .     A
C712   C715    1.455   .     S
C712   O777    1.302   .     A
C713   C720    1.395   .     A
C713   C718    1.400   .     A
C714   O771    1.290   .     A
C714   O773    1.291   .     A
C715   C721    1.385   .     A
C715   C719    1.395   .     A
C716   H760    1.077   .     S
C716   C718    1.395   .     A
C716   C724    1.404   .     A
C717   H761    1.077   .     S
C717   C726    1.397   .     A
C717   C719    1.399   .     A
C718   H759    1.083   .     S
C719   H758    1.078   .     S
C720   C722    1.389   .     A
C720   H750    1.079   .     S
C721   C723    1.394   .     A
C721   H739    1.083   .     S
C722   C727    1.409   .     A
C722   C724    1.416   .     A
C723   C728    1.394   .     A
C723   C726    1.409   .     A
C724   C32     1.402   1_556 S
C725   C728    1.402   .     A
C725   H762    1.082   .     S
C725   C734    1.388   .     A
C727   C733    1.414   .     A
C727   C26     1.404   1_556 S
C729   H746    1.115   .     S
C729   O778    1.419   .     S
C729   H745    1.112   .     S
C729   H903    1.108   1_455 S
C730   H749    1.114   .     S
C730   H748    1.112   .     S
C730   O768    1.409   .     S
C730   H829    1.109   .     S
C731   O769    1.410   .     S
C731   H752    1.113   .     S
C731   H753    1.109   .     S
C731   H754    1.113   .     S
C732   H756    1.109   .     S
C732   H755    1.114   .     S
C732   H757    1.111   .     S
C732   O770    1.412   .     S
C733   H763    1.080   .     S
C733   C735    1.401   .     A
C734   O778    1.376   .     S
C735   O768    1.383   .     S
C735   C24     1.406   1_556 S
C736   H764    1.084   .     S
C736   C972    1.376   .     S
C737   H740    1.084   .     S
C737   C1172   1.380   1_545 S
C738   O769    1.383   .     S
C738   C1204   1.376   1_545 S
H747   C807    1.108   .     S
H751   C886    1.109   1_455 S
N765   Zn779   2.035   .     S
N766   Zn780   2.035   .     S
O767   Zn779   1.992   .     S
O771   Zn780   1.992   .     S
O772   Zn780   1.990   .     S
O773   Zn779   1.990   .     S
O774   Zn779   1.961   .     S
O775   Zn780   1.961   .     S
O776   Zn780   1.925   .     S
O777   Zn779   1.925   .     S
C781   O845    1.290   .     A
C781   O850    1.293   .     A
C781   C784    1.415   .     S
C782   C784    1.403   .     A
C782   O848    1.387   .     S
C782   C1049   1.380   .     S
C783   C792    1.412   .     S
C783   C815    1.393   .     A
C783   C816    1.402   .     A
C784   C814    1.396   .     A
C785   N844    1.369   .     A
C785   H819    1.082   .     S
C785   C865    1.425   .     S
C786   H820    1.082   .     S
C786   N843    1.370   .     A
C787   N843    1.370   .     A
C787   H821    1.081   .     S
C788   H822    1.082   .     S
C788   N844    1.371   .     A
C788   C864    1.425   .     S
C789   O852    1.305   .     A
C789   C791    1.460   .     S
C789   O854    1.301   .     A
C790   O853    1.301   .     A
C790   C793    1.455   .     S
C790   O855    1.302   .     A
C791   C798    1.395   .     A
C791   C796    1.400   .     A
C792   O849    1.290   .     A
C792   O851    1.291   .     A
C793   C799    1.385   .     A
C793   C797    1.395   .     A
C794   H838    1.077   .     S
C794   C796    1.395   .     A
C794   C802    1.404   .     A
C795   H839    1.077   .     S
C795   C804    1.397   .     A
C795   C797    1.399   .     A
C796   H837    1.083   .     S
C797   H836    1.078   .     S
C798   C800    1.389   .     A
C798   H828    1.079   .     S
C799   C801    1.394   .     A
C799   H817    1.083   .     S
C800   C805    1.409   .     A
C800   C802    1.416   .     A
C801   C806    1.394   .     A
C801   C804    1.409   .     A
C802   C110    1.402   1_556 S
C803   C806    1.402   .     A
C803   H840    1.082   .     S
C803   C812    1.388   .     A
C805   C811    1.414   .     A
C805   C104    1.404   1_556 S
C807   H824    1.115   .     S
C807   O856    1.419   .     S
C807   H823    1.112   .     S
C808   H827    1.114   .     S
C808   H826    1.112   .     S
C808   O846    1.409   .     S
C808   H907    1.109   .     S
C809   O847    1.410   .     S
C809   H830    1.113   .     S
C809   H831    1.109   .     S
C809   H832    1.113   .     S
C810   H834    1.109   .     S
C810   H833    1.114   .     S
C810   H835    1.111   .     S
C810   O848    1.412   .     S
C811   H841    1.080   .     S
C811   C813    1.401   .     A
C812   O856    1.376   .     S
C813   O846    1.383   .     S
C813   C102    1.406   1_556 S
C814   H842    1.084   .     S
C814   C1050   1.376   .     S
C815   H818    1.084   .     S
C815   C1250   1.380   1_545 S
C816   O847    1.383   .     S
C816   C1282   1.376   1_545 S
H825   C885    1.108   .     S
N843   Zn857   2.035   .     S
N844   Zn858   2.035   .     S
O845   Zn857   1.992   .     S
O849   Zn858   1.992   .     S
O850   Zn858   1.990   .     S
O851   Zn857   1.990   .     S
O852   Zn857   1.961   .     S
O853   Zn858   1.961   .     S
O854   Zn858   1.925   .     S
O855   Zn857   1.925   .     S
C859   O923    1.290   .     A
C859   O928    1.293   .     A
C859   C862    1.415   .     S
C860   C862    1.403   .     A
C860   O926    1.387   .     S
C860   C1127   1.380   .     S
C861   C870    1.412   .     S
C861   C893    1.393   .     A
C861   C894    1.402   .     A
C862   C892    1.396   .     A
C863   N922    1.369   .     A
C863   H897    1.082   .     S
C863   C709    1.425   1_655 S
C864   H898    1.082   .     S
C864   N921    1.370   .     A
C865   N921    1.370   .     A
C865   H899    1.081   .     S
C866   H900    1.082   .     S
C866   N922    1.371   .     A
C866   C708    1.425   1_655 S
C867   O930    1.305   .     A
C867   C869    1.460   .     S
C867   O932    1.301   .     A
C868   O931    1.301   .     A
C868   C871    1.455   .     S
C868   O933    1.302   .     A
C869   C876    1.395   .     A
C869   C874    1.400   .     A
C870   O927    1.290   .     A
C870   O929    1.291   .     A
C871   C877    1.385   .     A
C871   C875    1.395   .     A
C872   H916    1.077   .     S
C872   C874    1.395   .     A
C872   C880    1.404   .     A
C873   H917    1.077   .     S
C873   C882    1.397   .     A
C873   C875    1.399   .     A
C874   H915    1.083   .     S
C875   H914    1.078   .     S
C876   C878    1.389   .     A
C876   H906    1.079   .     S
C877   C879    1.394   .     A
C877   H895    1.083   .     S
C878   C883    1.409   .     A
C878   C880    1.416   .     A
C879   C884    1.394   .     A
C879   C882    1.409   .     A
C880   C188    1.402   1_556 S
C881   C884    1.402   .     A
C881   H918    1.082   .     S
C881   C890    1.388   .     A
C883   C889    1.414   .     A
C883   C182    1.404   1_556 S
C885   H902    1.115   .     S
C885   O934    1.419   .     S
C885   H901    1.112   .     S
C886   H905    1.114   .     S
C886   H904    1.112   .     S
C886   O924    1.409   .     S
C886   H751    1.109   1_655 S
C887   O925    1.410   .     S
C887   H908    1.113   .     S
C887   H909    1.109   .     S
C887   H910    1.113   .     S
C888   H912    1.109   .     S
C888   H911    1.114   .     S
C888   H913    1.111   .     S
C888   O926    1.412   .     S
C889   H919    1.080   .     S
C889   C891    1.401   .     A
C890   O934    1.376   .     S
C891   O924    1.383   .     S
C891   C180    1.406   1_556 S
C892   H920    1.084   .     S
C892   C1128   1.376   .     S
C893   H896    1.084   .     S
C893   C1328   1.380   1_545 S
C894   O925    1.383   .     S
C894   C1360   1.376   1_545 S
H903   C729    1.108   1_655 S
N921   Zn935   2.035   .     S
N922   Zn936   2.035   .     S
O923   Zn935   1.992   .     S
O927   Zn936   1.992   .     S
O928   Zn936   1.990   .     S
O929   Zn935   1.990   .     S
O930   Zn935   1.961   .     S
O931   Zn936   1.961   .     S
O932   Zn936   1.925   .     S
O933   Zn935   1.925   .     S
C937   O1001   1.290   .     A
C937   O1006   1.293   .     A
C937   C940    1.415   .     S
C938   C940    1.403   .     A
C938   O1004   1.387   .     S
C938   C1205   1.380   .     S
C939   C948    1.412   .     S
C939   C971    1.393   .     A
C939   C972    1.402   .     A
C940   C970    1.396   .     A
C941   N1000   1.369   .     A
C941   H975    1.082   .     S
C941   C1021   1.425   .     S
C942   H976    1.082   .     S
C942   N999    1.370   .     A
C942   C1100   1.425   1_455 S
C943   N999    1.370   .     A
C943   H977    1.081   .     S
C943   C1097   1.425   1_455 S
C944   H978    1.082   .     S
C944   N1000   1.371   .     A
C944   C1020   1.425   .     S
C945   O1008   1.305   .     A
C945   C947    1.460   .     S
C945   O1010   1.301   .     A
C946   O1009   1.301   .     A
C946   C949    1.455   .     S
C946   O1011   1.302   .     A
C947   C954    1.395   .     A
C947   C952    1.400   .     A
C948   O1005   1.290   .     A
C948   O1007   1.291   .     A
C949   C955    1.385   .     A
C949   C953    1.395   .     A
C950   H994    1.077   .     S
C950   C952    1.395   .     A
C950   C958    1.404   .     A
C951   H995    1.077   .     S
C951   C960    1.397   .     A
C951   C953    1.399   .     A
C952   H993    1.083   .     S
C953   H992    1.078   .     S
C954   C956    1.389   .     A
C954   H984    1.079   .     S
C955   C957    1.394   .     A
C955   H973    1.083   .     S
C956   C961    1.409   .     A
C956   C958    1.416   .     A
C957   C962    1.394   .     A
C957   C960    1.409   .     A
C958   C266    1.402   1_556 S
C959   C962    1.402   .     A
C959   H996    1.082   .     S
C959   C968    1.388   .     A
C961   C967    1.414   .     A
C961   C260    1.404   1_556 S
C963   H980    1.115   .     S
C963   O1012   1.419   .     S
C963   H979    1.112   .     S
C963   H1137   1.108   1_455 S
C964   H983    1.114   .     S
C964   H982    1.112   .     S
C964   O1002   1.409   .     S
C964   H1063   1.109   .     S
C965   O1003   1.410   .     S
C965   H986    1.113   .     S
C965   H987    1.109   .     S
C965   H988    1.113   .     S
C966   H990    1.109   .     S
C966   H989    1.114   .     S
C966   H991    1.111   .     S
C966   O1004   1.412   .     S
C967   H997    1.080   .     S
C967   C969    1.401   .     A
C968   O1012   1.376   .     S
C969   O1002   1.383   .     S
C969   C258    1.406   1_556 S
C970   H998    1.084   .     S
C970   C1206   1.376   .     S
C971   H974    1.084   .     S
C972   O1003   1.383   .     S
H981   C1041   1.108   .     S
H985   C1120   1.109   1_455 S
N999   Zn1013  2.035   .     S
N1000  Zn1014  2.035   .     S
O1001  Zn1013  1.992   .     S
O1005  Zn1014  1.992   .     S
O1006  Zn1014  1.990   .     S
O1007  Zn1013  1.990   .     S
O1008  Zn1013  1.961   .     S
O1009  Zn1014  1.961   .     S
O1010  Zn1014  1.925   .     S
O1011  Zn1013  1.925   .     S
C1015  O1079   1.290   .     A
C1015  O1084   1.293   .     A
C1015  C1018   1.415   .     S
C1016  C1018   1.403   .     A
C1016  O1082   1.387   .     S
C1016  C1283   1.380   .     S
C1017  C1026   1.412   .     S
C1017  C1049   1.393   .     A
C1017  C1050   1.402   .     A
C1018  C1048   1.396   .     A
C1019  N1078   1.369   .     A
C1019  H1053   1.082   .     S
C1019  C1099   1.425   .     S
C1020  H1054   1.082   .     S
C1020  N1077   1.370   .     A
C1021  N1077   1.370   .     A
C1021  H1055   1.081   .     S
C1022  H1056   1.082   .     S
C1022  N1078   1.371   .     A
C1022  C1098   1.425   .     S
C1023  O1086   1.305   .     A
C1023  C1025   1.460   .     S
C1023  O1088   1.301   .     A
C1024  O1087   1.301   .     A
C1024  C1027   1.455   .     S
C1024  O1089   1.302   .     A
C1025  C1032   1.395   .     A
C1025  C1030   1.400   .     A
C1026  O1083   1.290   .     A
C1026  O1085   1.291   .     A
C1027  C1033   1.385   .     A
C1027  C1031   1.395   .     A
C1028  H1072   1.077   .     S
C1028  C1030   1.395   .     A
C1028  C1036   1.404   .     A
C1029  H1073   1.077   .     S
C1029  C1038   1.397   .     A
C1029  C1031   1.399   .     A
C1030  H1071   1.083   .     S
C1031  H1070   1.078   .     S
C1032  C1034   1.389   .     A
C1032  H1062   1.079   .     S
C1033  C1035   1.394   .     A
C1033  H1051   1.083   .     S
C1034  C1039   1.409   .     A
C1034  C1036   1.416   .     A
C1035  C1040   1.394   .     A
C1035  C1038   1.409   .     A
C1036  C344    1.402   1_556 S
C1037  C1040   1.402   .     A
C1037  H1074   1.082   .     S
C1037  C1046   1.388   .     A
C1039  C1045   1.414   .     A
C1039  C338    1.404   1_556 S
C1041  H1058   1.115   .     S
C1041  O1090   1.419   .     S
C1041  H1057   1.112   .     S
C1042  H1061   1.114   .     S
C1042  H1060   1.112   .     S
C1042  O1080   1.409   .     S
C1042  H1141   1.109   .     S
C1043  O1081   1.410   .     S
C1043  H1064   1.113   .     S
C1043  H1065   1.109   .     S
C1043  H1066   1.113   .     S
C1044  H1068   1.109   .     S
C1044  H1067   1.114   .     S
C1044  H1069   1.111   .     S
C1044  O1082   1.412   .     S
C1045  H1075   1.080   .     S
C1045  C1047   1.401   .     A
C1046  O1090   1.376   .     S
C1047  O1080   1.383   .     S
C1047  C336    1.406   1_556 S
C1048  H1076   1.084   .     S
C1048  C1284   1.376   .     S
C1049  H1052   1.084   .     S
C1050  O1081   1.383   .     S
H1059  C1119   1.108   .     S
N1077  Zn1091  2.035   .     S
N1078  Zn1092  2.035   .     S
O1079  Zn1091  1.992   .     S
O1083  Zn1092  1.992   .     S
O1084  Zn1092  1.990   .     S
O1085  Zn1091  1.990   .     S
O1086  Zn1091  1.961   .     S
O1087  Zn1092  1.961   .     S
O1088  Zn1092  1.925   .     S
O1089  Zn1091  1.925   .     S
C1093  O1157   1.290   .     A
C1093  O1162   1.293   .     A
C1093  C1096   1.415   .     S
C1094  C1096   1.403   .     A
C1094  O1160   1.387   .     S
C1094  C1361   1.380   .     S
C1095  C1104   1.412   .     S
C1095  C1127   1.393   .     A
C1095  C1128   1.402   .     A
C1096  C1126   1.396   .     A
C1097  N1156   1.369   .     A
C1097  H1131   1.082   .     S
C1097  C943    1.425   1_655 S
C1098  H1132   1.082   .     S
C1098  N1155   1.370   .     A
C1099  N1155   1.370   .     A
C1099  H1133   1.081   .     S
C1100  H1134   1.082   .     S
C1100  N1156   1.371   .     A
C1100  C942    1.425   1_655 S
C1101  O1164   1.305   .     A
C1101  C1103   1.460   .     S
C1101  O1166   1.301   .     A
C1102  O1165   1.301   .     A
C1102  C1105   1.455   .     S
C1102  O1167   1.302   .     A
C1103  C1110   1.395   .     A
C1103  C1108   1.400   .     A
C1104  O1161   1.290   .     A
C1104  O1163   1.291   .     A
C1105  C1111   1.385   .     A
C1105  C1109   1.395   .     A
C1106  H1150   1.077   .     S
C1106  C1108   1.395   .     A
C1106  C1114   1.404   .     A
C1107  H1151   1.077   .     S
C1107  C1116   1.397   .     A
C1107  C1109   1.399   .     A
C1108  H1149   1.083   .     S
C1109  H1148   1.078   .     S
C1110  C1112   1.389   .     A
C1110  H1140   1.079   .     S
C1111  C1113   1.394   .     A
C1111  H1129   1.083   .     S
C1112  C1117   1.409   .     A
C1112  C1114   1.416   .     A
C1113  C1118   1.394   .     A
C1113  C1116   1.409   .     A
C1114  C422    1.402   1_556 S
C1115  C1118   1.402   .     A
C1115  H1152   1.082   .     S
C1115  C1124   1.388   .     A
C1117  C1123   1.414   .     A
C1117  C416    1.404   1_556 S
C1119  H1136   1.115   .     S
C1119  O1168   1.419   .     S
C1119  H1135   1.112   .     S
C1120  H1139   1.114   .     S
C1120  H1138   1.112   .     S
C1120  O1158   1.409   .     S
C1120  H985    1.109   1_655 S
C1121  O1159   1.410   .     S
C1121  H1142   1.113   .     S
C1121  H1143   1.109   .     S
C1121  H1144   1.113   .     S
C1122  H1146   1.109   .     S
C1122  H1145   1.114   .     S
C1122  H1147   1.111   .     S
C1122  O1160   1.412   .     S
C1123  H1153   1.080   .     S
C1123  C1125   1.401   .     A
C1124  O1168   1.376   .     S
C1125  O1158   1.383   .     S
C1125  C414    1.406   1_556 S
C1126  H1154   1.084   .     S
C1126  C1362   1.376   .     S
C1127  H1130   1.084   .     S
C1128  O1159   1.383   .     S
H1137  C963    1.108   1_655 S
N1155  Zn1169  2.035   .     S
N1156  Zn1170  2.035   .     S
O1157  Zn1169  1.992   .     S
O1161  Zn1170  1.992   .     S
O1162  Zn1170  1.990   .     S
O1163  Zn1169  1.990   .     S
O1164  Zn1169  1.961   .     S
O1165  Zn1170  1.961   .     S
O1166  Zn1170  1.925   .     S
O1167  Zn1169  1.925   .     S
C1171  O1235   1.290   .     A
C1171  O1240   1.293   .     A
C1171  C1174   1.415   .     S
C1172  C1174   1.403   .     A
C1172  O1238   1.387   .     S
C1172  C737    1.380   1_565 S
C1173  C1182   1.412   .     S
C1173  C1205   1.393   .     A
C1173  C1206   1.402   .     A
C1174  C1204   1.396   .     A
C1175  N1234   1.369   .     A
C1175  H1209   1.082   .     S
C1175  C1255   1.425   .     S
C1176  H1210   1.082   .     S
C1176  N1233   1.370   .     A
C1176  C1334   1.425   1_455 S
C1177  N1233   1.370   .     A
C1177  H1211   1.081   .     S
C1177  C1331   1.425   1_455 S
C1178  H1212   1.082   .     S
C1178  N1234   1.371   .     A
C1178  C1254   1.425   .     S
C1179  O1242   1.305   .     A
C1179  C1181   1.460   .     S
C1179  O1244   1.301   .     A
C1180  O1243   1.301   .     A
C1180  C1183   1.455   .     S
C1180  O1245   1.302   .     A
C1181  C1188   1.395   .     A
C1181  C1186   1.400   .     A
C1182  O1239   1.290   .     A
C1182  O1241   1.291   .     A
C1183  C1189   1.385   .     A
C1183  C1187   1.395   .     A
C1184  H1228   1.077   .     S
C1184  C1186   1.395   .     A
C1184  C1192   1.404   .     A
C1185  H1229   1.077   .     S
C1185  C1194   1.397   .     A
C1185  C1187   1.399   .     A
C1186  H1227   1.083   .     S
C1187  H1226   1.078   .     S
C1188  C1190   1.389   .     A
C1188  H1218   1.079   .     S
C1189  C1191   1.394   .     A
C1189  H1207   1.083   .     S
C1190  C1195   1.409   .     A
C1190  C1192   1.416   .     A
C1191  C1196   1.394   .     A
C1191  C1194   1.409   .     A
C1192  C500    1.402   1_556 S
C1193  C1196   1.402   .     A
C1193  H1230   1.082   .     S
C1193  C1202   1.388   .     A
C1195  C1201   1.414   .     A
C1195  C494    1.404   1_556 S
C1197  H1214   1.115   .     S
C1197  O1246   1.419   .     S
C1197  H1213   1.112   .     S
C1197  H1371   1.108   1_455 S
C1198  H1217   1.114   .     S
C1198  H1216   1.112   .     S
C1198  O1236   1.409   .     S
C1198  H1297   1.109   .     S
C1199  O1237   1.410   .     S
C1199  H1220   1.113   .     S
C1199  H1221   1.109   .     S
C1199  H1222   1.113   .     S
C1200  H1224   1.109   .     S
C1200  H1223   1.114   .     S
C1200  H1225   1.111   .     S
C1200  O1238   1.412   .     S
C1201  H1231   1.080   .     S
C1201  C1203   1.401   .     A
C1202  O1246   1.376   .     S
C1203  O1236   1.383   .     S
C1203  C492    1.406   1_556 S
C1204  H1232   1.084   .     S
C1204  C738    1.376   1_565 S
C1205  H1208   1.084   .     S
C1206  O1237   1.383   .     S
H1215  C1275   1.108   .     S
H1219  C1354   1.109   1_455 S
N1233  Zn1247  2.035   .     S
N1234  Zn1248  2.035   .     S
O1235  Zn1247  1.992   .     S
O1239  Zn1248  1.992   .     S
O1240  Zn1248  1.990   .     S
O1241  Zn1247  1.990   .     S
O1242  Zn1247  1.961   .     S
O1243  Zn1248  1.961   .     S
O1244  Zn1248  1.925   .     S
O1245  Zn1247  1.925   .     S
C1249  O1313   1.290   .     A
C1249  O1318   1.293   .     A
C1249  C1252   1.415   .     S
C1250  C1252   1.403   .     A
C1250  O1316   1.387   .     S
C1250  C815    1.380   1_565 S
C1251  C1260   1.412   .     S
C1251  C1283   1.393   .     A
C1251  C1284   1.402   .     A
C1252  C1282   1.396   .     A
C1253  N1312   1.369   .     A
C1253  H1287   1.082   .     S
C1253  C1333   1.425   .     S
C1254  H1288   1.082   .     S
C1254  N1311   1.370   .     A
C1255  N1311   1.370   .     A
C1255  H1289   1.081   .     S
C1256  H1290   1.082   .     S
C1256  N1312   1.371   .     A
C1256  C1332   1.425   .     S
C1257  O1320   1.305   .     A
C1257  C1259   1.460   .     S
C1257  O1322   1.301   .     A
C1258  O1321   1.301   .     A
C1258  C1261   1.455   .     S
C1258  O1323   1.302   .     A
C1259  C1266   1.395   .     A
C1259  C1264   1.400   .     A
C1260  O1317   1.290   .     A
C1260  O1319   1.291   .     A
C1261  C1267   1.385   .     A
C1261  C1265   1.395   .     A
C1262  H1306   1.077   .     S
C1262  C1264   1.395   .     A
C1262  C1270   1.404   .     A
C1263  H1307   1.077   .     S
C1263  C1272   1.397   .     A
C1263  C1265   1.399   .     A
C1264  H1305   1.083   .     S
C1265  H1304   1.078   .     S
C1266  C1268   1.389   .     A
C1266  H1296   1.079   .     S
C1267  C1269   1.394   .     A
C1267  H1285   1.083   .     S
C1268  C1273   1.409   .     A
C1268  C1270   1.416   .     A
C1269  C1274   1.394   .     A
C1269  C1272   1.409   .     A
C1270  C578    1.402   1_556 S
C1271  C1274   1.402   .     A
C1271  H1308   1.082   .     S
C1271  C1280   1.388   .     A
C1273  C1279   1.414   .     A
C1273  C572    1.404   1_556 S
C1275  H1292   1.115   .     S
C1275  O1324   1.419   .     S
C1275  H1291   1.112   .     S
C1276  H1295   1.114   .     S
C1276  H1294   1.112   .     S
C1276  O1314   1.409   .     S
C1276  H1375   1.109   .     S
C1277  O1315   1.410   .     S
C1277  H1298   1.113   .     S
C1277  H1299   1.109   .     S
C1277  H1300   1.113   .     S
C1278  H1302   1.109   .     S
C1278  H1301   1.114   .     S
C1278  H1303   1.111   .     S
C1278  O1316   1.412   .     S
C1279  H1309   1.080   .     S
C1279  C1281   1.401   .     A
C1280  O1324   1.376   .     S
C1281  O1314   1.383   .     S
C1281  C570    1.406   1_556 S
C1282  H1310   1.084   .     S
C1282  C816    1.376   1_565 S
C1283  H1286   1.084   .     S
C1284  O1315   1.383   .     S
H1293  C1353   1.108   .     S
N1311  Zn1325  2.035   .     S
N1312  Zn1326  2.035   .     S
O1313  Zn1325  1.992   .     S
O1317  Zn1326  1.992   .     S
O1318  Zn1326  1.990   .     S
O1319  Zn1325  1.990   .     S
O1320  Zn1325  1.961   .     S
O1321  Zn1326  1.961   .     S
O1322  Zn1326  1.925   .     S
O1323  Zn1325  1.925   .     S
C1327  O1391   1.290   .     A
C1327  O1396   1.293   .     A
C1327  C1330   1.415   .     S
C1328  C1330   1.403   .     A
C1328  O1394   1.387   .     S
C1328  C893    1.380   1_565 S
C1329  C1338   1.412   .     S
C1329  C1361   1.393   .     A
C1329  C1362   1.402   .     A
C1330  C1360   1.396   .     A
C1331  N1390   1.369   .     A
C1331  H1365   1.082   .     S
C1331  C1177   1.425   1_655 S
C1332  H1366   1.082   .     S
C1332  N1389   1.370   .     A
C1333  N1389   1.370   .     A
C1333  H1367   1.081   .     S
C1334  H1368   1.082   .     S
C1334  N1390   1.371   .     A
C1334  C1176   1.425   1_655 S
C1335  O1398   1.305   .     A
C1335  C1337   1.460   .     S
C1335  O1400   1.301   .     A
C1336  O1399   1.301   .     A
C1336  C1339   1.455   .     S
C1336  O1401   1.302   .     A
C1337  C1344   1.395   .     A
C1337  C1342   1.400   .     A
C1338  O1395   1.290   .     A
C1338  O1397   1.291   .     A
C1339  C1345   1.385   .     A
C1339  C1343   1.395   .     A
C1340  H1384   1.077   .     S
C1340  C1342   1.395   .     A
C1340  C1348   1.404   .     A
C1341  H1385   1.077   .     S
C1341  C1350   1.397   .     A
C1341  C1343   1.399   .     A
C1342  H1383   1.083   .     S
C1343  H1382   1.078   .     S
C1344  C1346   1.389   .     A
C1344  H1374   1.079   .     S
C1345  C1347   1.394   .     A
C1345  H1363   1.083   .     S
C1346  C1351   1.409   .     A
C1346  C1348   1.416   .     A
C1347  C1352   1.394   .     A
C1347  C1350   1.409   .     A
C1348  C656    1.402   1_556 S
C1349  C1352   1.402   .     A
C1349  H1386   1.082   .     S
C1349  C1358   1.388   .     A
C1351  C1357   1.414   .     A
C1351  C650    1.404   1_556 S
C1353  H1370   1.115   .     S
C1353  O1402   1.419   .     S
C1353  H1369   1.112   .     S
C1354  H1373   1.114   .     S
C1354  H1372   1.112   .     S
C1354  O1392   1.409   .     S
C1354  H1219   1.109   1_655 S
C1355  O1393   1.410   .     S
C1355  H1376   1.113   .     S
C1355  H1377   1.109   .     S
C1355  H1378   1.113   .     S
C1356  H1380   1.109   .     S
C1356  H1379   1.114   .     S
C1356  H1381   1.111   .     S
C1356  O1394   1.412   .     S
C1357  H1387   1.080   .     S
C1357  C1359   1.401   .     A
C1358  O1402   1.376   .     S
C1359  O1392   1.383   .     S
C1359  C648    1.406   1_556 S
C1360  H1388   1.084   .     S
C1360  C894    1.376   1_565 S
C1361  H1364   1.084   .     S
C1362  O1393   1.383   .     S
H1371  C1197   1.108   1_655 S
N1389  Zn1403  2.035   .     S
N1390  Zn1404  2.035   .     S
O1391  Zn1403  1.992   .     S
O1395  Zn1404  1.992   .     S
O1396  Zn1404  1.990   .     S
O1397  Zn1403  1.990   .     S
O1398  Zn1403  1.961   .     S
O1399  Zn1404  1.961   .     S
O1400  Zn1404  1.925   .     S
O1401  Zn1403  1.925   .     S
