data_str_m3_o5_o17_pcu_sym.31
_audit_creation_date              2020-01-03
_audit_creation_method            'Materials Studio'
_symmetry_space_group_name_H-M    'P1'
_symmetry_Int_Tables_number       1
_symmetry_cell_setting            triclinic
loop_
_symmetry_equiv_pos_as_xyz
  x,y,z
_cell_length_a                    29.9294
_cell_length_b                    27.4032
_cell_length_c                    24.3214
_cell_angle_alpha                 90.0000
_cell_angle_beta                  89.9999
_cell_angle_gamma                 90.2536
loop_
_atom_site_label
_atom_site_type_symbol
_atom_site_fract_x
_atom_site_fract_y
_atom_site_fract_z
_atom_site_U_iso_or_equiv
_atom_site_adp_type
_atom_site_occupancy
O1     O     0.25000   0.09512   0.21228   0.00000  Uiso   1.00
O2     O     0.25000   0.23822   0.12105   0.00000  Uiso   1.00
O3     O     0.25000   0.23822   0.21228   0.00000  Uiso   1.00
O4     O     0.25000   0.09512   0.12105   0.00000  Uiso   1.00
C5     C     0.24992   0.07255   0.16667   0.00000  Uiso   1.00
C6     C     0.25008   0.26079   0.16667   0.00000  Uiso   1.00
O7     O     0.18393   0.16667   0.21230   0.00000  Uiso   1.00
O8     O     0.31608   0.16667   0.12104   0.00000  Uiso   1.00
O9     O     0.31608   0.16667   0.21230   0.00000  Uiso   1.00
O10    O     0.18393   0.16667   0.12104   0.00000  Uiso   1.00
C11    C     0.16343   0.16666   0.16666   0.00000  Uiso   1.00
C12    C     0.33657   0.16667   0.16666   0.00000  Uiso   1.00
Zn13   Zn    0.25000   0.16667   0.22759   0.00000  Uiso   1.00
Zn14   Zn    0.25000   0.16667   0.10574   0.00000  Uiso   1.00
N15    N     0.25000   0.16667   0.02455   0.00000  Uiso   1.00
N16    N     0.25000   0.16667   0.30879   0.00000  Uiso   1.00
C17    C     0.40635   0.21048   0.16473   0.00000  Uiso   1.00
C18    C     0.09365   0.12286   0.16473   0.00000  Uiso   1.00
C19    C     0.40675   0.12102   0.16499   0.00000  Uiso   1.00
C20    C     0.09325   0.21231   0.16499   0.00000  Uiso   1.00
C21    C     0.38408   0.16578   0.16653   0.00000  Uiso   1.00
C22    C     0.11592   0.16756   0.16653   0.00000  Uiso   1.00
C23    C     0.45331   0.12178   0.16091   0.00000  Uiso   1.00
C24    C     0.04669   0.21155   0.16091   0.00000  Uiso   1.00
C25    C     0.45320   0.21100   0.16587   0.00000  Uiso   1.00
C26    C     0.04680   0.12233   0.16587   0.00000  Uiso   1.00
C27    C     0.47655   0.16655   0.16295   0.00000  Uiso   1.00
C28    C     0.02345   0.16678   0.16295   0.00000  Uiso   1.00
C29    C     0.47739   0.07837   0.15728   0.00000  Uiso   1.00
C30    C     0.02261   0.25496   0.15728   0.00000  Uiso   1.00
C31    C     0.47728   0.25462   0.17053   0.00000  Uiso   1.00
C32    C     0.02272   0.07871   0.17053   0.00000  Uiso   1.00
C33    C     0.24997   0.02159   0.16667   0.00000  Uiso   1.00
C34    C     0.25003   0.31175   0.16667   0.00000  Uiso   1.00
Cl35   Cl    0.45668   0.03240   0.11331   0.00000  Uiso   1.00
Cl36   Cl    0.04333   0.30094   0.11331   0.00000  Uiso   1.00
Cl37   Cl    0.45723   0.29880   0.21709   0.00000  Uiso   1.00
Cl38   Cl    0.04277   0.03453   0.21710   0.00000  Uiso   1.00
O39    O     0.38120   0.25248   0.15944   0.00000  Uiso   1.00
H40    H     0.39831   0.27630   0.13709   0.00000  Uiso   1.00
O41    O     0.11880   0.08085   0.15944   0.00000  Uiso   1.00
H42    H     0.10169   0.05704   0.13709   0.00000  Uiso   1.00
O43    O     0.38499   0.07640   0.16999   0.00000  Uiso   1.00
H44    H     0.35270   0.08072   0.17669   0.00000  Uiso   1.00
O45    O     0.11501   0.25693   0.16999   0.00000  Uiso   1.00
H46    H     0.14730   0.25262   0.17670   0.00000  Uiso   1.00
O47    O     0.75000   0.09512   0.21228   0.00000  Uiso   1.00
O48    O     0.75000   0.23822   0.12105   0.00000  Uiso   1.00
O49    O     0.75000   0.23822   0.21228   0.00000  Uiso   1.00
O50    O     0.75000   0.09512   0.12105   0.00000  Uiso   1.00
C51    C     0.74992   0.07255   0.16667   0.00000  Uiso   1.00
C52    C     0.75008   0.26079   0.16667   0.00000  Uiso   1.00
O53    O     0.68393   0.16667   0.21230   0.00000  Uiso   1.00
O54    O     0.81608   0.16667   0.12104   0.00000  Uiso   1.00
O55    O     0.81608   0.16667   0.21230   0.00000  Uiso   1.00
O56    O     0.68393   0.16667   0.12104   0.00000  Uiso   1.00
C57    C     0.66343   0.16666   0.16666   0.00000  Uiso   1.00
C58    C     0.83657   0.16667   0.16666   0.00000  Uiso   1.00
Zn59   Zn    0.75000   0.16667   0.22759   0.00000  Uiso   1.00
Zn60   Zn    0.75000   0.16667   0.10574   0.00000  Uiso   1.00
N61    N     0.75000   0.16667   0.02455   0.00000  Uiso   1.00
N62    N     0.75000   0.16667   0.30879   0.00000  Uiso   1.00
C63    C     0.90635   0.21048   0.16473   0.00000  Uiso   1.00
C64    C     0.59365   0.12286   0.16473   0.00000  Uiso   1.00
C65    C     0.90675   0.12102   0.16499   0.00000  Uiso   1.00
C66    C     0.59325   0.21231   0.16499   0.00000  Uiso   1.00
C67    C     0.88408   0.16578   0.16653   0.00000  Uiso   1.00
C68    C     0.61592   0.16756   0.16653   0.00000  Uiso   1.00
C69    C     0.95331   0.12178   0.16091   0.00000  Uiso   1.00
C70    C     0.54669   0.21155   0.16091   0.00000  Uiso   1.00
C71    C     0.95320   0.21100   0.16587   0.00000  Uiso   1.00
C72    C     0.54680   0.12233   0.16587   0.00000  Uiso   1.00
C73    C     0.97655   0.16655   0.16295   0.00000  Uiso   1.00
C74    C     0.52345   0.16678   0.16295   0.00000  Uiso   1.00
C75    C     0.97739   0.07837   0.15728   0.00000  Uiso   1.00
C76    C     0.52261   0.25496   0.15728   0.00000  Uiso   1.00
C77    C     0.97728   0.25462   0.17053   0.00000  Uiso   1.00
C78    C     0.52272   0.07871   0.17053   0.00000  Uiso   1.00
C79    C     0.74997   0.02159   0.16667   0.00000  Uiso   1.00
C80    C     0.75003   0.31175   0.16667   0.00000  Uiso   1.00
Cl81   Cl    0.95668   0.03240   0.11331   0.00000  Uiso   1.00
Cl82   Cl    0.54333   0.30094   0.11331   0.00000  Uiso   1.00
Cl83   Cl    0.95723   0.29880   0.21709   0.00000  Uiso   1.00
Cl84   Cl    0.54277   0.03453   0.21710   0.00000  Uiso   1.00
O85    O     0.88120   0.25248   0.15944   0.00000  Uiso   1.00
H86    H     0.89831   0.27630   0.13709   0.00000  Uiso   1.00
O87    O     0.61880   0.08085   0.15944   0.00000  Uiso   1.00
H88    H     0.60169   0.05704   0.13709   0.00000  Uiso   1.00
O89    O     0.88499   0.07640   0.16999   0.00000  Uiso   1.00
H90    H     0.85270   0.08072   0.17669   0.00000  Uiso   1.00
O91    O     0.61501   0.25693   0.16999   0.00000  Uiso   1.00
H92    H     0.64730   0.25262   0.17670   0.00000  Uiso   1.00
O93    O     0.25000   0.42845   0.21228   0.00000  Uiso   1.00
O94    O     0.25000   0.57155   0.12105   0.00000  Uiso   1.00
O95    O     0.25000   0.57155   0.21228   0.00000  Uiso   1.00
O96    O     0.25000   0.42845   0.12105   0.00000  Uiso   1.00
C97    C     0.24992   0.40588   0.16667   0.00000  Uiso   1.00
C98    C     0.25008   0.59412   0.16667   0.00000  Uiso   1.00
O99    O     0.18393   0.50000   0.21230   0.00000  Uiso   1.00
O100   O     0.31608   0.50000   0.12104   0.00000  Uiso   1.00
O101   O     0.31608   0.50000   0.21230   0.00000  Uiso   1.00
O102   O     0.18393   0.50000   0.12104   0.00000  Uiso   1.00
C103   C     0.16343   0.50000   0.16666   0.00000  Uiso   1.00
C104   C     0.33657   0.50000   0.16666   0.00000  Uiso   1.00
Zn105  Zn    0.25000   0.50000   0.22759   0.00000  Uiso   1.00
Zn106  Zn    0.25000   0.50000   0.10574   0.00000  Uiso   1.00
N107   N     0.25000   0.50000   0.02455   0.00000  Uiso   1.00
N108   N     0.25000   0.50000   0.30879   0.00000  Uiso   1.00
C109   C     0.40635   0.54381   0.16473   0.00000  Uiso   1.00
C110   C     0.09365   0.45619   0.16473   0.00000  Uiso   1.00
C111   C     0.40675   0.45435   0.16499   0.00000  Uiso   1.00
C112   C     0.09325   0.54565   0.16499   0.00000  Uiso   1.00
C113   C     0.38408   0.49911   0.16653   0.00000  Uiso   1.00
C114   C     0.11592   0.50089   0.16653   0.00000  Uiso   1.00
C115   C     0.45331   0.45511   0.16091   0.00000  Uiso   1.00
C116   C     0.04669   0.54489   0.16091   0.00000  Uiso   1.00
C117   C     0.45320   0.54434   0.16587   0.00000  Uiso   1.00
C118   C     0.04680   0.45566   0.16587   0.00000  Uiso   1.00
C119   C     0.47655   0.49988   0.16295   0.00000  Uiso   1.00
C120   C     0.02345   0.50012   0.16295   0.00000  Uiso   1.00
C121   C     0.47739   0.41171   0.15728   0.00000  Uiso   1.00
C122   C     0.02261   0.58829   0.15728   0.00000  Uiso   1.00
C123   C     0.47728   0.58795   0.17053   0.00000  Uiso   1.00
C124   C     0.02272   0.41205   0.17053   0.00000  Uiso   1.00
C125   C     0.24997   0.35492   0.16667   0.00000  Uiso   1.00
C126   C     0.25003   0.64508   0.16667   0.00000  Uiso   1.00
Cl127  Cl    0.45668   0.36573   0.11331   0.00000  Uiso   1.00
Cl128  Cl    0.04333   0.63427   0.11331   0.00000  Uiso   1.00
Cl129  Cl    0.45723   0.63214   0.21709   0.00000  Uiso   1.00
Cl130  Cl    0.04277   0.36786   0.21710   0.00000  Uiso   1.00
O131   O     0.38120   0.58581   0.15944   0.00000  Uiso   1.00
H132   H     0.39831   0.60963   0.13709   0.00000  Uiso   1.00
O133   O     0.11880   0.41419   0.15944   0.00000  Uiso   1.00
H134   H     0.10169   0.39037   0.13709   0.00000  Uiso   1.00
O135   O     0.38499   0.40973   0.16999   0.00000  Uiso   1.00
H136   H     0.35270   0.41405   0.17669   0.00000  Uiso   1.00
O137   O     0.11501   0.59027   0.16999   0.00000  Uiso   1.00
H138   H     0.14730   0.58595   0.17670   0.00000  Uiso   1.00
O139   O     0.75000   0.42845   0.21228   0.00000  Uiso   1.00
O140   O     0.75000   0.57155   0.12105   0.00000  Uiso   1.00
O141   O     0.75000   0.57155   0.21228   0.00000  Uiso   1.00
O142   O     0.75000   0.42845   0.12105   0.00000  Uiso   1.00
C143   C     0.74992   0.40588   0.16667   0.00000  Uiso   1.00
C144   C     0.75008   0.59412   0.16667   0.00000  Uiso   1.00
O145   O     0.68393   0.50000   0.21230   0.00000  Uiso   1.00
O146   O     0.81608   0.50000   0.12104   0.00000  Uiso   1.00
O147   O     0.81608   0.50000   0.21230   0.00000  Uiso   1.00
O148   O     0.68393   0.50000   0.12104   0.00000  Uiso   1.00
C149   C     0.66343   0.50000   0.16666   0.00000  Uiso   1.00
C150   C     0.83657   0.50000   0.16666   0.00000  Uiso   1.00
Zn151  Zn    0.75000   0.50000   0.22759   0.00000  Uiso   1.00
Zn152  Zn    0.75000   0.50000   0.10574   0.00000  Uiso   1.00
N153   N     0.75000   0.50000   0.02455   0.00000  Uiso   1.00
N154   N     0.75000   0.50000   0.30879   0.00000  Uiso   1.00
C155   C     0.90635   0.54381   0.16473   0.00000  Uiso   1.00
C156   C     0.59365   0.45619   0.16473   0.00000  Uiso   1.00
C157   C     0.90675   0.45435   0.16499   0.00000  Uiso   1.00
C158   C     0.59325   0.54565   0.16499   0.00000  Uiso   1.00
C159   C     0.88408   0.49911   0.16653   0.00000  Uiso   1.00
C160   C     0.61592   0.50089   0.16653   0.00000  Uiso   1.00
C161   C     0.95331   0.45511   0.16091   0.00000  Uiso   1.00
C162   C     0.54669   0.54489   0.16091   0.00000  Uiso   1.00
C163   C     0.95320   0.54434   0.16587   0.00000  Uiso   1.00
C164   C     0.54680   0.45566   0.16587   0.00000  Uiso   1.00
C165   C     0.97655   0.49988   0.16295   0.00000  Uiso   1.00
C166   C     0.52345   0.50012   0.16295   0.00000  Uiso   1.00
C167   C     0.97739   0.41171   0.15728   0.00000  Uiso   1.00
C168   C     0.52261   0.58829   0.15728   0.00000  Uiso   1.00
C169   C     0.97728   0.58795   0.17053   0.00000  Uiso   1.00
C170   C     0.52272   0.41205   0.17053   0.00000  Uiso   1.00
C171   C     0.74997   0.35492   0.16667   0.00000  Uiso   1.00
C172   C     0.75003   0.64508   0.16667   0.00000  Uiso   1.00
Cl173  Cl    0.95668   0.36573   0.11331   0.00000  Uiso   1.00
Cl174  Cl    0.54333   0.63427   0.11331   0.00000  Uiso   1.00
Cl175  Cl    0.95723   0.63214   0.21709   0.00000  Uiso   1.00
Cl176  Cl    0.54277   0.36786   0.21710   0.00000  Uiso   1.00
O177   O     0.88120   0.58581   0.15944   0.00000  Uiso   1.00
H178   H     0.89831   0.60963   0.13709   0.00000  Uiso   1.00
O179   O     0.61880   0.41419   0.15944   0.00000  Uiso   1.00
H180   H     0.60169   0.39037   0.13709   0.00000  Uiso   1.00
O181   O     0.88499   0.40973   0.16999   0.00000  Uiso   1.00
H182   H     0.85270   0.41405   0.17669   0.00000  Uiso   1.00
O183   O     0.61501   0.59027   0.16999   0.00000  Uiso   1.00
H184   H     0.64730   0.58595   0.17670   0.00000  Uiso   1.00
O185   O     0.25000   0.76178   0.21228   0.00000  Uiso   1.00
O186   O     0.25000   0.90488   0.12105   0.00000  Uiso   1.00
O187   O     0.25000   0.90488   0.21228   0.00000  Uiso   1.00
O188   O     0.25000   0.76178   0.12105   0.00000  Uiso   1.00
C189   C     0.24992   0.73921   0.16667   0.00000  Uiso   1.00
C190   C     0.25008   0.92745   0.16667   0.00000  Uiso   1.00
O191   O     0.18393   0.83333   0.21230   0.00000  Uiso   1.00
O192   O     0.31608   0.83333   0.12104   0.00000  Uiso   1.00
O193   O     0.31608   0.83333   0.21230   0.00000  Uiso   1.00
O194   O     0.18393   0.83333   0.12104   0.00000  Uiso   1.00
C195   C     0.16343   0.83333   0.16666   0.00000  Uiso   1.00
C196   C     0.33657   0.83334   0.16666   0.00000  Uiso   1.00
Zn197  Zn    0.25000   0.83333   0.22759   0.00000  Uiso   1.00
Zn198  Zn    0.25000   0.83333   0.10574   0.00000  Uiso   1.00
N199   N     0.25000   0.83333   0.02455   0.00000  Uiso   1.00
N200   N     0.25000   0.83333   0.30879   0.00000  Uiso   1.00
C201   C     0.40635   0.87714   0.16473   0.00000  Uiso   1.00
C202   C     0.09365   0.78952   0.16473   0.00000  Uiso   1.00
C203   C     0.40675   0.78769   0.16499   0.00000  Uiso   1.00
C204   C     0.09325   0.87898   0.16499   0.00000  Uiso   1.00
C205   C     0.38408   0.83244   0.16653   0.00000  Uiso   1.00
C206   C     0.11592   0.83422   0.16653   0.00000  Uiso   1.00
C207   C     0.45331   0.78845   0.16091   0.00000  Uiso   1.00
C208   C     0.04669   0.87822   0.16091   0.00000  Uiso   1.00
C209   C     0.45320   0.87767   0.16587   0.00000  Uiso   1.00
C210   C     0.04680   0.78900   0.16587   0.00000  Uiso   1.00
C211   C     0.47655   0.83322   0.16295   0.00000  Uiso   1.00
C212   C     0.02345   0.83345   0.16295   0.00000  Uiso   1.00
C213   C     0.47739   0.74504   0.15728   0.00000  Uiso   1.00
C214   C     0.02261   0.92163   0.15728   0.00000  Uiso   1.00
C215   C     0.47728   0.92129   0.17053   0.00000  Uiso   1.00
C216   C     0.02272   0.74538   0.17053   0.00000  Uiso   1.00
C217   C     0.24997   0.68825   0.16667   0.00000  Uiso   1.00
C218   C     0.25003   0.97841   0.16667   0.00000  Uiso   1.00
Cl219  Cl    0.45668   0.69906   0.11331   0.00000  Uiso   1.00
Cl220  Cl    0.04333   0.96760   0.11331   0.00000  Uiso   1.00
Cl221  Cl    0.45723   0.96547   0.21709   0.00000  Uiso   1.00
Cl222  Cl    0.04277   0.70120   0.21710   0.00000  Uiso   1.00
O223   O     0.38120   0.91915   0.15944   0.00000  Uiso   1.00
H224   H     0.39831   0.94296   0.13709   0.00000  Uiso   1.00
O225   O     0.11880   0.74752   0.15944   0.00000  Uiso   1.00
H226   H     0.10169   0.72370   0.13709   0.00000  Uiso   1.00
O227   O     0.38499   0.74307   0.16999   0.00000  Uiso   1.00
H228   H     0.35270   0.74738   0.17669   0.00000  Uiso   1.00
O229   O     0.11501   0.92360   0.16999   0.00000  Uiso   1.00
H230   H     0.14730   0.91928   0.17670   0.00000  Uiso   1.00
O231   O     0.75000   0.76178   0.21228   0.00000  Uiso   1.00
O232   O     0.75000   0.90488   0.12105   0.00000  Uiso   1.00
O233   O     0.75000   0.90488   0.21228   0.00000  Uiso   1.00
O234   O     0.75000   0.76178   0.12105   0.00000  Uiso   1.00
C235   C     0.74992   0.73921   0.16667   0.00000  Uiso   1.00
C236   C     0.75008   0.92745   0.16667   0.00000  Uiso   1.00
O237   O     0.68393   0.83333   0.21230   0.00000  Uiso   1.00
O238   O     0.81608   0.83333   0.12104   0.00000  Uiso   1.00
O239   O     0.81608   0.83333   0.21230   0.00000  Uiso   1.00
O240   O     0.68393   0.83333   0.12104   0.00000  Uiso   1.00
C241   C     0.66343   0.83333   0.16666   0.00000  Uiso   1.00
C242   C     0.83657   0.83334   0.16666   0.00000  Uiso   1.00
Zn243  Zn    0.75000   0.83333   0.22759   0.00000  Uiso   1.00
Zn244  Zn    0.75000   0.83333   0.10574   0.00000  Uiso   1.00
N245   N     0.75000   0.83333   0.02455   0.00000  Uiso   1.00
N246   N     0.75000   0.83333   0.30879   0.00000  Uiso   1.00
C247   C     0.90635   0.87714   0.16473   0.00000  Uiso   1.00
C248   C     0.59365   0.78952   0.16473   0.00000  Uiso   1.00
C249   C     0.90675   0.78769   0.16499   0.00000  Uiso   1.00
C250   C     0.59325   0.87898   0.16499   0.00000  Uiso   1.00
C251   C     0.88408   0.83244   0.16653   0.00000  Uiso   1.00
C252   C     0.61592   0.83422   0.16653   0.00000  Uiso   1.00
C253   C     0.95331   0.78845   0.16091   0.00000  Uiso   1.00
C254   C     0.54669   0.87822   0.16091   0.00000  Uiso   1.00
C255   C     0.95320   0.87767   0.16587   0.00000  Uiso   1.00
C256   C     0.54680   0.78900   0.16587   0.00000  Uiso   1.00
C257   C     0.97655   0.83322   0.16295   0.00000  Uiso   1.00
C258   C     0.52345   0.83345   0.16295   0.00000  Uiso   1.00
C259   C     0.97739   0.74504   0.15728   0.00000  Uiso   1.00
C260   C     0.52261   0.92163   0.15728   0.00000  Uiso   1.00
C261   C     0.97728   0.92129   0.17053   0.00000  Uiso   1.00
C262   C     0.52272   0.74538   0.17053   0.00000  Uiso   1.00
C263   C     0.74997   0.68825   0.16667   0.00000  Uiso   1.00
C264   C     0.75003   0.97841   0.16667   0.00000  Uiso   1.00
Cl265  Cl    0.95668   0.69906   0.11331   0.00000  Uiso   1.00
Cl266  Cl    0.54333   0.96760   0.11331   0.00000  Uiso   1.00
Cl267  Cl    0.95723   0.96547   0.21709   0.00000  Uiso   1.00
Cl268  Cl    0.54277   0.70120   0.21710   0.00000  Uiso   1.00
O269   O     0.88120   0.91915   0.15944   0.00000  Uiso   1.00
H270   H     0.89831   0.94296   0.13709   0.00000  Uiso   1.00
O271   O     0.61880   0.74752   0.15944   0.00000  Uiso   1.00
H272   H     0.60169   0.72370   0.13709   0.00000  Uiso   1.00
O273   O     0.88499   0.74307   0.16999   0.00000  Uiso   1.00
H274   H     0.85270   0.74738   0.17669   0.00000  Uiso   1.00
O275   O     0.61501   0.92360   0.16999   0.00000  Uiso   1.00
H276   H     0.64730   0.91928   0.17670   0.00000  Uiso   1.00
O277   O     0.25000   0.09512   0.54562   0.00000  Uiso   1.00
O278   O     0.25000   0.23822   0.45438   0.00000  Uiso   1.00
O279   O     0.25000   0.23822   0.54562   0.00000  Uiso   1.00
O280   O     0.25000   0.09512   0.45438   0.00000  Uiso   1.00
C281   C     0.24992   0.07255   0.50000   0.00000  Uiso   1.00
C282   C     0.25008   0.26079   0.50000   0.00000  Uiso   1.00
O283   O     0.18393   0.16667   0.54563   0.00000  Uiso   1.00
O284   O     0.31608   0.16667   0.45437   0.00000  Uiso   1.00
O285   O     0.31608   0.16667   0.54563   0.00000  Uiso   1.00
O286   O     0.18393   0.16667   0.45437   0.00000  Uiso   1.00
C287   C     0.16343   0.16666   0.49999   0.00000  Uiso   1.00
C288   C     0.33657   0.16667   0.49999   0.00000  Uiso   1.00
Zn289  Zn    0.25000   0.16667   0.56093   0.00000  Uiso   1.00
Zn290  Zn    0.25000   0.16667   0.43907   0.00000  Uiso   1.00
N291   N     0.25000   0.16667   0.35788   0.00000  Uiso   1.00
N292   N     0.25000   0.16667   0.64212   0.00000  Uiso   1.00
C293   C     0.40635   0.21048   0.49807   0.00000  Uiso   1.00
C294   C     0.09365   0.12286   0.49807   0.00000  Uiso   1.00
C295   C     0.40675   0.12102   0.49832   0.00000  Uiso   1.00
C296   C     0.09325   0.21231   0.49832   0.00000  Uiso   1.00
C297   C     0.38408   0.16578   0.49986   0.00000  Uiso   1.00
C298   C     0.11592   0.16756   0.49986   0.00000  Uiso   1.00
C299   C     0.45331   0.12178   0.49424   0.00000  Uiso   1.00
C300   C     0.04669   0.21155   0.49424   0.00000  Uiso   1.00
C301   C     0.45320   0.21100   0.49920   0.00000  Uiso   1.00
C302   C     0.04680   0.12233   0.49920   0.00000  Uiso   1.00
C303   C     0.47655   0.16655   0.49629   0.00000  Uiso   1.00
C304   C     0.02345   0.16678   0.49629   0.00000  Uiso   1.00
C305   C     0.47739   0.07837   0.49061   0.00000  Uiso   1.00
C306   C     0.02261   0.25496   0.49061   0.00000  Uiso   1.00
C307   C     0.47728   0.25462   0.50386   0.00000  Uiso   1.00
C308   C     0.02272   0.07871   0.50386   0.00000  Uiso   1.00
C309   C     0.24997   0.02159   0.50000   0.00000  Uiso   1.00
C310   C     0.25003   0.31175   0.50000   0.00000  Uiso   1.00
Cl311  Cl    0.45668   0.03240   0.44664   0.00000  Uiso   1.00
Cl312  Cl    0.04333   0.30094   0.44664   0.00000  Uiso   1.00
Cl313  Cl    0.45723   0.29880   0.55043   0.00000  Uiso   1.00
Cl314  Cl    0.04277   0.03453   0.55043   0.00000  Uiso   1.00
O315   O     0.38120   0.25248   0.49277   0.00000  Uiso   1.00
H316   H     0.39831   0.27630   0.47042   0.00000  Uiso   1.00
O317   O     0.11880   0.08085   0.49277   0.00000  Uiso   1.00
H318   H     0.10169   0.05704   0.47042   0.00000  Uiso   1.00
O319   O     0.38499   0.07640   0.50333   0.00000  Uiso   1.00
H320   H     0.35270   0.08072   0.51003   0.00000  Uiso   1.00
O321   O     0.11501   0.25693   0.50333   0.00000  Uiso   1.00
H322   H     0.14730   0.25262   0.51003   0.00000  Uiso   1.00
O323   O     0.75000   0.09512   0.54562   0.00000  Uiso   1.00
O324   O     0.75000   0.23822   0.45438   0.00000  Uiso   1.00
O325   O     0.75000   0.23822   0.54562   0.00000  Uiso   1.00
O326   O     0.75000   0.09512   0.45438   0.00000  Uiso   1.00
C327   C     0.74992   0.07255   0.50000   0.00000  Uiso   1.00
C328   C     0.75008   0.26079   0.50000   0.00000  Uiso   1.00
O329   O     0.68393   0.16667   0.54563   0.00000  Uiso   1.00
O330   O     0.81608   0.16667   0.45437   0.00000  Uiso   1.00
O331   O     0.81608   0.16667   0.54563   0.00000  Uiso   1.00
O332   O     0.68393   0.16667   0.45437   0.00000  Uiso   1.00
C333   C     0.66343   0.16666   0.49999   0.00000  Uiso   1.00
C334   C     0.83657   0.16667   0.49999   0.00000  Uiso   1.00
Zn335  Zn    0.75000   0.16667   0.56093   0.00000  Uiso   1.00
Zn336  Zn    0.75000   0.16667   0.43907   0.00000  Uiso   1.00
N337   N     0.75000   0.16667   0.35788   0.00000  Uiso   1.00
N338   N     0.75000   0.16667   0.64212   0.00000  Uiso   1.00
C339   C     0.90635   0.21048   0.49807   0.00000  Uiso   1.00
C340   C     0.59365   0.12286   0.49807   0.00000  Uiso   1.00
C341   C     0.90675   0.12102   0.49832   0.00000  Uiso   1.00
C342   C     0.59325   0.21231   0.49832   0.00000  Uiso   1.00
C343   C     0.88408   0.16578   0.49986   0.00000  Uiso   1.00
C344   C     0.61592   0.16756   0.49986   0.00000  Uiso   1.00
C345   C     0.95331   0.12178   0.49424   0.00000  Uiso   1.00
C346   C     0.54669   0.21155   0.49424   0.00000  Uiso   1.00
C347   C     0.95320   0.21100   0.49920   0.00000  Uiso   1.00
C348   C     0.54680   0.12233   0.49920   0.00000  Uiso   1.00
C349   C     0.97655   0.16655   0.49629   0.00000  Uiso   1.00
C350   C     0.52345   0.16678   0.49629   0.00000  Uiso   1.00
C351   C     0.97739   0.07837   0.49061   0.00000  Uiso   1.00
C352   C     0.52261   0.25496   0.49061   0.00000  Uiso   1.00
C353   C     0.97728   0.25462   0.50386   0.00000  Uiso   1.00
C354   C     0.52272   0.07871   0.50386   0.00000  Uiso   1.00
C355   C     0.74997   0.02159   0.50000   0.00000  Uiso   1.00
C356   C     0.75003   0.31175   0.50000   0.00000  Uiso   1.00
Cl357  Cl    0.95668   0.03240   0.44664   0.00000  Uiso   1.00
Cl358  Cl    0.54333   0.30094   0.44664   0.00000  Uiso   1.00
Cl359  Cl    0.95723   0.29880   0.55043   0.00000  Uiso   1.00
Cl360  Cl    0.54277   0.03453   0.55043   0.00000  Uiso   1.00
O361   O     0.88120   0.25248   0.49277   0.00000  Uiso   1.00
H362   H     0.89831   0.27630   0.47042   0.00000  Uiso   1.00
O363   O     0.61880   0.08085   0.49277   0.00000  Uiso   1.00
H364   H     0.60169   0.05704   0.47042   0.00000  Uiso   1.00
O365   O     0.88499   0.07640   0.50333   0.00000  Uiso   1.00
H366   H     0.85270   0.08072   0.51003   0.00000  Uiso   1.00
O367   O     0.61501   0.25693   0.50333   0.00000  Uiso   1.00
H368   H     0.64730   0.25262   0.51003   0.00000  Uiso   1.00
O369   O     0.25000   0.42845   0.54562   0.00000  Uiso   1.00
O370   O     0.25000   0.57155   0.45438   0.00000  Uiso   1.00
O371   O     0.25000   0.57155   0.54562   0.00000  Uiso   1.00
O372   O     0.25000   0.42845   0.45438   0.00000  Uiso   1.00
C373   C     0.24992   0.40588   0.50000   0.00000  Uiso   1.00
C374   C     0.25008   0.59412   0.50000   0.00000  Uiso   1.00
O375   O     0.18393   0.50000   0.54563   0.00000  Uiso   1.00
O376   O     0.31608   0.50000   0.45437   0.00000  Uiso   1.00
O377   O     0.31608   0.50000   0.54563   0.00000  Uiso   1.00
O378   O     0.18393   0.50000   0.45437   0.00000  Uiso   1.00
C379   C     0.16343   0.50000   0.49999   0.00000  Uiso   1.00
C380   C     0.33657   0.50000   0.49999   0.00000  Uiso   1.00
Zn381  Zn    0.25000   0.50000   0.56093   0.00000  Uiso   1.00
Zn382  Zn    0.25000   0.50000   0.43907   0.00000  Uiso   1.00
N383   N     0.25000   0.50000   0.35788   0.00000  Uiso   1.00
N384   N     0.25000   0.50000   0.64212   0.00000  Uiso   1.00
C385   C     0.40635   0.54381   0.49807   0.00000  Uiso   1.00
C386   C     0.09365   0.45619   0.49807   0.00000  Uiso   1.00
C387   C     0.40675   0.45435   0.49832   0.00000  Uiso   1.00
C388   C     0.09325   0.54565   0.49832   0.00000  Uiso   1.00
C389   C     0.38408   0.49911   0.49986   0.00000  Uiso   1.00
C390   C     0.11592   0.50089   0.49986   0.00000  Uiso   1.00
C391   C     0.45331   0.45511   0.49424   0.00000  Uiso   1.00
C392   C     0.04669   0.54489   0.49424   0.00000  Uiso   1.00
C393   C     0.45320   0.54434   0.49920   0.00000  Uiso   1.00
C394   C     0.04680   0.45566   0.49920   0.00000  Uiso   1.00
C395   C     0.47655   0.49988   0.49629   0.00000  Uiso   1.00
C396   C     0.02345   0.50012   0.49629   0.00000  Uiso   1.00
C397   C     0.47739   0.41171   0.49061   0.00000  Uiso   1.00
C398   C     0.02261   0.58829   0.49061   0.00000  Uiso   1.00
C399   C     0.47728   0.58795   0.50386   0.00000  Uiso   1.00
C400   C     0.02272   0.41205   0.50386   0.00000  Uiso   1.00
C401   C     0.24997   0.35492   0.50000   0.00000  Uiso   1.00
C402   C     0.25003   0.64508   0.50000   0.00000  Uiso   1.00
Cl403  Cl    0.45668   0.36573   0.44664   0.00000  Uiso   1.00
Cl404  Cl    0.04333   0.63427   0.44664   0.00000  Uiso   1.00
Cl405  Cl    0.45723   0.63214   0.55043   0.00000  Uiso   1.00
Cl406  Cl    0.04277   0.36786   0.55043   0.00000  Uiso   1.00
O407   O     0.38120   0.58581   0.49277   0.00000  Uiso   1.00
H408   H     0.39831   0.60963   0.47042   0.00000  Uiso   1.00
O409   O     0.11880   0.41419   0.49277   0.00000  Uiso   1.00
H410   H     0.10169   0.39037   0.47042   0.00000  Uiso   1.00
O411   O     0.38499   0.40973   0.50333   0.00000  Uiso   1.00
H412   H     0.35270   0.41405   0.51003   0.00000  Uiso   1.00
O413   O     0.11501   0.59027   0.50333   0.00000  Uiso   1.00
H414   H     0.14730   0.58595   0.51003   0.00000  Uiso   1.00
O415   O     0.75000   0.42845   0.54562   0.00000  Uiso   1.00
O416   O     0.75000   0.57155   0.45438   0.00000  Uiso   1.00
O417   O     0.75000   0.57155   0.54562   0.00000  Uiso   1.00
O418   O     0.75000   0.42845   0.45438   0.00000  Uiso   1.00
C419   C     0.74992   0.40588   0.50000   0.00000  Uiso   1.00
C420   C     0.75008   0.59412   0.50000   0.00000  Uiso   1.00
O421   O     0.68393   0.50000   0.54563   0.00000  Uiso   1.00
O422   O     0.81608   0.50000   0.45437   0.00000  Uiso   1.00
O423   O     0.81608   0.50000   0.54563   0.00000  Uiso   1.00
O424   O     0.68393   0.50000   0.45437   0.00000  Uiso   1.00
C425   C     0.66343   0.50000   0.49999   0.00000  Uiso   1.00
C426   C     0.83657   0.50000   0.49999   0.00000  Uiso   1.00
Zn427  Zn    0.75000   0.50000   0.56093   0.00000  Uiso   1.00
Zn428  Zn    0.75000   0.50000   0.43907   0.00000  Uiso   1.00
N429   N     0.75000   0.50000   0.35788   0.00000  Uiso   1.00
N430   N     0.75000   0.50000   0.64212   0.00000  Uiso   1.00
C431   C     0.90635   0.54381   0.49807   0.00000  Uiso   1.00
C432   C     0.59365   0.45619   0.49807   0.00000  Uiso   1.00
C433   C     0.90675   0.45435   0.49832   0.00000  Uiso   1.00
C434   C     0.59325   0.54565   0.49832   0.00000  Uiso   1.00
C435   C     0.88408   0.49911   0.49986   0.00000  Uiso   1.00
C436   C     0.61592   0.50089   0.49986   0.00000  Uiso   1.00
C437   C     0.95331   0.45511   0.49424   0.00000  Uiso   1.00
C438   C     0.54669   0.54489   0.49424   0.00000  Uiso   1.00
C439   C     0.95320   0.54434   0.49920   0.00000  Uiso   1.00
C440   C     0.54680   0.45566   0.49920   0.00000  Uiso   1.00
C441   C     0.97655   0.49988   0.49629   0.00000  Uiso   1.00
C442   C     0.52345   0.50012   0.49629   0.00000  Uiso   1.00
C443   C     0.97739   0.41171   0.49061   0.00000  Uiso   1.00
C444   C     0.52261   0.58829   0.49061   0.00000  Uiso   1.00
C445   C     0.97728   0.58795   0.50386   0.00000  Uiso   1.00
C446   C     0.52272   0.41205   0.50386   0.00000  Uiso   1.00
C447   C     0.74997   0.35492   0.50000   0.00000  Uiso   1.00
C448   C     0.75003   0.64508   0.50000   0.00000  Uiso   1.00
Cl449  Cl    0.95668   0.36573   0.44664   0.00000  Uiso   1.00
Cl450  Cl    0.54333   0.63427   0.44664   0.00000  Uiso   1.00
Cl451  Cl    0.95723   0.63214   0.55043   0.00000  Uiso   1.00
Cl452  Cl    0.54277   0.36786   0.55043   0.00000  Uiso   1.00
O453   O     0.88120   0.58581   0.49277   0.00000  Uiso   1.00
H454   H     0.89831   0.60963   0.47042   0.00000  Uiso   1.00
O455   O     0.61880   0.41419   0.49277   0.00000  Uiso   1.00
H456   H     0.60169   0.39037   0.47042   0.00000  Uiso   1.00
O457   O     0.88499   0.40973   0.50333   0.00000  Uiso   1.00
H458   H     0.85270   0.41405   0.51003   0.00000  Uiso   1.00
O459   O     0.61501   0.59027   0.50333   0.00000  Uiso   1.00
H460   H     0.64730   0.58595   0.51003   0.00000  Uiso   1.00
O461   O     0.25000   0.76178   0.54562   0.00000  Uiso   1.00
O462   O     0.25000   0.90488   0.45438   0.00000  Uiso   1.00
O463   O     0.25000   0.90488   0.54562   0.00000  Uiso   1.00
O464   O     0.25000   0.76178   0.45438   0.00000  Uiso   1.00
C465   C     0.24992   0.73921   0.50000   0.00000  Uiso   1.00
C466   C     0.25008   0.92745   0.50000   0.00000  Uiso   1.00
O467   O     0.18393   0.83333   0.54563   0.00000  Uiso   1.00
O468   O     0.31608   0.83333   0.45437   0.00000  Uiso   1.00
O469   O     0.31608   0.83333   0.54563   0.00000  Uiso   1.00
O470   O     0.18393   0.83333   0.45437   0.00000  Uiso   1.00
C471   C     0.16343   0.83333   0.49999   0.00000  Uiso   1.00
C472   C     0.33657   0.83334   0.49999   0.00000  Uiso   1.00
Zn473  Zn    0.25000   0.83333   0.56093   0.00000  Uiso   1.00
Zn474  Zn    0.25000   0.83333   0.43907   0.00000  Uiso   1.00
N475   N     0.25000   0.83333   0.35788   0.00000  Uiso   1.00
N476   N     0.25000   0.83333   0.64212   0.00000  Uiso   1.00
C477   C     0.40635   0.87714   0.49807   0.00000  Uiso   1.00
C478   C     0.09365   0.78952   0.49807   0.00000  Uiso   1.00
C479   C     0.40675   0.78769   0.49832   0.00000  Uiso   1.00
C480   C     0.09325   0.87898   0.49832   0.00000  Uiso   1.00
C481   C     0.38408   0.83244   0.49986   0.00000  Uiso   1.00
C482   C     0.11592   0.83422   0.49986   0.00000  Uiso   1.00
C483   C     0.45331   0.78845   0.49424   0.00000  Uiso   1.00
C484   C     0.04669   0.87822   0.49424   0.00000  Uiso   1.00
C485   C     0.45320   0.87767   0.49920   0.00000  Uiso   1.00
C486   C     0.04680   0.78900   0.49920   0.00000  Uiso   1.00
C487   C     0.47655   0.83322   0.49629   0.00000  Uiso   1.00
C488   C     0.02345   0.83345   0.49629   0.00000  Uiso   1.00
C489   C     0.47739   0.74504   0.49061   0.00000  Uiso   1.00
C490   C     0.02261   0.92163   0.49061   0.00000  Uiso   1.00
C491   C     0.47728   0.92129   0.50386   0.00000  Uiso   1.00
C492   C     0.02272   0.74538   0.50386   0.00000  Uiso   1.00
C493   C     0.24997   0.68825   0.50000   0.00000  Uiso   1.00
C494   C     0.25003   0.97841   0.50000   0.00000  Uiso   1.00
Cl495  Cl    0.45668   0.69906   0.44664   0.00000  Uiso   1.00
Cl496  Cl    0.04333   0.96760   0.44664   0.00000  Uiso   1.00
Cl497  Cl    0.45723   0.96547   0.55043   0.00000  Uiso   1.00
Cl498  Cl    0.04277   0.70120   0.55043   0.00000  Uiso   1.00
O499   O     0.38120   0.91915   0.49277   0.00000  Uiso   1.00
H500   H     0.39831   0.94296   0.47042   0.00000  Uiso   1.00
O501   O     0.11880   0.74752   0.49277   0.00000  Uiso   1.00
H502   H     0.10169   0.72370   0.47042   0.00000  Uiso   1.00
O503   O     0.38499   0.74307   0.50333   0.00000  Uiso   1.00
H504   H     0.35270   0.74738   0.51003   0.00000  Uiso   1.00
O505   O     0.11501   0.92360   0.50333   0.00000  Uiso   1.00
H506   H     0.14730   0.91928   0.51003   0.00000  Uiso   1.00
O507   O     0.75000   0.76178   0.54562   0.00000  Uiso   1.00
O508   O     0.75000   0.90488   0.45438   0.00000  Uiso   1.00
O509   O     0.75000   0.90488   0.54562   0.00000  Uiso   1.00
O510   O     0.75000   0.76178   0.45438   0.00000  Uiso   1.00
C511   C     0.74992   0.73921   0.50000   0.00000  Uiso   1.00
C512   C     0.75008   0.92745   0.50000   0.00000  Uiso   1.00
O513   O     0.68393   0.83333   0.54563   0.00000  Uiso   1.00
O514   O     0.81608   0.83333   0.45437   0.00000  Uiso   1.00
O515   O     0.81608   0.83333   0.54563   0.00000  Uiso   1.00
O516   O     0.68393   0.83333   0.45437   0.00000  Uiso   1.00
C517   C     0.66343   0.83333   0.49999   0.00000  Uiso   1.00
C518   C     0.83657   0.83334   0.49999   0.00000  Uiso   1.00
Zn519  Zn    0.75000   0.83333   0.56093   0.00000  Uiso   1.00
Zn520  Zn    0.75000   0.83333   0.43907   0.00000  Uiso   1.00
N521   N     0.75000   0.83333   0.35788   0.00000  Uiso   1.00
N522   N     0.75000   0.83333   0.64212   0.00000  Uiso   1.00
C523   C     0.90635   0.87714   0.49807   0.00000  Uiso   1.00
C524   C     0.59365   0.78952   0.49807   0.00000  Uiso   1.00
C525   C     0.90675   0.78769   0.49832   0.00000  Uiso   1.00
C526   C     0.59325   0.87898   0.49832   0.00000  Uiso   1.00
C527   C     0.88408   0.83244   0.49986   0.00000  Uiso   1.00
C528   C     0.61592   0.83422   0.49986   0.00000  Uiso   1.00
C529   C     0.95331   0.78845   0.49424   0.00000  Uiso   1.00
C530   C     0.54669   0.87822   0.49424   0.00000  Uiso   1.00
C531   C     0.95320   0.87767   0.49920   0.00000  Uiso   1.00
C532   C     0.54680   0.78900   0.49920   0.00000  Uiso   1.00
C533   C     0.97655   0.83322   0.49629   0.00000  Uiso   1.00
C534   C     0.52345   0.83345   0.49629   0.00000  Uiso   1.00
C535   C     0.97739   0.74504   0.49061   0.00000  Uiso   1.00
C536   C     0.52261   0.92163   0.49061   0.00000  Uiso   1.00
C537   C     0.97728   0.92129   0.50386   0.00000  Uiso   1.00
C538   C     0.52272   0.74538   0.50386   0.00000  Uiso   1.00
C539   C     0.74997   0.68825   0.50000   0.00000  Uiso   1.00
C540   C     0.75003   0.97841   0.50000   0.00000  Uiso   1.00
Cl541  Cl    0.95668   0.69906   0.44664   0.00000  Uiso   1.00
Cl542  Cl    0.54333   0.96760   0.44664   0.00000  Uiso   1.00
Cl543  Cl    0.95723   0.96547   0.55043   0.00000  Uiso   1.00
Cl544  Cl    0.54277   0.70120   0.55043   0.00000  Uiso   1.00
O545   O     0.88120   0.91915   0.49277   0.00000  Uiso   1.00
H546   H     0.89831   0.94296   0.47042   0.00000  Uiso   1.00
O547   O     0.61880   0.74752   0.49277   0.00000  Uiso   1.00
H548   H     0.60169   0.72370   0.47042   0.00000  Uiso   1.00
O549   O     0.88499   0.74307   0.50333   0.00000  Uiso   1.00
H550   H     0.85270   0.74738   0.51003   0.00000  Uiso   1.00
O551   O     0.61501   0.92360   0.50333   0.00000  Uiso   1.00
H552   H     0.64730   0.91928   0.51003   0.00000  Uiso   1.00
O553   O     0.25000   0.09512   0.87895   0.00000  Uiso   1.00
O554   O     0.25000   0.23822   0.78772   0.00000  Uiso   1.00
O555   O     0.25000   0.23822   0.87895   0.00000  Uiso   1.00
O556   O     0.25000   0.09512   0.78772   0.00000  Uiso   1.00
C557   C     0.24992   0.07255   0.83333   0.00000  Uiso   1.00
C558   C     0.25008   0.26079   0.83333   0.00000  Uiso   1.00
O559   O     0.18393   0.16667   0.87896   0.00000  Uiso   1.00
O560   O     0.31608   0.16667   0.78770   0.00000  Uiso   1.00
O561   O     0.31608   0.16667   0.87896   0.00000  Uiso   1.00
O562   O     0.18393   0.16667   0.78770   0.00000  Uiso   1.00
C563   C     0.16343   0.16666   0.83332   0.00000  Uiso   1.00
C564   C     0.33657   0.16667   0.83332   0.00000  Uiso   1.00
Zn565  Zn    0.25000   0.16667   0.89426   0.00000  Uiso   1.00
Zn566  Zn    0.25000   0.16667   0.77241   0.00000  Uiso   1.00
N567   N     0.25000   0.16667   0.69121   0.00000  Uiso   1.00
N568   N     0.25000   0.16667   0.97545   0.00000  Uiso   1.00
C569   C     0.40635   0.21048   0.83140   0.00000  Uiso   1.00
C570   C     0.09365   0.12286   0.83140   0.00000  Uiso   1.00
C571   C     0.40675   0.12102   0.83165   0.00000  Uiso   1.00
C572   C     0.09325   0.21231   0.83165   0.00000  Uiso   1.00
C573   C     0.38408   0.16578   0.83320   0.00000  Uiso   1.00
C574   C     0.11592   0.16756   0.83320   0.00000  Uiso   1.00
C575   C     0.45331   0.12178   0.82757   0.00000  Uiso   1.00
C576   C     0.04669   0.21155   0.82757   0.00000  Uiso   1.00
C577   C     0.45320   0.21100   0.83253   0.00000  Uiso   1.00
C578   C     0.04680   0.12233   0.83253   0.00000  Uiso   1.00
C579   C     0.47655   0.16655   0.82962   0.00000  Uiso   1.00
C580   C     0.02345   0.16678   0.82962   0.00000  Uiso   1.00
C581   C     0.47739   0.07837   0.82394   0.00000  Uiso   1.00
C582   C     0.02261   0.25496   0.82394   0.00000  Uiso   1.00
C583   C     0.47728   0.25462   0.83719   0.00000  Uiso   1.00
C584   C     0.02272   0.07871   0.83719   0.00000  Uiso   1.00
C585   C     0.24997   0.02159   0.83333   0.00000  Uiso   1.00
C586   C     0.25003   0.31175   0.83333   0.00000  Uiso   1.00
Cl587  Cl    0.45668   0.03240   0.77998   0.00000  Uiso   1.00
Cl588  Cl    0.04333   0.30094   0.77998   0.00000  Uiso   1.00
Cl589  Cl    0.45723   0.29880   0.88376   0.00000  Uiso   1.00
Cl590  Cl    0.04277   0.03453   0.88376   0.00000  Uiso   1.00
O591   O     0.38120   0.25248   0.82611   0.00000  Uiso   1.00
H592   H     0.39831   0.27630   0.80375   0.00000  Uiso   1.00
O593   O     0.11880   0.08085   0.82611   0.00000  Uiso   1.00
H594   H     0.10169   0.05704   0.80375   0.00000  Uiso   1.00
O595   O     0.38499   0.07640   0.83666   0.00000  Uiso   1.00
H596   H     0.35270   0.08072   0.84336   0.00000  Uiso   1.00
O597   O     0.11501   0.25693   0.83666   0.00000  Uiso   1.00
H598   H     0.14730   0.25262   0.84336   0.00000  Uiso   1.00
O599   O     0.75000   0.09512   0.87895   0.00000  Uiso   1.00
O600   O     0.75000   0.23822   0.78772   0.00000  Uiso   1.00
O601   O     0.75000   0.23822   0.87895   0.00000  Uiso   1.00
O602   O     0.75000   0.09512   0.78772   0.00000  Uiso   1.00
C603   C     0.74992   0.07255   0.83333   0.00000  Uiso   1.00
C604   C     0.75008   0.26079   0.83333   0.00000  Uiso   1.00
O605   O     0.68393   0.16667   0.87896   0.00000  Uiso   1.00
O606   O     0.81608   0.16667   0.78770   0.00000  Uiso   1.00
O607   O     0.81608   0.16667   0.87896   0.00000  Uiso   1.00
O608   O     0.68393   0.16667   0.78770   0.00000  Uiso   1.00
C609   C     0.66343   0.16666   0.83332   0.00000  Uiso   1.00
C610   C     0.83657   0.16667   0.83332   0.00000  Uiso   1.00
Zn611  Zn    0.75000   0.16667   0.89426   0.00000  Uiso   1.00
Zn612  Zn    0.75000   0.16667   0.77241   0.00000  Uiso   1.00
N613   N     0.75000   0.16667   0.69121   0.00000  Uiso   1.00
N614   N     0.75000   0.16667   0.97545   0.00000  Uiso   1.00
C615   C     0.90635   0.21048   0.83140   0.00000  Uiso   1.00
C616   C     0.59365   0.12286   0.83140   0.00000  Uiso   1.00
C617   C     0.90675   0.12102   0.83165   0.00000  Uiso   1.00
C618   C     0.59325   0.21231   0.83165   0.00000  Uiso   1.00
C619   C     0.88408   0.16578   0.83320   0.00000  Uiso   1.00
C620   C     0.61592   0.16756   0.83320   0.00000  Uiso   1.00
C621   C     0.95331   0.12178   0.82757   0.00000  Uiso   1.00
C622   C     0.54669   0.21155   0.82757   0.00000  Uiso   1.00
C623   C     0.95320   0.21100   0.83253   0.00000  Uiso   1.00
C624   C     0.54680   0.12233   0.83253   0.00000  Uiso   1.00
C625   C     0.97655   0.16655   0.82962   0.00000  Uiso   1.00
C626   C     0.52345   0.16678   0.82962   0.00000  Uiso   1.00
C627   C     0.97739   0.07837   0.82394   0.00000  Uiso   1.00
C628   C     0.52261   0.25496   0.82394   0.00000  Uiso   1.00
C629   C     0.97728   0.25462   0.83719   0.00000  Uiso   1.00
C630   C     0.52272   0.07871   0.83719   0.00000  Uiso   1.00
C631   C     0.74997   0.02159   0.83333   0.00000  Uiso   1.00
C632   C     0.75003   0.31175   0.83333   0.00000  Uiso   1.00
Cl633  Cl    0.95668   0.03240   0.77998   0.00000  Uiso   1.00
Cl634  Cl    0.54333   0.30094   0.77998   0.00000  Uiso   1.00
Cl635  Cl    0.95723   0.29880   0.88376   0.00000  Uiso   1.00
Cl636  Cl    0.54277   0.03453   0.88376   0.00000  Uiso   1.00
O637   O     0.88120   0.25248   0.82611   0.00000  Uiso   1.00
H638   H     0.89831   0.27630   0.80375   0.00000  Uiso   1.00
O639   O     0.61880   0.08085   0.82611   0.00000  Uiso   1.00
H640   H     0.60169   0.05704   0.80375   0.00000  Uiso   1.00
O641   O     0.88499   0.07640   0.83666   0.00000  Uiso   1.00
H642   H     0.85270   0.08072   0.84336   0.00000  Uiso   1.00
O643   O     0.61501   0.25693   0.83666   0.00000  Uiso   1.00
H644   H     0.64730   0.25262   0.84336   0.00000  Uiso   1.00
O645   O     0.25000   0.42845   0.87895   0.00000  Uiso   1.00
O646   O     0.25000   0.57155   0.78772   0.00000  Uiso   1.00
O647   O     0.25000   0.57155   0.87895   0.00000  Uiso   1.00
O648   O     0.25000   0.42845   0.78772   0.00000  Uiso   1.00
C649   C     0.24992   0.40588   0.83333   0.00000  Uiso   1.00
C650   C     0.25008   0.59412   0.83333   0.00000  Uiso   1.00
O651   O     0.18393   0.50000   0.87896   0.00000  Uiso   1.00
O652   O     0.31608   0.50000   0.78770   0.00000  Uiso   1.00
O653   O     0.31608   0.50000   0.87896   0.00000  Uiso   1.00
O654   O     0.18393   0.50000   0.78770   0.00000  Uiso   1.00
C655   C     0.16343   0.50000   0.83332   0.00000  Uiso   1.00
C656   C     0.33657   0.50000   0.83332   0.00000  Uiso   1.00
Zn657  Zn    0.25000   0.50000   0.89426   0.00000  Uiso   1.00
Zn658  Zn    0.25000   0.50000   0.77241   0.00000  Uiso   1.00
N659   N     0.25000   0.50000   0.69121   0.00000  Uiso   1.00
N660   N     0.25000   0.50000   0.97545   0.00000  Uiso   1.00
C661   C     0.40635   0.54381   0.83140   0.00000  Uiso   1.00
C662   C     0.09365   0.45619   0.83140   0.00000  Uiso   1.00
C663   C     0.40675   0.45435   0.83165   0.00000  Uiso   1.00
C664   C     0.09325   0.54565   0.83165   0.00000  Uiso   1.00
C665   C     0.38408   0.49911   0.83320   0.00000  Uiso   1.00
C666   C     0.11592   0.50089   0.83320   0.00000  Uiso   1.00
C667   C     0.45331   0.45511   0.82757   0.00000  Uiso   1.00
C668   C     0.04669   0.54489   0.82757   0.00000  Uiso   1.00
C669   C     0.45320   0.54434   0.83253   0.00000  Uiso   1.00
C670   C     0.04680   0.45566   0.83253   0.00000  Uiso   1.00
C671   C     0.47655   0.49988   0.82962   0.00000  Uiso   1.00
C672   C     0.02345   0.50012   0.82962   0.00000  Uiso   1.00
C673   C     0.47739   0.41171   0.82394   0.00000  Uiso   1.00
C674   C     0.02261   0.58829   0.82394   0.00000  Uiso   1.00
C675   C     0.47728   0.58795   0.83719   0.00000  Uiso   1.00
C676   C     0.02272   0.41205   0.83719   0.00000  Uiso   1.00
C677   C     0.24997   0.35492   0.83333   0.00000  Uiso   1.00
C678   C     0.25003   0.64508   0.83333   0.00000  Uiso   1.00
Cl679  Cl    0.45668   0.36573   0.77998   0.00000  Uiso   1.00
Cl680  Cl    0.04333   0.63427   0.77998   0.00000  Uiso   1.00
Cl681  Cl    0.45723   0.63214   0.88376   0.00000  Uiso   1.00
Cl682  Cl    0.04277   0.36786   0.88376   0.00000  Uiso   1.00
O683   O     0.38120   0.58581   0.82611   0.00000  Uiso   1.00
H684   H     0.39831   0.60963   0.80375   0.00000  Uiso   1.00
O685   O     0.11880   0.41419   0.82611   0.00000  Uiso   1.00
H686   H     0.10169   0.39037   0.80375   0.00000  Uiso   1.00
O687   O     0.38499   0.40973   0.83666   0.00000  Uiso   1.00
H688   H     0.35270   0.41405   0.84336   0.00000  Uiso   1.00
O689   O     0.11501   0.59027   0.83666   0.00000  Uiso   1.00
H690   H     0.14730   0.58595   0.84336   0.00000  Uiso   1.00
O691   O     0.75000   0.42845   0.87895   0.00000  Uiso   1.00
O692   O     0.75000   0.57155   0.78772   0.00000  Uiso   1.00
O693   O     0.75000   0.57155   0.87895   0.00000  Uiso   1.00
O694   O     0.75000   0.42845   0.78772   0.00000  Uiso   1.00
C695   C     0.74992   0.40588   0.83333   0.00000  Uiso   1.00
C696   C     0.75008   0.59412   0.83333   0.00000  Uiso   1.00
O697   O     0.68393   0.50000   0.87896   0.00000  Uiso   1.00
O698   O     0.81608   0.50000   0.78770   0.00000  Uiso   1.00
O699   O     0.81608   0.50000   0.87896   0.00000  Uiso   1.00
O700   O     0.68393   0.50000   0.78770   0.00000  Uiso   1.00
C701   C     0.66343   0.50000   0.83332   0.00000  Uiso   1.00
C702   C     0.83657   0.50000   0.83332   0.00000  Uiso   1.00
Zn703  Zn    0.75000   0.50000   0.89426   0.00000  Uiso   1.00
Zn704  Zn    0.75000   0.50000   0.77241   0.00000  Uiso   1.00
N705   N     0.75000   0.50000   0.69121   0.00000  Uiso   1.00
N706   N     0.75000   0.50000   0.97545   0.00000  Uiso   1.00
C707   C     0.90635   0.54381   0.83140   0.00000  Uiso   1.00
C708   C     0.59365   0.45619   0.83140   0.00000  Uiso   1.00
C709   C     0.90675   0.45435   0.83165   0.00000  Uiso   1.00
C710   C     0.59325   0.54565   0.83165   0.00000  Uiso   1.00
C711   C     0.88408   0.49911   0.83320   0.00000  Uiso   1.00
C712   C     0.61592   0.50089   0.83320   0.00000  Uiso   1.00
C713   C     0.95331   0.45511   0.82757   0.00000  Uiso   1.00
C714   C     0.54669   0.54489   0.82757   0.00000  Uiso   1.00
C715   C     0.95320   0.54434   0.83253   0.00000  Uiso   1.00
C716   C     0.54680   0.45566   0.83253   0.00000  Uiso   1.00
C717   C     0.97655   0.49988   0.82962   0.00000  Uiso   1.00
C718   C     0.52345   0.50012   0.82962   0.00000  Uiso   1.00
C719   C     0.97739   0.41171   0.82394   0.00000  Uiso   1.00
C720   C     0.52261   0.58829   0.82394   0.00000  Uiso   1.00
C721   C     0.97728   0.58795   0.83719   0.00000  Uiso   1.00
C722   C     0.52272   0.41205   0.83719   0.00000  Uiso   1.00
C723   C     0.74997   0.35492   0.83333   0.00000  Uiso   1.00
C724   C     0.75003   0.64508   0.83333   0.00000  Uiso   1.00
Cl725  Cl    0.95668   0.36573   0.77998   0.00000  Uiso   1.00
Cl726  Cl    0.54333   0.63427   0.77998   0.00000  Uiso   1.00
Cl727  Cl    0.95723   0.63214   0.88376   0.00000  Uiso   1.00
Cl728  Cl    0.54277   0.36786   0.88376   0.00000  Uiso   1.00
O729   O     0.88120   0.58581   0.82611   0.00000  Uiso   1.00
H730   H     0.89831   0.60963   0.80375   0.00000  Uiso   1.00
O731   O     0.61880   0.41419   0.82611   0.00000  Uiso   1.00
H732   H     0.60169   0.39037   0.80375   0.00000  Uiso   1.00
O733   O     0.88499   0.40973   0.83666   0.00000  Uiso   1.00
H734   H     0.85270   0.41405   0.84336   0.00000  Uiso   1.00
O735   O     0.61501   0.59027   0.83666   0.00000  Uiso   1.00
H736   H     0.64730   0.58595   0.84336   0.00000  Uiso   1.00
O737   O     0.25000   0.76178   0.87895   0.00000  Uiso   1.00
O738   O     0.25000   0.90488   0.78772   0.00000  Uiso   1.00
O739   O     0.25000   0.90488   0.87895   0.00000  Uiso   1.00
O740   O     0.25000   0.76178   0.78772   0.00000  Uiso   1.00
C741   C     0.24992   0.73921   0.83333   0.00000  Uiso   1.00
C742   C     0.25008   0.92745   0.83333   0.00000  Uiso   1.00
O743   O     0.18393   0.83333   0.87896   0.00000  Uiso   1.00
O744   O     0.31608   0.83333   0.78770   0.00000  Uiso   1.00
O745   O     0.31608   0.83333   0.87896   0.00000  Uiso   1.00
O746   O     0.18393   0.83333   0.78770   0.00000  Uiso   1.00
C747   C     0.16343   0.83333   0.83332   0.00000  Uiso   1.00
C748   C     0.33657   0.83334   0.83332   0.00000  Uiso   1.00
Zn749  Zn    0.25000   0.83333   0.89426   0.00000  Uiso   1.00
Zn750  Zn    0.25000   0.83333   0.77241   0.00000  Uiso   1.00
N751   N     0.25000   0.83333   0.69121   0.00000  Uiso   1.00
N752   N     0.25000   0.83333   0.97545   0.00000  Uiso   1.00
C753   C     0.40635   0.87714   0.83140   0.00000  Uiso   1.00
C754   C     0.09365   0.78952   0.83140   0.00000  Uiso   1.00
C755   C     0.40675   0.78769   0.83165   0.00000  Uiso   1.00
C756   C     0.09325   0.87898   0.83165   0.00000  Uiso   1.00
C757   C     0.38408   0.83244   0.83320   0.00000  Uiso   1.00
C758   C     0.11592   0.83422   0.83320   0.00000  Uiso   1.00
C759   C     0.45331   0.78845   0.82757   0.00000  Uiso   1.00
C760   C     0.04669   0.87822   0.82757   0.00000  Uiso   1.00
C761   C     0.45320   0.87767   0.83253   0.00000  Uiso   1.00
C762   C     0.04680   0.78900   0.83253   0.00000  Uiso   1.00
C763   C     0.47655   0.83322   0.82962   0.00000  Uiso   1.00
C764   C     0.02345   0.83345   0.82962   0.00000  Uiso   1.00
C765   C     0.47739   0.74504   0.82394   0.00000  Uiso   1.00
C766   C     0.02261   0.92163   0.82394   0.00000  Uiso   1.00
C767   C     0.47728   0.92129   0.83719   0.00000  Uiso   1.00
C768   C     0.02272   0.74538   0.83719   0.00000  Uiso   1.00
C769   C     0.24997   0.68825   0.83333   0.00000  Uiso   1.00
C770   C     0.25003   0.97841   0.83333   0.00000  Uiso   1.00
Cl771  Cl    0.45668   0.69906   0.77998   0.00000  Uiso   1.00
Cl772  Cl    0.04333   0.96760   0.77998   0.00000  Uiso   1.00
Cl773  Cl    0.45723   0.96547   0.88376   0.00000  Uiso   1.00
Cl774  Cl    0.04277   0.70120   0.88376   0.00000  Uiso   1.00
O775   O     0.38120   0.91915   0.82611   0.00000  Uiso   1.00
H776   H     0.39831   0.94296   0.80375   0.00000  Uiso   1.00
O777   O     0.11880   0.74752   0.82611   0.00000  Uiso   1.00
H778   H     0.10169   0.72370   0.80375   0.00000  Uiso   1.00
O779   O     0.38499   0.74307   0.83666   0.00000  Uiso   1.00
H780   H     0.35270   0.74738   0.84336   0.00000  Uiso   1.00
O781   O     0.11501   0.92360   0.83666   0.00000  Uiso   1.00
H782   H     0.14730   0.91928   0.84336   0.00000  Uiso   1.00
O783   O     0.75000   0.76178   0.87895   0.00000  Uiso   1.00
O784   O     0.75000   0.90488   0.78772   0.00000  Uiso   1.00
O785   O     0.75000   0.90488   0.87895   0.00000  Uiso   1.00
O786   O     0.75000   0.76178   0.78772   0.00000  Uiso   1.00
C787   C     0.74992   0.73921   0.83333   0.00000  Uiso   1.00
C788   C     0.75008   0.92745   0.83333   0.00000  Uiso   1.00
O789   O     0.68393   0.83333   0.87896   0.00000  Uiso   1.00
O790   O     0.81608   0.83333   0.78770   0.00000  Uiso   1.00
O791   O     0.81608   0.83333   0.87896   0.00000  Uiso   1.00
O792   O     0.68393   0.83333   0.78770   0.00000  Uiso   1.00
C793   C     0.66343   0.83333   0.83332   0.00000  Uiso   1.00
C794   C     0.83657   0.83334   0.83332   0.00000  Uiso   1.00
Zn795  Zn    0.75000   0.83333   0.89426   0.00000  Uiso   1.00
Zn796  Zn    0.75000   0.83333   0.77241   0.00000  Uiso   1.00
N797   N     0.75000   0.83333   0.69121   0.00000  Uiso   1.00
N798   N     0.75000   0.83333   0.97545   0.00000  Uiso   1.00
C799   C     0.90635   0.87714   0.83140   0.00000  Uiso   1.00
C800   C     0.59365   0.78952   0.83140   0.00000  Uiso   1.00
C801   C     0.90675   0.78769   0.83165   0.00000  Uiso   1.00
C802   C     0.59325   0.87898   0.83165   0.00000  Uiso   1.00
C803   C     0.88408   0.83244   0.83320   0.00000  Uiso   1.00
C804   C     0.61592   0.83422   0.83320   0.00000  Uiso   1.00
C805   C     0.95331   0.78845   0.82757   0.00000  Uiso   1.00
C806   C     0.54669   0.87822   0.82757   0.00000  Uiso   1.00
C807   C     0.95320   0.87767   0.83253   0.00000  Uiso   1.00
C808   C     0.54680   0.78900   0.83253   0.00000  Uiso   1.00
C809   C     0.97655   0.83322   0.82962   0.00000  Uiso   1.00
C810   C     0.52345   0.83345   0.82962   0.00000  Uiso   1.00
C811   C     0.97739   0.74504   0.82394   0.00000  Uiso   1.00
C812   C     0.52261   0.92163   0.82394   0.00000  Uiso   1.00
C813   C     0.97728   0.92129   0.83719   0.00000  Uiso   1.00
C814   C     0.52272   0.74538   0.83719   0.00000  Uiso   1.00
C815   C     0.74997   0.68825   0.83333   0.00000  Uiso   1.00
C816   C     0.75003   0.97841   0.83333   0.00000  Uiso   1.00
Cl817  Cl    0.95668   0.69906   0.77998   0.00000  Uiso   1.00
Cl818  Cl    0.54333   0.96760   0.77998   0.00000  Uiso   1.00
Cl819  Cl    0.95723   0.96547   0.88376   0.00000  Uiso   1.00
Cl820  Cl    0.54277   0.70120   0.88376   0.00000  Uiso   1.00
O821   O     0.88120   0.91915   0.82611   0.00000  Uiso   1.00
H822   H     0.89831   0.94296   0.80375   0.00000  Uiso   1.00
O823   O     0.61880   0.74752   0.82611   0.00000  Uiso   1.00
H824   H     0.60169   0.72370   0.80375   0.00000  Uiso   1.00
O825   O     0.88499   0.74307   0.83666   0.00000  Uiso   1.00
H826   H     0.85270   0.74738   0.84336   0.00000  Uiso   1.00
O827   O     0.61501   0.92360   0.83666   0.00000  Uiso   1.00
H828   H     0.64730   0.91928   0.84336   0.00000  Uiso   1.00
loop_
_geom_bond_atom_site_label_1
_geom_bond_atom_site_label_2
_geom_bond_distance
_geom_bond_site_symmetry_2
_ccdc_geom_bond_type
O1     C5      1.270   .     A
O1     Zn13    1.996   .     S
O2     C6      1.270   .     A
O2     Zn14    1.996   .     S
O3     Zn13    1.996   .     S
O3     C6      1.270   .     A
O4     Zn14    1.996   .     S
O4     C5      1.270   .     A
C5     C33     1.396   .     S
C6     C34     1.396   .     S
O7     C11     1.268   .     A
O7     Zn13    2.012   .     S
O8     C12     1.268   .     A
O8     Zn14    2.012   .     S
O9     C12     1.268   .     A
O9     Zn13    2.012   .     S
O10    C11     1.268   .     A
O10    Zn14    2.012   .     S
C11    C22     1.422   .     S
C12    C21     1.422   .     S
Zn13   N16     1.975   .     S
Zn14   N15     1.975   .     S
N15    N568    1.194   1_554 S
N16    N291    1.194   .     S
C17    C25     1.403   .     A
C17    O39     1.384   .     S
C17    C21     1.393   .     A
C18    C26     1.403   .     A
C18    O41     1.384   .     S
C18    C22     1.393   .     A
C19    C23     1.397   .     A
C19    C21     1.405   .     A
C19    O43     1.388   .     S
C20    O45     1.388   .     S
C20    C22     1.405   .     A
C20    C24     1.397   .     A
C23    C27     1.409   .     A
C23    C29     1.396   .     A
C24    C30     1.396   .     A
C24    C28     1.409   .     A
C25    C31     1.398   .     A
C25    C27     1.409   .     A
C26    C32     1.398   .     A
C26    C28     1.409   .     A
C27    C74     1.403   .     S
C28    C73     1.403   1_455 S
C29    Cl35    1.763   .     S
C29    C78     1.395   .     S
C30    Cl36    1.763   .     S
C30    C77     1.395   1_455 S
C31    Cl37    1.765   .     S
C31    C76     1.395   .     S
C32    Cl38    1.765   .     S
C32    C75     1.395   1_455 S
C33    C218    1.183   1_545 S
C34    C125    1.183   .     S
O39    H40     0.990   .     S
O41    H42     0.990   .     S
O43    H44     0.988   .     S
O45    H46     0.988   .     S
O47    C51     1.270   .     A
O47    Zn59    1.996   .     S
O48    C52     1.270   .     A
O48    Zn60    1.996   .     S
O49    Zn59    1.996   .     S
O49    C52     1.270   .     A
O50    Zn60    1.996   .     S
O50    C51     1.270   .     A
C51    C79     1.396   .     S
C52    C80     1.396   .     S
O53    C57     1.268   .     A
O53    Zn59    2.012   .     S
O54    C58     1.268   .     A
O54    Zn60    2.012   .     S
O55    C58     1.268   .     A
O55    Zn59    2.012   .     S
O56    C57     1.268   .     A
O56    Zn60    2.012   .     S
C57    C68     1.422   .     S
C58    C67     1.422   .     S
Zn59   N62     1.975   .     S
Zn60   N61     1.975   .     S
N61    N614    1.194   1_554 S
N62    N337    1.194   .     S
C63    C71     1.403   .     A
C63    O85     1.384   .     S
C63    C67     1.393   .     A
C64    C72     1.403   .     A
C64    O87     1.384   .     S
C64    C68     1.393   .     A
C65    C69     1.397   .     A
C65    C67     1.405   .     A
C65    O89     1.388   .     S
C66    O91     1.388   .     S
C66    C68     1.405   .     A
C66    C70     1.397   .     A
C69    C73     1.409   .     A
C69    C75     1.396   .     A
C70    C76     1.396   .     A
C70    C74     1.409   .     A
C71    C77     1.398   .     A
C71    C73     1.409   .     A
C72    C78     1.398   .     A
C72    C74     1.409   .     A
C73    C28     1.403   1_655 S
C75    Cl81    1.763   .     S
C75    C32     1.395   1_655 S
C76    Cl82    1.763   .     S
C77    Cl83    1.765   .     S
C77    C30     1.395   1_655 S
C78    Cl84    1.765   .     S
C79    C264    1.183   1_545 S
C80    C171    1.183   .     S
O85    H86     0.990   .     S
O87    H88     0.990   .     S
O89    H90     0.988   .     S
O91    H92     0.988   .     S
O93    C97     1.270   .     A
O93    Zn105   1.996   .     S
O94    C98     1.270   .     A
O94    Zn106   1.996   .     S
O95    Zn105   1.996   .     S
O95    C98     1.270   .     A
O96    Zn106   1.996   .     S
O96    C97     1.270   .     A
C97    C125    1.396   .     S
C98    C126    1.396   .     S
O99    C103    1.268   .     A
O99    Zn105   2.012   .     S
O100   C104    1.268   .     A
O100   Zn106   2.012   .     S
O101   C104    1.268   .     A
O101   Zn105   2.012   .     S
O102   C103    1.268   .     A
O102   Zn106   2.012   .     S
C103   C114    1.422   .     S
C104   C113    1.422   .     S
Zn105  N108    1.975   .     S
Zn106  N107    1.975   .     S
N107   N660    1.194   1_554 S
N108   N383    1.194   .     S
C109   C117    1.403   .     A
C109   O131    1.384   .     S
C109   C113    1.393   .     A
C110   C118    1.403   .     A
C110   O133    1.384   .     S
C110   C114    1.393   .     A
C111   C115    1.397   .     A
C111   C113    1.405   .     A
C111   O135    1.388   .     S
C112   O137    1.388   .     S
C112   C114    1.405   .     A
C112   C116    1.397   .     A
C115   C119    1.409   .     A
C115   C121    1.396   .     A
C116   C122    1.396   .     A
C116   C120    1.409   .     A
C117   C123    1.398   .     A
C117   C119    1.409   .     A
C118   C124    1.398   .     A
C118   C120    1.409   .     A
C119   C166    1.403   .     S
C120   C165    1.403   1_455 S
C121   Cl127   1.763   .     S
C121   C170    1.395   .     S
C122   Cl128   1.763   .     S
C122   C169    1.395   1_455 S
C123   Cl129   1.765   .     S
C123   C168    1.395   .     S
C124   Cl130   1.765   .     S
C124   C167    1.395   1_455 S
C126   C217    1.183   .     S
O131   H132    0.990   .     S
O133   H134    0.990   .     S
O135   H136    0.988   .     S
O137   H138    0.988   .     S
O139   C143    1.270   .     A
O139   Zn151   1.996   .     S
O140   C144    1.270   .     A
O140   Zn152   1.996   .     S
O141   Zn151   1.996   .     S
O141   C144    1.270   .     A
O142   Zn152   1.996   .     S
O142   C143    1.270   .     A
C143   C171    1.396   .     S
C144   C172    1.396   .     S
O145   C149    1.268   .     A
O145   Zn151   2.012   .     S
O146   C150    1.268   .     A
O146   Zn152   2.012   .     S
O147   C150    1.268   .     A
O147   Zn151   2.012   .     S
O148   C149    1.268   .     A
O148   Zn152   2.012   .     S
C149   C160    1.422   .     S
C150   C159    1.422   .     S
Zn151  N154    1.975   .     S
Zn152  N153    1.975   .     S
N153   N706    1.194   1_554 S
N154   N429    1.194   .     S
C155   C163    1.403   .     A
C155   O177    1.384   .     S
C155   C159    1.393   .     A
C156   C164    1.403   .     A
C156   O179    1.384   .     S
C156   C160    1.393   .     A
C157   C161    1.397   .     A
C157   C159    1.405   .     A
C157   O181    1.388   .     S
C158   O183    1.388   .     S
C158   C160    1.405   .     A
C158   C162    1.397   .     A
C161   C165    1.409   .     A
C161   C167    1.396   .     A
C162   C168    1.396   .     A
C162   C166    1.409   .     A
C163   C169    1.398   .     A
C163   C165    1.409   .     A
C164   C170    1.398   .     A
C164   C166    1.409   .     A
C165   C120    1.403   1_655 S
C167   Cl173   1.763   .     S
C167   C124    1.395   1_655 S
C168   Cl174   1.763   .     S
C169   Cl175   1.765   .     S
C169   C122    1.395   1_655 S
C170   Cl176   1.765   .     S
C172   C263    1.183   .     S
O177   H178    0.990   .     S
O179   H180    0.990   .     S
O181   H182    0.988   .     S
O183   H184    0.988   .     S
O185   C189    1.270   .     A
O185   Zn197   1.996   .     S
O186   C190    1.270   .     A
O186   Zn198   1.996   .     S
O187   Zn197   1.996   .     S
O187   C190    1.270   .     A
O188   Zn198   1.996   .     S
O188   C189    1.270   .     A
C189   C217    1.396   .     S
C190   C218    1.396   .     S
O191   C195    1.268   .     A
O191   Zn197   2.012   .     S
O192   C196    1.268   .     A
O192   Zn198   2.012   .     S
O193   C196    1.268   .     A
O193   Zn197   2.012   .     S
O194   C195    1.268   .     A
O194   Zn198   2.012   .     S
C195   C206    1.422   .     S
C196   C205    1.422   .     S
Zn197  N200    1.975   .     S
Zn198  N199    1.975   .     S
N199   N752    1.194   1_554 S
N200   N475    1.194   .     S
C201   C209    1.403   .     A
C201   O223    1.384   .     S
C201   C205    1.393   .     A
C202   C210    1.403   .     A
C202   O225    1.384   .     S
C202   C206    1.393   .     A
C203   C207    1.397   .     A
C203   C205    1.405   .     A
C203   O227    1.388   .     S
C204   O229    1.388   .     S
C204   C206    1.405   .     A
C204   C208    1.397   .     A
C207   C211    1.409   .     A
C207   C213    1.396   .     A
C208   C214    1.396   .     A
C208   C212    1.409   .     A
C209   C215    1.398   .     A
C209   C211    1.409   .     A
C210   C216    1.398   .     A
C210   C212    1.409   .     A
C211   C258    1.403   .     S
C212   C257    1.403   1_455 S
C213   Cl219   1.763   .     S
C213   C262    1.395   .     S
C214   Cl220   1.763   .     S
C214   C261    1.395   1_455 S
C215   Cl221   1.765   .     S
C215   C260    1.395   .     S
C216   Cl222   1.765   .     S
C216   C259    1.395   1_455 S
C218   C33     1.183   1_565 S
O223   H224    0.990   .     S
O225   H226    0.990   .     S
O227   H228    0.988   .     S
O229   H230    0.988   .     S
O231   C235    1.270   .     A
O231   Zn243   1.996   .     S
O232   C236    1.270   .     A
O232   Zn244   1.996   .     S
O233   Zn243   1.996   .     S
O233   C236    1.270   .     A
O234   Zn244   1.996   .     S
O234   C235    1.270   .     A
C235   C263    1.396   .     S
C236   C264    1.396   .     S
O237   C241    1.268   .     A
O237   Zn243   2.012   .     S
O238   C242    1.268   .     A
O238   Zn244   2.012   .     S
O239   C242    1.268   .     A
O239   Zn243   2.012   .     S
O240   C241    1.268   .     A
O240   Zn244   2.012   .     S
C241   C252    1.422   .     S
C242   C251    1.422   .     S
Zn243  N246    1.975   .     S
Zn244  N245    1.975   .     S
N245   N798    1.194   1_554 S
N246   N521    1.194   .     S
C247   C255    1.403   .     A
C247   O269    1.384   .     S
C247   C251    1.393   .     A
C248   C256    1.403   .     A
C248   O271    1.384   .     S
C248   C252    1.393   .     A
C249   C253    1.397   .     A
C249   C251    1.405   .     A
C249   O273    1.388   .     S
C250   O275    1.388   .     S
C250   C252    1.405   .     A
C250   C254    1.397   .     A
C253   C257    1.409   .     A
C253   C259    1.396   .     A
C254   C260    1.396   .     A
C254   C258    1.409   .     A
C255   C261    1.398   .     A
C255   C257    1.409   .     A
C256   C262    1.398   .     A
C256   C258    1.409   .     A
C257   C212    1.403   1_655 S
C259   Cl265   1.763   .     S
C259   C216    1.395   1_655 S
C260   Cl266   1.763   .     S
C261   Cl267   1.765   .     S
C261   C214    1.395   1_655 S
C262   Cl268   1.765   .     S
C264   C79     1.183   1_565 S
O269   H270    0.990   .     S
O271   H272    0.990   .     S
O273   H274    0.988   .     S
O275   H276    0.988   .     S
O277   C281    1.270   .     A
O277   Zn289   1.996   .     S
O278   C282    1.270   .     A
O278   Zn290   1.996   .     S
O279   Zn289   1.996   .     S
O279   C282    1.270   .     A
O280   Zn290   1.996   .     S
O280   C281    1.270   .     A
C281   C309    1.396   .     S
C282   C310    1.396   .     S
O283   C287    1.268   .     A
O283   Zn289   2.012   .     S
O284   C288    1.268   .     A
O284   Zn290   2.012   .     S
O285   C288    1.268   .     A
O285   Zn289   2.012   .     S
O286   C287    1.268   .     A
O286   Zn290   2.012   .     S
C287   C298    1.422   .     S
C288   C297    1.422   .     S
Zn289  N292    1.975   .     S
Zn290  N291    1.975   .     S
N292   N567    1.194   .     S
C293   C301    1.403   .     A
C293   O315    1.384   .     S
C293   C297    1.393   .     A
C294   C302    1.403   .     A
C294   O317    1.384   .     S
C294   C298    1.393   .     A
C295   C299    1.397   .     A
C295   C297    1.405   .     A
C295   O319    1.388   .     S
C296   O321    1.388   .     S
C296   C298    1.405   .     A
C296   C300    1.397   .     A
C299   C303    1.409   .     A
C299   C305    1.396   .     A
C300   C306    1.396   .     A
C300   C304    1.409   .     A
C301   C307    1.398   .     A
C301   C303    1.409   .     A
C302   C308    1.398   .     A
C302   C304    1.409   .     A
C303   C350    1.403   .     S
C304   C349    1.403   1_455 S
C305   Cl311   1.763   .     S
C305   C354    1.395   .     S
C306   Cl312   1.763   .     S
C306   C353    1.395   1_455 S
C307   Cl313   1.765   .     S
C307   C352    1.395   .     S
C308   Cl314   1.765   .     S
C308   C351    1.395   1_455 S
C309   C494    1.183   1_545 S
C310   C401    1.183   .     S
O315   H316    0.990   .     S
O317   H318    0.990   .     S
O319   H320    0.988   .     S
O321   H322    0.988   .     S
O323   C327    1.270   .     A
O323   Zn335   1.996   .     S
O324   C328    1.270   .     A
O324   Zn336   1.996   .     S
O325   Zn335   1.996   .     S
O325   C328    1.270   .     A
O326   Zn336   1.996   .     S
O326   C327    1.270   .     A
C327   C355    1.396   .     S
C328   C356    1.396   .     S
O329   C333    1.268   .     A
O329   Zn335   2.012   .     S
O330   C334    1.268   .     A
O330   Zn336   2.012   .     S
O331   C334    1.268   .     A
O331   Zn335   2.012   .     S
O332   C333    1.268   .     A
O332   Zn336   2.012   .     S
C333   C344    1.422   .     S
C334   C343    1.422   .     S
Zn335  N338    1.975   .     S
Zn336  N337    1.975   .     S
N338   N613    1.194   .     S
C339   C347    1.403   .     A
C339   O361    1.384   .     S
C339   C343    1.393   .     A
C340   C348    1.403   .     A
C340   O363    1.384   .     S
C340   C344    1.393   .     A
C341   C345    1.397   .     A
C341   C343    1.405   .     A
C341   O365    1.388   .     S
C342   O367    1.388   .     S
C342   C344    1.405   .     A
C342   C346    1.397   .     A
C345   C349    1.409   .     A
C345   C351    1.396   .     A
C346   C352    1.396   .     A
C346   C350    1.409   .     A
C347   C353    1.398   .     A
C347   C349    1.409   .     A
C348   C354    1.398   .     A
C348   C350    1.409   .     A
C349   C304    1.403   1_655 S
C351   Cl357   1.763   .     S
C351   C308    1.395   1_655 S
C352   Cl358   1.763   .     S
C353   Cl359   1.765   .     S
C353   C306    1.395   1_655 S
C354   Cl360   1.765   .     S
C355   C540    1.183   1_545 S
C356   C447    1.183   .     S
O361   H362    0.990   .     S
O363   H364    0.990   .     S
O365   H366    0.988   .     S
O367   H368    0.988   .     S
O369   C373    1.270   .     A
O369   Zn381   1.996   .     S
O370   C374    1.270   .     A
O370   Zn382   1.996   .     S
O371   Zn381   1.996   .     S
O371   C374    1.270   .     A
O372   Zn382   1.996   .     S
O372   C373    1.270   .     A
C373   C401    1.396   .     S
C374   C402    1.396   .     S
O375   C379    1.268   .     A
O375   Zn381   2.012   .     S
O376   C380    1.268   .     A
O376   Zn382   2.012   .     S
O377   C380    1.268   .     A
O377   Zn381   2.012   .     S
O378   C379    1.268   .     A
O378   Zn382   2.012   .     S
C379   C390    1.422   .     S
C380   C389    1.422   .     S
Zn381  N384    1.975   .     S
Zn382  N383    1.975   .     S
N384   N659    1.194   .     S
C385   C393    1.403   .     A
C385   O407    1.384   .     S
C385   C389    1.393   .     A
C386   C394    1.403   .     A
C386   O409    1.384   .     S
C386   C390    1.393   .     A
C387   C391    1.397   .     A
C387   C389    1.405   .     A
C387   O411    1.388   .     S
C388   O413    1.388   .     S
C388   C390    1.405   .     A
C388   C392    1.397   .     A
C391   C395    1.409   .     A
C391   C397    1.396   .     A
C392   C398    1.396   .     A
C392   C396    1.409   .     A
C393   C399    1.398   .     A
C393   C395    1.409   .     A
C394   C400    1.398   .     A
C394   C396    1.409   .     A
C395   C442    1.403   .     S
C396   C441    1.403   1_455 S
C397   Cl403   1.763   .     S
C397   C446    1.395   .     S
C398   Cl404   1.763   .     S
C398   C445    1.395   1_455 S
C399   Cl405   1.765   .     S
C399   C444    1.395   .     S
C400   Cl406   1.765   .     S
C400   C443    1.395   1_455 S
C402   C493    1.183   .     S
O407   H408    0.990   .     S
O409   H410    0.990   .     S
O411   H412    0.988   .     S
O413   H414    0.988   .     S
O415   C419    1.270   .     A
O415   Zn427   1.996   .     S
O416   C420    1.270   .     A
O416   Zn428   1.996   .     S
O417   Zn427   1.996   .     S
O417   C420    1.270   .     A
O418   Zn428   1.996   .     S
O418   C419    1.270   .     A
C419   C447    1.396   .     S
C420   C448    1.396   .     S
O421   C425    1.268   .     A
O421   Zn427   2.012   .     S
O422   C426    1.268   .     A
O422   Zn428   2.012   .     S
O423   C426    1.268   .     A
O423   Zn427   2.012   .     S
O424   C425    1.268   .     A
O424   Zn428   2.012   .     S
C425   C436    1.422   .     S
C426   C435    1.422   .     S
Zn427  N430    1.975   .     S
Zn428  N429    1.975   .     S
N430   N705    1.194   .     S
C431   C439    1.403   .     A
C431   O453    1.384   .     S
C431   C435    1.393   .     A
C432   C440    1.403   .     A
C432   O455    1.384   .     S
C432   C436    1.393   .     A
C433   C437    1.397   .     A
C433   C435    1.405   .     A
C433   O457    1.388   .     S
C434   O459    1.388   .     S
C434   C436    1.405   .     A
C434   C438    1.397   .     A
C437   C441    1.409   .     A
C437   C443    1.396   .     A
C438   C444    1.396   .     A
C438   C442    1.409   .     A
C439   C445    1.398   .     A
C439   C441    1.409   .     A
C440   C446    1.398   .     A
C440   C442    1.409   .     A
C441   C396    1.403   1_655 S
C443   Cl449   1.763   .     S
C443   C400    1.395   1_655 S
C444   Cl450   1.763   .     S
C445   Cl451   1.765   .     S
C445   C398    1.395   1_655 S
C446   Cl452   1.765   .     S
C448   C539    1.183   .     S
O453   H454    0.990   .     S
O455   H456    0.990   .     S
O457   H458    0.988   .     S
O459   H460    0.988   .     S
O461   C465    1.270   .     A
O461   Zn473   1.996   .     S
O462   C466    1.270   .     A
O462   Zn474   1.996   .     S
O463   Zn473   1.996   .     S
O463   C466    1.270   .     A
O464   Zn474   1.996   .     S
O464   C465    1.270   .     A
C465   C493    1.396   .     S
C466   C494    1.396   .     S
O467   C471    1.268   .     A
O467   Zn473   2.012   .     S
O468   C472    1.268   .     A
O468   Zn474   2.012   .     S
O469   C472    1.268   .     A
O469   Zn473   2.012   .     S
O470   C471    1.268   .     A
O470   Zn474   2.012   .     S
C471   C482    1.422   .     S
C472   C481    1.422   .     S
Zn473  N476    1.975   .     S
Zn474  N475    1.975   .     S
N476   N751    1.194   .     S
C477   C485    1.403   .     A
C477   O499    1.384   .     S
C477   C481    1.393   .     A
C478   C486    1.403   .     A
C478   O501    1.384   .     S
C478   C482    1.393   .     A
C479   C483    1.397   .     A
C479   C481    1.405   .     A
C479   O503    1.388   .     S
C480   O505    1.388   .     S
C480   C482    1.405   .     A
C480   C484    1.397   .     A
C483   C487    1.409   .     A
C483   C489    1.396   .     A
C484   C490    1.396   .     A
C484   C488    1.409   .     A
C485   C491    1.398   .     A
C485   C487    1.409   .     A
C486   C492    1.398   .     A
C486   C488    1.409   .     A
C487   C534    1.403   .     S
C488   C533    1.403   1_455 S
C489   Cl495   1.763   .     S
C489   C538    1.395   .     S
C490   Cl496   1.763   .     S
C490   C537    1.395   1_455 S
C491   Cl497   1.765   .     S
C491   C536    1.395   .     S
C492   Cl498   1.765   .     S
C492   C535    1.395   1_455 S
C494   C309    1.183   1_565 S
O499   H500    0.990   .     S
O501   H502    0.990   .     S
O503   H504    0.988   .     S
O505   H506    0.988   .     S
O507   C511    1.270   .     A
O507   Zn519   1.996   .     S
O508   C512    1.270   .     A
O508   Zn520   1.996   .     S
O509   Zn519   1.996   .     S
O509   C512    1.270   .     A
O510   Zn520   1.996   .     S
O510   C511    1.270   .     A
C511   C539    1.396   .     S
C512   C540    1.396   .     S
O513   C517    1.268   .     A
O513   Zn519   2.012   .     S
O514   C518    1.268   .     A
O514   Zn520   2.012   .     S
O515   C518    1.268   .     A
O515   Zn519   2.012   .     S
O516   C517    1.268   .     A
O516   Zn520   2.012   .     S
C517   C528    1.422   .     S
C518   C527    1.422   .     S
Zn519  N522    1.975   .     S
Zn520  N521    1.975   .     S
N522   N797    1.194   .     S
C523   C531    1.403   .     A
C523   O545    1.384   .     S
C523   C527    1.393   .     A
C524   C532    1.403   .     A
C524   O547    1.384   .     S
C524   C528    1.393   .     A
C525   C529    1.397   .     A
C525   C527    1.405   .     A
C525   O549    1.388   .     S
C526   O551    1.388   .     S
C526   C528    1.405   .     A
C526   C530    1.397   .     A
C529   C533    1.409   .     A
C529   C535    1.396   .     A
C530   C536    1.396   .     A
C530   C534    1.409   .     A
C531   C537    1.398   .     A
C531   C533    1.409   .     A
C532   C538    1.398   .     A
C532   C534    1.409   .     A
C533   C488    1.403   1_655 S
C535   Cl541   1.763   .     S
C535   C492    1.395   1_655 S
C536   Cl542   1.763   .     S
C537   Cl543   1.765   .     S
C537   C490    1.395   1_655 S
C538   Cl544   1.765   .     S
C540   C355    1.183   1_565 S
O545   H546    0.990   .     S
O547   H548    0.990   .     S
O549   H550    0.988   .     S
O551   H552    0.988   .     S
O553   C557    1.270   .     A
O553   Zn565   1.996   .     S
O554   C558    1.270   .     A
O554   Zn566   1.996   .     S
O555   Zn565   1.996   .     S
O555   C558    1.270   .     A
O556   Zn566   1.996   .     S
O556   C557    1.270   .     A
C557   C585    1.396   .     S
C558   C586    1.396   .     S
O559   C563    1.268   .     A
O559   Zn565   2.012   .     S
O560   C564    1.268   .     A
O560   Zn566   2.012   .     S
O561   C564    1.268   .     A
O561   Zn565   2.012   .     S
O562   C563    1.268   .     A
O562   Zn566   2.012   .     S
C563   C574    1.422   .     S
C564   C573    1.422   .     S
Zn565  N568    1.975   .     S
Zn566  N567    1.975   .     S
N568   N15     1.194   1_556 S
C569   C577    1.403   .     A
C569   O591    1.384   .     S
C569   C573    1.393   .     A
C570   C578    1.403   .     A
C570   O593    1.384   .     S
C570   C574    1.393   .     A
C571   C575    1.397   .     A
C571   C573    1.405   .     A
C571   O595    1.388   .     S
C572   O597    1.388   .     S
C572   C574    1.405   .     A
C572   C576    1.397   .     A
C575   C579    1.409   .     A
C575   C581    1.396   .     A
C576   C582    1.396   .     A
C576   C580    1.409   .     A
C577   C583    1.398   .     A
C577   C579    1.409   .     A
C578   C584    1.398   .     A
C578   C580    1.409   .     A
C579   C626    1.403   .     S
C580   C625    1.403   1_455 S
C581   Cl587   1.763   .     S
C581   C630    1.395   .     S
C582   Cl588   1.763   .     S
C582   C629    1.395   1_455 S
C583   Cl589   1.765   .     S
C583   C628    1.395   .     S
C584   Cl590   1.765   .     S
C584   C627    1.395   1_455 S
C585   C770    1.183   1_545 S
C586   C677    1.183   .     S
O591   H592    0.990   .     S
O593   H594    0.990   .     S
O595   H596    0.988   .     S
O597   H598    0.988   .     S
O599   C603    1.270   .     A
O599   Zn611   1.996   .     S
O600   C604    1.270   .     A
O600   Zn612   1.996   .     S
O601   Zn611   1.996   .     S
O601   C604    1.270   .     A
O602   Zn612   1.996   .     S
O602   C603    1.270   .     A
C603   C631    1.396   .     S
C604   C632    1.396   .     S
O605   C609    1.268   .     A
O605   Zn611   2.012   .     S
O606   C610    1.268   .     A
O606   Zn612   2.012   .     S
O607   C610    1.268   .     A
O607   Zn611   2.012   .     S
O608   C609    1.268   .     A
O608   Zn612   2.012   .     S
C609   C620    1.422   .     S
C610   C619    1.422   .     S
Zn611  N614    1.975   .     S
Zn612  N613    1.975   .     S
N614   N61     1.194   1_556 S
C615   C623    1.403   .     A
C615   O637    1.384   .     S
C615   C619    1.393   .     A
C616   C624    1.403   .     A
C616   O639    1.384   .     S
C616   C620    1.393   .     A
C617   C621    1.397   .     A
C617   C619    1.405   .     A
C617   O641    1.388   .     S
C618   O643    1.388   .     S
C618   C620    1.405   .     A
C618   C622    1.397   .     A
C621   C625    1.409   .     A
C621   C627    1.396   .     A
C622   C628    1.396   .     A
C622   C626    1.409   .     A
C623   C629    1.398   .     A
C623   C625    1.409   .     A
C624   C630    1.398   .     A
C624   C626    1.409   .     A
C625   C580    1.403   1_655 S
C627   Cl633   1.763   .     S
C627   C584    1.395   1_655 S
C628   Cl634   1.763   .     S
C629   Cl635   1.765   .     S
C629   C582    1.395   1_655 S
C630   Cl636   1.765   .     S
C631   C816    1.183   1_545 S
C632   C723    1.183   .     S
O637   H638    0.990   .     S
O639   H640    0.990   .     S
O641   H642    0.988   .     S
O643   H644    0.988   .     S
O645   C649    1.270   .     A
O645   Zn657   1.996   .     S
O646   C650    1.270   .     A
O646   Zn658   1.996   .     S
O647   Zn657   1.996   .     S
O647   C650    1.270   .     A
O648   Zn658   1.996   .     S
O648   C649    1.270   .     A
C649   C677    1.396   .     S
C650   C678    1.396   .     S
O651   C655    1.268   .     A
O651   Zn657   2.012   .     S
O652   C656    1.268   .     A
O652   Zn658   2.012   .     S
O653   C656    1.268   .     A
O653   Zn657   2.012   .     S
O654   C655    1.268   .     A
O654   Zn658   2.012   .     S
C655   C666    1.422   .     S
C656   C665    1.422   .     S
Zn657  N660    1.975   .     S
Zn658  N659    1.975   .     S
N660   N107    1.194   1_556 S
C661   C669    1.403   .     A
C661   O683    1.384   .     S
C661   C665    1.393   .     A
C662   C670    1.403   .     A
C662   O685    1.384   .     S
C662   C666    1.393   .     A
C663   C667    1.397   .     A
C663   C665    1.405   .     A
C663   O687    1.388   .     S
C664   O689    1.388   .     S
C664   C666    1.405   .     A
C664   C668    1.397   .     A
C667   C671    1.409   .     A
C667   C673    1.396   .     A
C668   C674    1.396   .     A
C668   C672    1.409   .     A
C669   C675    1.398   .     A
C669   C671    1.409   .     A
C670   C676    1.398   .     A
C670   C672    1.409   .     A
C671   C718    1.403   .     S
C672   C717    1.403   1_455 S
C673   Cl679   1.763   .     S
C673   C722    1.395   .     S
C674   Cl680   1.763   .     S
C674   C721    1.395   1_455 S
C675   Cl681   1.765   .     S
C675   C720    1.395   .     S
C676   Cl682   1.765   .     S
C676   C719    1.395   1_455 S
C678   C769    1.183   .     S
O683   H684    0.990   .     S
O685   H686    0.990   .     S
O687   H688    0.988   .     S
O689   H690    0.988   .     S
O691   C695    1.270   .     A
O691   Zn703   1.996   .     S
O692   C696    1.270   .     A
O692   Zn704   1.996   .     S
O693   Zn703   1.996   .     S
O693   C696    1.270   .     A
O694   Zn704   1.996   .     S
O694   C695    1.270   .     A
C695   C723    1.396   .     S
C696   C724    1.396   .     S
O697   C701    1.268   .     A
O697   Zn703   2.012   .     S
O698   C702    1.268   .     A
O698   Zn704   2.012   .     S
O699   C702    1.268   .     A
O699   Zn703   2.012   .     S
O700   C701    1.268   .     A
O700   Zn704   2.012   .     S
C701   C712    1.422   .     S
C702   C711    1.422   .     S
Zn703  N706    1.975   .     S
Zn704  N705    1.975   .     S
N706   N153    1.194   1_556 S
C707   C715    1.403   .     A
C707   O729    1.384   .     S
C707   C711    1.393   .     A
C708   C716    1.403   .     A
C708   O731    1.384   .     S
C708   C712    1.393   .     A
C709   C713    1.397   .     A
C709   C711    1.405   .     A
C709   O733    1.388   .     S
C710   O735    1.388   .     S
C710   C712    1.405   .     A
C710   C714    1.397   .     A
C713   C717    1.409   .     A
C713   C719    1.396   .     A
C714   C720    1.396   .     A
C714   C718    1.409   .     A
C715   C721    1.398   .     A
C715   C717    1.409   .     A
C716   C722    1.398   .     A
C716   C718    1.409   .     A
C717   C672    1.403   1_655 S
C719   Cl725   1.763   .     S
C719   C676    1.395   1_655 S
C720   Cl726   1.763   .     S
C721   Cl727   1.765   .     S
C721   C674    1.395   1_655 S
C722   Cl728   1.765   .     S
C724   C815    1.183   .     S
O729   H730    0.990   .     S
O731   H732    0.990   .     S
O733   H734    0.988   .     S
O735   H736    0.988   .     S
O737   C741    1.270   .     A
O737   Zn749   1.996   .     S
O738   C742    1.270   .     A
O738   Zn750   1.996   .     S
O739   Zn749   1.996   .     S
O739   C742    1.270   .     A
O740   Zn750   1.996   .     S
O740   C741    1.270   .     A
C741   C769    1.396   .     S
C742   C770    1.396   .     S
O743   C747    1.268   .     A
O743   Zn749   2.012   .     S
O744   C748    1.268   .     A
O744   Zn750   2.012   .     S
O745   C748    1.268   .     A
O745   Zn749   2.012   .     S
O746   C747    1.268   .     A
O746   Zn750   2.012   .     S
C747   C758    1.422   .     S
C748   C757    1.422   .     S
Zn749  N752    1.975   .     S
Zn750  N751    1.975   .     S
N752   N199    1.194   1_556 S
C753   C761    1.403   .     A
C753   O775    1.384   .     S
C753   C757    1.393   .     A
C754   C762    1.403   .     A
C754   O777    1.384   .     S
C754   C758    1.393   .     A
C755   C759    1.397   .     A
C755   C757    1.405   .     A
C755   O779    1.388   .     S
C756   O781    1.388   .     S
C756   C758    1.405   .     A
C756   C760    1.397   .     A
C759   C763    1.409   .     A
C759   C765    1.396   .     A
C760   C766    1.396   .     A
C760   C764    1.409   .     A
C761   C767    1.398   .     A
C761   C763    1.409   .     A
C762   C768    1.398   .     A
C762   C764    1.409   .     A
C763   C810    1.403   .     S
C764   C809    1.403   1_455 S
C765   Cl771   1.763   .     S
C765   C814    1.395   .     S
C766   Cl772   1.763   .     S
C766   C813    1.395   1_455 S
C767   Cl773   1.765   .     S
C767   C812    1.395   .     S
C768   Cl774   1.765   .     S
C768   C811    1.395   1_455 S
C770   C585    1.183   1_565 S
O775   H776    0.990   .     S
O777   H778    0.990   .     S
O779   H780    0.988   .     S
O781   H782    0.988   .     S
O783   C787    1.270   .     A
O783   Zn795   1.996   .     S
O784   C788    1.270   .     A
O784   Zn796   1.996   .     S
O785   Zn795   1.996   .     S
O785   C788    1.270   .     A
O786   Zn796   1.996   .     S
O786   C787    1.270   .     A
C787   C815    1.396   .     S
C788   C816    1.396   .     S
O789   C793    1.268   .     A
O789   Zn795   2.012   .     S
O790   C794    1.268   .     A
O790   Zn796   2.012   .     S
O791   C794    1.268   .     A
O791   Zn795   2.012   .     S
O792   C793    1.268   .     A
O792   Zn796   2.012   .     S
C793   C804    1.422   .     S
C794   C803    1.422   .     S
Zn795  N798    1.975   .     S
Zn796  N797    1.975   .     S
N798   N245    1.194   1_556 S
C799   C807    1.403   .     A
C799   O821    1.384   .     S
C799   C803    1.393   .     A
C800   C808    1.403   .     A
C800   O823    1.384   .     S
C800   C804    1.393   .     A
C801   C805    1.397   .     A
C801   C803    1.405   .     A
C801   O825    1.388   .     S
C802   O827    1.388   .     S
C802   C804    1.405   .     A
C802   C806    1.397   .     A
C805   C809    1.409   .     A
C805   C811    1.396   .     A
C806   C812    1.396   .     A
C806   C810    1.409   .     A
C807   C813    1.398   .     A
C807   C809    1.409   .     A
C808   C814    1.398   .     A
C808   C810    1.409   .     A
C809   C764    1.403   1_655 S
C811   Cl817   1.763   .     S
C811   C768    1.395   1_655 S
C812   Cl818   1.763   .     S
C813   Cl819   1.765   .     S
C813   C766    1.395   1_655 S
C814   Cl820   1.765   .     S
C816   C631    1.183   1_565 S
O821   H822    0.990   .     S
O823   H824    0.990   .     S
O825   H826    0.988   .     S
O827   H828    0.988   .     S
