data_str_m3_o10_o18_pcu_sym.107
_audit_creation_date              2020-01-03
_audit_creation_method            'Materials Studio'
_symmetry_space_group_name_H-M    'P1'
_symmetry_Int_Tables_number       1
_symmetry_cell_setting            triclinic
loop_
_symmetry_equiv_pos_as_xyz
  x,y,z
_cell_length_a                    23.6138
_cell_length_b                    25.6696
_cell_length_c                    27.4184
_cell_angle_alpha                 93.8937
_cell_angle_beta                  92.7595
_cell_angle_gamma                 94.2047
loop_
_atom_site_label
_atom_site_type_symbol
_atom_site_fract_x
_atom_site_fract_y
_atom_site_fract_z
_atom_site_U_iso_or_equiv
_atom_site_adp_type
_atom_site_occupancy
C1     C     0.01502   0.26485   0.24884   0.00000  Uiso   1.00
C2     C     0.31240   0.16244   0.15891   0.00000  Uiso   1.00
C3     C     0.03063   0.17326   0.39398   0.00000  Uiso   1.00
C4     C     0.30099   0.15296   0.10653   0.00000  Uiso   1.00
C5     C     0.01325   0.21052   0.47447   0.00000  Uiso   1.00
C6     C     0.30768   0.09799   0.03247   0.00000  Uiso   1.00
C7     C     0.32952   0.20061   0.42521   0.00000  Uiso   1.00
C8     C     0.32962   0.11632   0.07903   0.00000  Uiso   1.00
C9     C     0.07905   0.15222   0.41255   0.00000  Uiso   1.00
C10    C     0.25283   0.17313   0.08672   0.00000  Uiso   1.00
C11    C     0.09720   0.16158   0.46171   0.00000  Uiso   1.00
C12    C     0.31831   0.06848   0.25113   0.00000  Uiso   1.00
C13    C     0.22640   0.15104   0.04279   0.00000  Uiso   1.00
C14    C     0.06463   0.19300   0.49243   0.00000  Uiso   1.00
C15    C     0.25551   0.11410   0.01466   0.00000  Uiso   1.00
C16    C     0.14909   0.14393   0.47989   0.00000  Uiso   1.00
C17    C     0.17142   0.16377   0.02690   0.00000  Uiso   1.00
C18    C     0.13420   0.10039   0.16862   0.00000  Uiso   1.00
C19    C     0.16285   0.06150   0.13549   0.00000  Uiso   1.00
C20    C     0.19876   0.23147   0.33222   0.00000  Uiso   1.00
C21    C     0.16978   0.26943   0.36606   0.00000  Uiso   1.00
C22    C     0.13727   0.19419   0.05707   0.00000  Uiso   1.00
C23    C     0.17927   0.10714   0.45265   0.00000  Uiso   1.00
C24    C     0.08447   0.20778   0.04021   0.00000  Uiso   1.00
C25    C     0.23150   0.09254   0.46991   0.00000  Uiso   1.00
C26    C     0.02280   0.31945   0.24805   0.00000  Uiso   1.00
C27    C     0.31052   0.01388   0.25186   0.00000  Uiso   1.00
C28    C     0.02084   0.17033   0.34113   0.00000  Uiso   1.00
H29    H     0.05970   0.23115   0.06437   0.00000  Uiso   1.00
H30    H     0.16264   0.08710   0.41859   0.00000  Uiso   1.00
H31    H     0.06576   0.00326   0.24433   0.00000  Uiso   1.00
H32    H     0.26756   0.33007   0.25558   0.00000  Uiso   1.00
H33    H     0.12984   0.13651   0.14894   0.00000  Uiso   1.00
H34    H     0.09183   0.08213   0.17585   0.00000  Uiso   1.00
H35    H     0.16537   0.02393   0.15304   0.00000  Uiso   1.00
H36    H     0.13797   0.05408   0.09996   0.00000  Uiso   1.00
H37    H     0.20649   0.07730   0.12855   0.00000  Uiso   1.00
H38    H     0.24118   0.25007   0.32546   0.00000  Uiso   1.00
H39    H     0.20296   0.19475   0.35115   0.00000  Uiso   1.00
H40    H     0.25293   0.06382   0.44828   0.00000  Uiso   1.00
H41    H     0.12670   0.25259   0.37358   0.00000  Uiso   1.00
H42    H     0.19527   0.27713   0.40127   0.00000  Uiso   1.00
H43    H     0.16590   0.30704   0.34884   0.00000  Uiso   1.00
H44    H     0.23524   0.20426   0.10804   0.00000  Uiso   1.00
H45    H     0.10433   0.13196   0.38688   0.00000  Uiso   1.00
H46    H     0.03390   0.10033   0.09420   0.00000  Uiso   1.00
H47    H     0.29142   0.21672   0.41116   0.00000  Uiso   1.00
H48    H     0.32087   0.23357   0.49803   0.00000  Uiso   1.00
H49    H     0.32998   0.06948   0.01142   0.00000  Uiso   1.00
H50    H     0.14929   0.20719   0.09453   0.00000  Uiso   1.00
N51    N     0.14695   0.15216   0.23740   0.00000  Uiso   1.00
N52    N     0.18638   0.18117   0.26261   0.00000  Uiso   1.00
O53    O     0.29719   0.24631   0.25310   0.00000  Uiso   1.00
O54    O     0.16565   0.22153   0.28820   0.00000  Uiso   1.00
O55    O     0.03614   0.08702   0.24691   0.00000  Uiso   1.00
O56    O     0.05822   0.23702   0.24502   0.00000  Uiso   1.00
O57    O     0.27512   0.09632   0.25499   0.00000  Uiso   1.00
O58    O     0.30328   0.17397   0.32247   0.00000  Uiso   1.00
O59    O     0.03005   0.15937   0.17753   0.00000  Uiso   1.00
O60    O     0.06431   0.16467   0.31439   0.00000  Uiso   1.00
O61    O     0.26902   0.16866   0.18561   0.00000  Uiso   1.00
O62    O     0.16764   0.11140   0.21235   0.00000  Uiso   1.00
Zn63   Zn    0.27033   0.17287   0.25540   0.00000  Uiso   1.00
Zn64   Zn    0.06300   0.16046   0.24461   0.00000  Uiso   1.00
C65    C     0.34835   0.26485   0.24884   0.00000  Uiso   1.00
C66    C     0.64573   0.16244   0.15891   0.00000  Uiso   1.00
C67    C     0.36397   0.17326   0.39398   0.00000  Uiso   1.00
C68    C     0.63433   0.15296   0.10653   0.00000  Uiso   1.00
C69    C     0.34658   0.21052   0.47447   0.00000  Uiso   1.00
C70    C     0.64101   0.09799   0.03247   0.00000  Uiso   1.00
C71    C     0.66285   0.20061   0.42521   0.00000  Uiso   1.00
C72    C     0.66296   0.11632   0.07903   0.00000  Uiso   1.00
C73    C     0.41238   0.15222   0.41255   0.00000  Uiso   1.00
C74    C     0.58616   0.17313   0.08672   0.00000  Uiso   1.00
C75    C     0.43053   0.16158   0.46171   0.00000  Uiso   1.00
C76    C     0.65164   0.06848   0.25113   0.00000  Uiso   1.00
C77    C     0.55973   0.15104   0.04279   0.00000  Uiso   1.00
C78    C     0.39797   0.19300   0.49243   0.00000  Uiso   1.00
C79    C     0.58884   0.11410   0.01466   0.00000  Uiso   1.00
C80    C     0.48242   0.14393   0.47989   0.00000  Uiso   1.00
C81    C     0.50475   0.16377   0.02690   0.00000  Uiso   1.00
C82    C     0.46754   0.10039   0.16862   0.00000  Uiso   1.00
C83    C     0.49619   0.06150   0.13549   0.00000  Uiso   1.00
C84    C     0.53210   0.23147   0.33222   0.00000  Uiso   1.00
C85    C     0.50311   0.26943   0.36606   0.00000  Uiso   1.00
C86    C     0.47060   0.19419   0.05707   0.00000  Uiso   1.00
C87    C     0.51261   0.10714   0.45265   0.00000  Uiso   1.00
C88    C     0.41781   0.20778   0.04021   0.00000  Uiso   1.00
C89    C     0.56483   0.09254   0.46991   0.00000  Uiso   1.00
C90    C     0.35613   0.31945   0.24805   0.00000  Uiso   1.00
C91    C     0.64386   0.01388   0.25186   0.00000  Uiso   1.00
C92    C     0.35417   0.17033   0.34113   0.00000  Uiso   1.00
H93    H     0.39304   0.23115   0.06437   0.00000  Uiso   1.00
H94    H     0.49597   0.08710   0.41859   0.00000  Uiso   1.00
H95    H     0.39909   0.00326   0.24433   0.00000  Uiso   1.00
H96    H     0.60090   0.33007   0.25558   0.00000  Uiso   1.00
H97    H     0.46317   0.13651   0.14894   0.00000  Uiso   1.00
H98    H     0.42516   0.08213   0.17585   0.00000  Uiso   1.00
H99    H     0.49870   0.02393   0.15304   0.00000  Uiso   1.00
H100   H     0.47130   0.05408   0.09996   0.00000  Uiso   1.00
H101   H     0.53982   0.07730   0.12855   0.00000  Uiso   1.00
H102   H     0.57451   0.25007   0.32546   0.00000  Uiso   1.00
H103   H     0.53629   0.19475   0.35115   0.00000  Uiso   1.00
H104   H     0.58626   0.06382   0.44828   0.00000  Uiso   1.00
H105   H     0.46004   0.25259   0.37358   0.00000  Uiso   1.00
H106   H     0.52860   0.27713   0.40127   0.00000  Uiso   1.00
H107   H     0.49924   0.30704   0.34884   0.00000  Uiso   1.00
H108   H     0.56858   0.20426   0.10804   0.00000  Uiso   1.00
H109   H     0.43767   0.13196   0.38688   0.00000  Uiso   1.00
H110   H     0.36724   0.10033   0.09420   0.00000  Uiso   1.00
H111   H     0.62475   0.21672   0.41116   0.00000  Uiso   1.00
H112   H     0.65421   0.23357   0.49803   0.00000  Uiso   1.00
H113   H     0.66331   0.06948   0.01142   0.00000  Uiso   1.00
H114   H     0.48262   0.20719   0.09453   0.00000  Uiso   1.00
N115   N     0.48029   0.15216   0.23740   0.00000  Uiso   1.00
N116   N     0.51971   0.18117   0.26261   0.00000  Uiso   1.00
O117   O     0.63052   0.24631   0.25310   0.00000  Uiso   1.00
O118   O     0.49899   0.22153   0.28820   0.00000  Uiso   1.00
O119   O     0.36948   0.08702   0.24691   0.00000  Uiso   1.00
O120   O     0.39155   0.23702   0.24502   0.00000  Uiso   1.00
O121   O     0.60845   0.09632   0.25499   0.00000  Uiso   1.00
O122   O     0.63662   0.17397   0.32247   0.00000  Uiso   1.00
O123   O     0.36338   0.15937   0.17753   0.00000  Uiso   1.00
O124   O     0.39764   0.16467   0.31439   0.00000  Uiso   1.00
O125   O     0.60236   0.16866   0.18561   0.00000  Uiso   1.00
O126   O     0.50097   0.11140   0.21235   0.00000  Uiso   1.00
Zn127  Zn    0.60366   0.17287   0.25540   0.00000  Uiso   1.00
Zn128  Zn    0.39634   0.16046   0.24461   0.00000  Uiso   1.00
C129   C     0.68169   0.26485   0.24884   0.00000  Uiso   1.00
C130   C     0.97907   0.16244   0.15891   0.00000  Uiso   1.00
C131   C     0.69730   0.17326   0.39398   0.00000  Uiso   1.00
C132   C     0.96766   0.15296   0.10653   0.00000  Uiso   1.00
C133   C     0.67991   0.21052   0.47447   0.00000  Uiso   1.00
C134   C     0.97434   0.09799   0.03247   0.00000  Uiso   1.00
C135   C     0.99619   0.20061   0.42521   0.00000  Uiso   1.00
C136   C     0.99629   0.11632   0.07903   0.00000  Uiso   1.00
C137   C     0.74571   0.15222   0.41255   0.00000  Uiso   1.00
C138   C     0.91949   0.17313   0.08672   0.00000  Uiso   1.00
C139   C     0.76386   0.16158   0.46171   0.00000  Uiso   1.00
C140   C     0.98497   0.06848   0.25113   0.00000  Uiso   1.00
C141   C     0.89306   0.15104   0.04279   0.00000  Uiso   1.00
C142   C     0.73130   0.19300   0.49243   0.00000  Uiso   1.00
C143   C     0.92218   0.11410   0.01466   0.00000  Uiso   1.00
C144   C     0.81575   0.14393   0.47989   0.00000  Uiso   1.00
C145   C     0.83809   0.16377   0.02690   0.00000  Uiso   1.00
C146   C     0.80087   0.10039   0.16862   0.00000  Uiso   1.00
C147   C     0.82952   0.06150   0.13549   0.00000  Uiso   1.00
C148   C     0.86543   0.23147   0.33222   0.00000  Uiso   1.00
C149   C     0.83645   0.26943   0.36606   0.00000  Uiso   1.00
C150   C     0.80393   0.19419   0.05707   0.00000  Uiso   1.00
C151   C     0.84594   0.10714   0.45265   0.00000  Uiso   1.00
C152   C     0.75114   0.20778   0.04021   0.00000  Uiso   1.00
C153   C     0.89816   0.09254   0.46991   0.00000  Uiso   1.00
C154   C     0.68946   0.31945   0.24805   0.00000  Uiso   1.00
C155   C     0.97719   0.01388   0.25186   0.00000  Uiso   1.00
C156   C     0.68751   0.17033   0.34113   0.00000  Uiso   1.00
H157   H     0.72637   0.23115   0.06437   0.00000  Uiso   1.00
H158   H     0.82930   0.08710   0.41859   0.00000  Uiso   1.00
H159   H     0.73242   0.00326   0.24433   0.00000  Uiso   1.00
H160   H     0.93423   0.33007   0.25558   0.00000  Uiso   1.00
H161   H     0.79650   0.13651   0.14894   0.00000  Uiso   1.00
H162   H     0.75850   0.08213   0.17585   0.00000  Uiso   1.00
H163   H     0.83203   0.02393   0.15304   0.00000  Uiso   1.00
H164   H     0.80463   0.05408   0.09996   0.00000  Uiso   1.00
H165   H     0.87316   0.07730   0.12855   0.00000  Uiso   1.00
H166   H     0.90785   0.25007   0.32546   0.00000  Uiso   1.00
H167   H     0.86963   0.19475   0.35115   0.00000  Uiso   1.00
H168   H     0.91960   0.06382   0.44828   0.00000  Uiso   1.00
H169   H     0.79337   0.25259   0.37358   0.00000  Uiso   1.00
H170   H     0.86193   0.27713   0.40127   0.00000  Uiso   1.00
H171   H     0.83257   0.30704   0.34884   0.00000  Uiso   1.00
H172   H     0.90191   0.20426   0.10804   0.00000  Uiso   1.00
H173   H     0.77100   0.13196   0.38688   0.00000  Uiso   1.00
H174   H     0.70057   0.10033   0.09420   0.00000  Uiso   1.00
H175   H     0.95809   0.21672   0.41116   0.00000  Uiso   1.00
H176   H     0.98754   0.23357   0.49803   0.00000  Uiso   1.00
H177   H     0.99665   0.06948   0.01142   0.00000  Uiso   1.00
H178   H     0.81595   0.20719   0.09453   0.00000  Uiso   1.00
N179   N     0.81362   0.15216   0.23740   0.00000  Uiso   1.00
N180   N     0.85305   0.18117   0.26261   0.00000  Uiso   1.00
O181   O     0.96386   0.24631   0.25310   0.00000  Uiso   1.00
O182   O     0.83232   0.22153   0.28820   0.00000  Uiso   1.00
O183   O     0.70281   0.08702   0.24691   0.00000  Uiso   1.00
O184   O     0.72488   0.23702   0.24502   0.00000  Uiso   1.00
O185   O     0.94178   0.09632   0.25499   0.00000  Uiso   1.00
O186   O     0.96995   0.17397   0.32247   0.00000  Uiso   1.00
O187   O     0.69672   0.15937   0.17753   0.00000  Uiso   1.00
O188   O     0.73098   0.16467   0.31439   0.00000  Uiso   1.00
O189   O     0.93569   0.16866   0.18561   0.00000  Uiso   1.00
O190   O     0.83430   0.11140   0.21235   0.00000  Uiso   1.00
Zn191  Zn    0.93700   0.17287   0.25540   0.00000  Uiso   1.00
Zn192  Zn    0.72967   0.16046   0.24461   0.00000  Uiso   1.00
C193   C     0.01502   0.59819   0.24884   0.00000  Uiso   1.00
C194   C     0.31240   0.49578   0.15891   0.00000  Uiso   1.00
C195   C     0.03063   0.50660   0.39398   0.00000  Uiso   1.00
C196   C     0.30099   0.48629   0.10653   0.00000  Uiso   1.00
C197   C     0.01325   0.54385   0.47447   0.00000  Uiso   1.00
C198   C     0.30768   0.43133   0.03247   0.00000  Uiso   1.00
C199   C     0.32952   0.53394   0.42521   0.00000  Uiso   1.00
C200   C     0.32962   0.44965   0.07903   0.00000  Uiso   1.00
C201   C     0.07905   0.48555   0.41255   0.00000  Uiso   1.00
C202   C     0.25283   0.50647   0.08672   0.00000  Uiso   1.00
C203   C     0.09720   0.49491   0.46171   0.00000  Uiso   1.00
C204   C     0.31831   0.40181   0.25113   0.00000  Uiso   1.00
C205   C     0.22640   0.48437   0.04279   0.00000  Uiso   1.00
C206   C     0.06463   0.52633   0.49243   0.00000  Uiso   1.00
C207   C     0.25551   0.44743   0.01466   0.00000  Uiso   1.00
C208   C     0.14909   0.47726   0.47989   0.00000  Uiso   1.00
C209   C     0.17142   0.49710   0.02690   0.00000  Uiso   1.00
C210   C     0.13420   0.43372   0.16862   0.00000  Uiso   1.00
C211   C     0.16285   0.39484   0.13549   0.00000  Uiso   1.00
C212   C     0.19876   0.56480   0.33222   0.00000  Uiso   1.00
C213   C     0.16978   0.60277   0.36606   0.00000  Uiso   1.00
C214   C     0.13727   0.52753   0.05707   0.00000  Uiso   1.00
C215   C     0.17927   0.44047   0.45265   0.00000  Uiso   1.00
C216   C     0.08447   0.54111   0.04021   0.00000  Uiso   1.00
C217   C     0.23150   0.42588   0.46991   0.00000  Uiso   1.00
C218   C     0.02280   0.65278   0.24805   0.00000  Uiso   1.00
C219   C     0.31052   0.34721   0.25186   0.00000  Uiso   1.00
C220   C     0.02084   0.50367   0.34113   0.00000  Uiso   1.00
H221   H     0.05970   0.56449   0.06437   0.00000  Uiso   1.00
H222   H     0.16264   0.42043   0.41859   0.00000  Uiso   1.00
H223   H     0.06576   0.33659   0.24433   0.00000  Uiso   1.00
H224   H     0.26756   0.66340   0.25558   0.00000  Uiso   1.00
H225   H     0.12984   0.46985   0.14894   0.00000  Uiso   1.00
H226   H     0.09183   0.41547   0.17585   0.00000  Uiso   1.00
H227   H     0.16537   0.35727   0.15304   0.00000  Uiso   1.00
H228   H     0.13797   0.38741   0.09996   0.00000  Uiso   1.00
H229   H     0.20649   0.41063   0.12855   0.00000  Uiso   1.00
H230   H     0.24118   0.58340   0.32546   0.00000  Uiso   1.00
H231   H     0.20296   0.52809   0.35115   0.00000  Uiso   1.00
H232   H     0.25293   0.39715   0.44828   0.00000  Uiso   1.00
H233   H     0.12670   0.58592   0.37358   0.00000  Uiso   1.00
H234   H     0.19527   0.61047   0.40127   0.00000  Uiso   1.00
H235   H     0.16590   0.64038   0.34884   0.00000  Uiso   1.00
H236   H     0.23524   0.53759   0.10804   0.00000  Uiso   1.00
H237   H     0.10433   0.46529   0.38688   0.00000  Uiso   1.00
H238   H     0.03390   0.43366   0.09420   0.00000  Uiso   1.00
H239   H     0.29142   0.55005   0.41116   0.00000  Uiso   1.00
H240   H     0.32087   0.56691   0.49803   0.00000  Uiso   1.00
H241   H     0.32998   0.40282   0.01142   0.00000  Uiso   1.00
H242   H     0.14929   0.54052   0.09453   0.00000  Uiso   1.00
N243   N     0.14695   0.48550   0.23740   0.00000  Uiso   1.00
N244   N     0.18638   0.51450   0.26261   0.00000  Uiso   1.00
O245   O     0.29719   0.57964   0.25310   0.00000  Uiso   1.00
O246   O     0.16565   0.55486   0.28820   0.00000  Uiso   1.00
O247   O     0.03614   0.42036   0.24691   0.00000  Uiso   1.00
O248   O     0.05822   0.57035   0.24502   0.00000  Uiso   1.00
O249   O     0.27512   0.42965   0.25499   0.00000  Uiso   1.00
O250   O     0.30328   0.50730   0.32247   0.00000  Uiso   1.00
O251   O     0.03005   0.49270   0.17753   0.00000  Uiso   1.00
O252   O     0.06431   0.49801   0.31439   0.00000  Uiso   1.00
O253   O     0.26902   0.50199   0.18561   0.00000  Uiso   1.00
O254   O     0.16764   0.44473   0.21235   0.00000  Uiso   1.00
Zn255  Zn    0.27033   0.50621   0.25540   0.00000  Uiso   1.00
Zn256  Zn    0.06300   0.49379   0.24461   0.00000  Uiso   1.00
C257   C     0.34835   0.59819   0.24884   0.00000  Uiso   1.00
C258   C     0.64573   0.49578   0.15891   0.00000  Uiso   1.00
C259   C     0.36397   0.50660   0.39398   0.00000  Uiso   1.00
C260   C     0.63433   0.48629   0.10653   0.00000  Uiso   1.00
C261   C     0.34658   0.54385   0.47447   0.00000  Uiso   1.00
C262   C     0.64101   0.43133   0.03247   0.00000  Uiso   1.00
C263   C     0.66285   0.53394   0.42521   0.00000  Uiso   1.00
C264   C     0.66296   0.44965   0.07903   0.00000  Uiso   1.00
C265   C     0.41238   0.48555   0.41255   0.00000  Uiso   1.00
C266   C     0.58616   0.50647   0.08672   0.00000  Uiso   1.00
C267   C     0.43053   0.49491   0.46171   0.00000  Uiso   1.00
C268   C     0.65164   0.40181   0.25113   0.00000  Uiso   1.00
C269   C     0.55973   0.48437   0.04279   0.00000  Uiso   1.00
C270   C     0.39797   0.52633   0.49243   0.00000  Uiso   1.00
C271   C     0.58884   0.44743   0.01466   0.00000  Uiso   1.00
C272   C     0.48242   0.47726   0.47989   0.00000  Uiso   1.00
C273   C     0.50475   0.49710   0.02690   0.00000  Uiso   1.00
C274   C     0.46754   0.43372   0.16862   0.00000  Uiso   1.00
C275   C     0.49619   0.39484   0.13549   0.00000  Uiso   1.00
C276   C     0.53210   0.56480   0.33222   0.00000  Uiso   1.00
C277   C     0.50311   0.60277   0.36606   0.00000  Uiso   1.00
C278   C     0.47060   0.52753   0.05707   0.00000  Uiso   1.00
C279   C     0.51261   0.44047   0.45265   0.00000  Uiso   1.00
C280   C     0.41781   0.54111   0.04021   0.00000  Uiso   1.00
C281   C     0.56483   0.42588   0.46991   0.00000  Uiso   1.00
C282   C     0.35613   0.65278   0.24805   0.00000  Uiso   1.00
C283   C     0.64386   0.34721   0.25186   0.00000  Uiso   1.00
C284   C     0.35417   0.50367   0.34113   0.00000  Uiso   1.00
H285   H     0.39304   0.56449   0.06437   0.00000  Uiso   1.00
H286   H     0.49597   0.42043   0.41859   0.00000  Uiso   1.00
H287   H     0.39909   0.33659   0.24433   0.00000  Uiso   1.00
H288   H     0.60090   0.66340   0.25558   0.00000  Uiso   1.00
H289   H     0.46317   0.46985   0.14894   0.00000  Uiso   1.00
H290   H     0.42516   0.41547   0.17585   0.00000  Uiso   1.00
H291   H     0.49870   0.35727   0.15304   0.00000  Uiso   1.00
H292   H     0.47130   0.38741   0.09996   0.00000  Uiso   1.00
H293   H     0.53982   0.41063   0.12855   0.00000  Uiso   1.00
H294   H     0.57451   0.58340   0.32546   0.00000  Uiso   1.00
H295   H     0.53629   0.52809   0.35115   0.00000  Uiso   1.00
H296   H     0.58626   0.39715   0.44828   0.00000  Uiso   1.00
H297   H     0.46004   0.58592   0.37358   0.00000  Uiso   1.00
H298   H     0.52860   0.61047   0.40127   0.00000  Uiso   1.00
H299   H     0.49924   0.64038   0.34884   0.00000  Uiso   1.00
H300   H     0.56858   0.53759   0.10804   0.00000  Uiso   1.00
H301   H     0.43767   0.46529   0.38688   0.00000  Uiso   1.00
H302   H     0.36724   0.43366   0.09420   0.00000  Uiso   1.00
H303   H     0.62475   0.55005   0.41116   0.00000  Uiso   1.00
H304   H     0.65421   0.56691   0.49803   0.00000  Uiso   1.00
H305   H     0.66331   0.40282   0.01142   0.00000  Uiso   1.00
H306   H     0.48262   0.54052   0.09453   0.00000  Uiso   1.00
N307   N     0.48029   0.48550   0.23740   0.00000  Uiso   1.00
N308   N     0.51971   0.51450   0.26261   0.00000  Uiso   1.00
O309   O     0.63052   0.57964   0.25310   0.00000  Uiso   1.00
O310   O     0.49899   0.55486   0.28820   0.00000  Uiso   1.00
O311   O     0.36948   0.42036   0.24691   0.00000  Uiso   1.00
O312   O     0.39155   0.57035   0.24502   0.00000  Uiso   1.00
O313   O     0.60845   0.42965   0.25499   0.00000  Uiso   1.00
O314   O     0.63662   0.50730   0.32247   0.00000  Uiso   1.00
O315   O     0.36338   0.49270   0.17753   0.00000  Uiso   1.00
O316   O     0.39764   0.49801   0.31439   0.00000  Uiso   1.00
O317   O     0.60236   0.50199   0.18561   0.00000  Uiso   1.00
O318   O     0.50097   0.44473   0.21235   0.00000  Uiso   1.00
Zn319  Zn    0.60366   0.50621   0.25540   0.00000  Uiso   1.00
Zn320  Zn    0.39634   0.49379   0.24461   0.00000  Uiso   1.00
C321   C     0.68169   0.59819   0.24884   0.00000  Uiso   1.00
C322   C     0.97907   0.49578   0.15891   0.00000  Uiso   1.00
C323   C     0.69730   0.50660   0.39398   0.00000  Uiso   1.00
C324   C     0.96766   0.48629   0.10653   0.00000  Uiso   1.00
C325   C     0.67991   0.54385   0.47447   0.00000  Uiso   1.00
C326   C     0.97434   0.43133   0.03247   0.00000  Uiso   1.00
C327   C     0.99619   0.53394   0.42521   0.00000  Uiso   1.00
C328   C     0.99629   0.44965   0.07903   0.00000  Uiso   1.00
C329   C     0.74571   0.48555   0.41255   0.00000  Uiso   1.00
C330   C     0.91949   0.50647   0.08672   0.00000  Uiso   1.00
C331   C     0.76386   0.49491   0.46171   0.00000  Uiso   1.00
C332   C     0.98497   0.40181   0.25113   0.00000  Uiso   1.00
C333   C     0.89306   0.48437   0.04279   0.00000  Uiso   1.00
C334   C     0.73130   0.52633   0.49243   0.00000  Uiso   1.00
C335   C     0.92218   0.44743   0.01466   0.00000  Uiso   1.00
C336   C     0.81575   0.47726   0.47989   0.00000  Uiso   1.00
C337   C     0.83809   0.49710   0.02690   0.00000  Uiso   1.00
C338   C     0.80087   0.43372   0.16862   0.00000  Uiso   1.00
C339   C     0.82952   0.39484   0.13549   0.00000  Uiso   1.00
C340   C     0.86543   0.56480   0.33222   0.00000  Uiso   1.00
C341   C     0.83645   0.60277   0.36606   0.00000  Uiso   1.00
C342   C     0.80393   0.52753   0.05707   0.00000  Uiso   1.00
C343   C     0.84594   0.44047   0.45265   0.00000  Uiso   1.00
C344   C     0.75114   0.54111   0.04021   0.00000  Uiso   1.00
C345   C     0.89816   0.42588   0.46991   0.00000  Uiso   1.00
C346   C     0.68946   0.65278   0.24805   0.00000  Uiso   1.00
C347   C     0.97719   0.34721   0.25186   0.00000  Uiso   1.00
C348   C     0.68751   0.50367   0.34113   0.00000  Uiso   1.00
H349   H     0.72637   0.56449   0.06437   0.00000  Uiso   1.00
H350   H     0.82930   0.42043   0.41859   0.00000  Uiso   1.00
H351   H     0.73242   0.33659   0.24433   0.00000  Uiso   1.00
H352   H     0.93423   0.66340   0.25558   0.00000  Uiso   1.00
H353   H     0.79650   0.46985   0.14894   0.00000  Uiso   1.00
H354   H     0.75850   0.41547   0.17585   0.00000  Uiso   1.00
H355   H     0.83203   0.35727   0.15304   0.00000  Uiso   1.00
H356   H     0.80463   0.38741   0.09996   0.00000  Uiso   1.00
H357   H     0.87316   0.41063   0.12855   0.00000  Uiso   1.00
H358   H     0.90785   0.58340   0.32546   0.00000  Uiso   1.00
H359   H     0.86963   0.52809   0.35115   0.00000  Uiso   1.00
H360   H     0.91960   0.39715   0.44828   0.00000  Uiso   1.00
H361   H     0.79337   0.58592   0.37358   0.00000  Uiso   1.00
H362   H     0.86193   0.61047   0.40127   0.00000  Uiso   1.00
H363   H     0.83257   0.64038   0.34884   0.00000  Uiso   1.00
H364   H     0.90191   0.53759   0.10804   0.00000  Uiso   1.00
H365   H     0.77100   0.46529   0.38688   0.00000  Uiso   1.00
H366   H     0.70057   0.43366   0.09420   0.00000  Uiso   1.00
H367   H     0.95809   0.55005   0.41116   0.00000  Uiso   1.00
H368   H     0.98754   0.56691   0.49803   0.00000  Uiso   1.00
H369   H     0.99665   0.40282   0.01142   0.00000  Uiso   1.00
H370   H     0.81595   0.54052   0.09453   0.00000  Uiso   1.00
N371   N     0.81362   0.48550   0.23740   0.00000  Uiso   1.00
N372   N     0.85305   0.51450   0.26261   0.00000  Uiso   1.00
O373   O     0.96386   0.57964   0.25310   0.00000  Uiso   1.00
O374   O     0.83232   0.55486   0.28820   0.00000  Uiso   1.00
O375   O     0.70281   0.42036   0.24691   0.00000  Uiso   1.00
O376   O     0.72488   0.57035   0.24502   0.00000  Uiso   1.00
O377   O     0.94178   0.42965   0.25499   0.00000  Uiso   1.00
O378   O     0.96995   0.50730   0.32247   0.00000  Uiso   1.00
O379   O     0.69672   0.49270   0.17753   0.00000  Uiso   1.00
O380   O     0.73098   0.49801   0.31439   0.00000  Uiso   1.00
O381   O     0.93569   0.50199   0.18561   0.00000  Uiso   1.00
O382   O     0.83430   0.44473   0.21235   0.00000  Uiso   1.00
Zn383  Zn    0.93700   0.50621   0.25540   0.00000  Uiso   1.00
Zn384  Zn    0.72967   0.49379   0.24461   0.00000  Uiso   1.00
C385   C     0.01502   0.93152   0.24884   0.00000  Uiso   1.00
C386   C     0.31240   0.82911   0.15891   0.00000  Uiso   1.00
C387   C     0.03063   0.83993   0.39398   0.00000  Uiso   1.00
C388   C     0.30099   0.81963   0.10653   0.00000  Uiso   1.00
C389   C     0.01325   0.87718   0.47447   0.00000  Uiso   1.00
C390   C     0.30768   0.76466   0.03247   0.00000  Uiso   1.00
C391   C     0.32952   0.86727   0.42521   0.00000  Uiso   1.00
C392   C     0.32962   0.78298   0.07903   0.00000  Uiso   1.00
C393   C     0.07905   0.81888   0.41255   0.00000  Uiso   1.00
C394   C     0.25283   0.83980   0.08672   0.00000  Uiso   1.00
C395   C     0.09720   0.82824   0.46171   0.00000  Uiso   1.00
C396   C     0.31831   0.73514   0.25113   0.00000  Uiso   1.00
C397   C     0.22640   0.81771   0.04279   0.00000  Uiso   1.00
C398   C     0.06463   0.85966   0.49243   0.00000  Uiso   1.00
C399   C     0.25551   0.78077   0.01466   0.00000  Uiso   1.00
C400   C     0.14909   0.81059   0.47989   0.00000  Uiso   1.00
C401   C     0.17142   0.83044   0.02690   0.00000  Uiso   1.00
C402   C     0.13420   0.76706   0.16862   0.00000  Uiso   1.00
C403   C     0.16285   0.72817   0.13549   0.00000  Uiso   1.00
C404   C     0.19876   0.89814   0.33222   0.00000  Uiso   1.00
C405   C     0.16978   0.93610   0.36606   0.00000  Uiso   1.00
C406   C     0.13727   0.86086   0.05707   0.00000  Uiso   1.00
C407   C     0.17927   0.77380   0.45265   0.00000  Uiso   1.00
C408   C     0.08447   0.87444   0.04021   0.00000  Uiso   1.00
C409   C     0.23150   0.75921   0.46991   0.00000  Uiso   1.00
C410   C     0.02280   0.98612   0.24805   0.00000  Uiso   1.00
C411   C     0.31052   0.68054   0.25186   0.00000  Uiso   1.00
C412   C     0.02084   0.83700   0.34113   0.00000  Uiso   1.00
H413   H     0.05970   0.89782   0.06437   0.00000  Uiso   1.00
H414   H     0.16264   0.75376   0.41859   0.00000  Uiso   1.00
H415   H     0.06576   0.66992   0.24433   0.00000  Uiso   1.00
H416   H     0.26756   0.99674   0.25558   0.00000  Uiso   1.00
H417   H     0.12984   0.80318   0.14894   0.00000  Uiso   1.00
H418   H     0.09183   0.74880   0.17585   0.00000  Uiso   1.00
H419   H     0.16537   0.69060   0.15304   0.00000  Uiso   1.00
H420   H     0.13797   0.72075   0.09996   0.00000  Uiso   1.00
H421   H     0.20649   0.74396   0.12855   0.00000  Uiso   1.00
H422   H     0.24118   0.91674   0.32546   0.00000  Uiso   1.00
H423   H     0.20296   0.86142   0.35115   0.00000  Uiso   1.00
H424   H     0.25293   0.73049   0.44828   0.00000  Uiso   1.00
H425   H     0.12670   0.91926   0.37358   0.00000  Uiso   1.00
H426   H     0.19527   0.94380   0.40127   0.00000  Uiso   1.00
H427   H     0.16590   0.97371   0.34884   0.00000  Uiso   1.00
H428   H     0.23524   0.87092   0.10804   0.00000  Uiso   1.00
H429   H     0.10433   0.79862   0.38688   0.00000  Uiso   1.00
H430   H     0.03390   0.76699   0.09420   0.00000  Uiso   1.00
H431   H     0.29142   0.88339   0.41116   0.00000  Uiso   1.00
H432   H     0.32087   0.90024   0.49803   0.00000  Uiso   1.00
H433   H     0.32998   0.73615   0.01142   0.00000  Uiso   1.00
H434   H     0.14929   0.87386   0.09453   0.00000  Uiso   1.00
N435   N     0.14695   0.81883   0.23740   0.00000  Uiso   1.00
N436   N     0.18638   0.84784   0.26261   0.00000  Uiso   1.00
O437   O     0.29719   0.91298   0.25310   0.00000  Uiso   1.00
O438   O     0.16565   0.88820   0.28820   0.00000  Uiso   1.00
O439   O     0.03614   0.75369   0.24691   0.00000  Uiso   1.00
O440   O     0.05822   0.90368   0.24502   0.00000  Uiso   1.00
O441   O     0.27512   0.76298   0.25499   0.00000  Uiso   1.00
O442   O     0.30328   0.84063   0.32247   0.00000  Uiso   1.00
O443   O     0.03005   0.82603   0.17753   0.00000  Uiso   1.00
O444   O     0.06431   0.83134   0.31439   0.00000  Uiso   1.00
O445   O     0.26902   0.83533   0.18561   0.00000  Uiso   1.00
O446   O     0.16764   0.77806   0.21235   0.00000  Uiso   1.00
Zn447  Zn    0.27033   0.83954   0.25540   0.00000  Uiso   1.00
Zn448  Zn    0.06300   0.82713   0.24461   0.00000  Uiso   1.00
C449   C     0.34835   0.93152   0.24884   0.00000  Uiso   1.00
C450   C     0.64573   0.82911   0.15891   0.00000  Uiso   1.00
C451   C     0.36397   0.83993   0.39398   0.00000  Uiso   1.00
C452   C     0.63433   0.81963   0.10653   0.00000  Uiso   1.00
C453   C     0.34658   0.87718   0.47447   0.00000  Uiso   1.00
C454   C     0.64101   0.76466   0.03247   0.00000  Uiso   1.00
C455   C     0.66285   0.86727   0.42521   0.00000  Uiso   1.00
C456   C     0.66296   0.78298   0.07903   0.00000  Uiso   1.00
C457   C     0.41238   0.81888   0.41255   0.00000  Uiso   1.00
C458   C     0.58616   0.83980   0.08672   0.00000  Uiso   1.00
C459   C     0.43053   0.82824   0.46171   0.00000  Uiso   1.00
C460   C     0.65164   0.73514   0.25113   0.00000  Uiso   1.00
C461   C     0.55973   0.81771   0.04279   0.00000  Uiso   1.00
C462   C     0.39797   0.85966   0.49243   0.00000  Uiso   1.00
C463   C     0.58884   0.78077   0.01466   0.00000  Uiso   1.00
C464   C     0.48242   0.81059   0.47989   0.00000  Uiso   1.00
C465   C     0.50475   0.83044   0.02690   0.00000  Uiso   1.00
C466   C     0.46754   0.76706   0.16862   0.00000  Uiso   1.00
C467   C     0.49619   0.72817   0.13549   0.00000  Uiso   1.00
C468   C     0.53210   0.89814   0.33222   0.00000  Uiso   1.00
C469   C     0.50311   0.93610   0.36606   0.00000  Uiso   1.00
C470   C     0.47060   0.86086   0.05707   0.00000  Uiso   1.00
C471   C     0.51261   0.77380   0.45265   0.00000  Uiso   1.00
C472   C     0.41781   0.87444   0.04021   0.00000  Uiso   1.00
C473   C     0.56483   0.75921   0.46991   0.00000  Uiso   1.00
C474   C     0.35613   0.98612   0.24805   0.00000  Uiso   1.00
C475   C     0.64386   0.68054   0.25186   0.00000  Uiso   1.00
C476   C     0.35417   0.83700   0.34113   0.00000  Uiso   1.00
H477   H     0.39304   0.89782   0.06437   0.00000  Uiso   1.00
H478   H     0.49597   0.75376   0.41859   0.00000  Uiso   1.00
H479   H     0.39909   0.66992   0.24433   0.00000  Uiso   1.00
H480   H     0.60090   0.99674   0.25558   0.00000  Uiso   1.00
H481   H     0.46317   0.80318   0.14894   0.00000  Uiso   1.00
H482   H     0.42516   0.74880   0.17585   0.00000  Uiso   1.00
H483   H     0.49870   0.69060   0.15304   0.00000  Uiso   1.00
H484   H     0.47130   0.72075   0.09996   0.00000  Uiso   1.00
H485   H     0.53982   0.74396   0.12855   0.00000  Uiso   1.00
H486   H     0.57451   0.91674   0.32546   0.00000  Uiso   1.00
H487   H     0.53629   0.86142   0.35115   0.00000  Uiso   1.00
H488   H     0.58626   0.73049   0.44828   0.00000  Uiso   1.00
H489   H     0.46004   0.91926   0.37358   0.00000  Uiso   1.00
H490   H     0.52860   0.94380   0.40127   0.00000  Uiso   1.00
H491   H     0.49924   0.97371   0.34884   0.00000  Uiso   1.00
H492   H     0.56858   0.87092   0.10804   0.00000  Uiso   1.00
H493   H     0.43767   0.79862   0.38688   0.00000  Uiso   1.00
H494   H     0.36724   0.76699   0.09420   0.00000  Uiso   1.00
H495   H     0.62475   0.88339   0.41116   0.00000  Uiso   1.00
H496   H     0.65421   0.90024   0.49803   0.00000  Uiso   1.00
H497   H     0.66331   0.73615   0.01142   0.00000  Uiso   1.00
H498   H     0.48262   0.87386   0.09453   0.00000  Uiso   1.00
N499   N     0.48029   0.81883   0.23740   0.00000  Uiso   1.00
N500   N     0.51971   0.84784   0.26261   0.00000  Uiso   1.00
O501   O     0.63052   0.91298   0.25310   0.00000  Uiso   1.00
O502   O     0.49899   0.88820   0.28820   0.00000  Uiso   1.00
O503   O     0.36948   0.75369   0.24691   0.00000  Uiso   1.00
O504   O     0.39155   0.90368   0.24502   0.00000  Uiso   1.00
O505   O     0.60845   0.76298   0.25499   0.00000  Uiso   1.00
O506   O     0.63662   0.84063   0.32247   0.00000  Uiso   1.00
O507   O     0.36338   0.82603   0.17753   0.00000  Uiso   1.00
O508   O     0.39764   0.83134   0.31439   0.00000  Uiso   1.00
O509   O     0.60236   0.83533   0.18561   0.00000  Uiso   1.00
O510   O     0.50097   0.77806   0.21235   0.00000  Uiso   1.00
Zn511  Zn    0.60366   0.83954   0.25540   0.00000  Uiso   1.00
Zn512  Zn    0.39634   0.82713   0.24461   0.00000  Uiso   1.00
C513   C     0.68169   0.93152   0.24884   0.00000  Uiso   1.00
C514   C     0.97907   0.82911   0.15891   0.00000  Uiso   1.00
C515   C     0.69730   0.83993   0.39398   0.00000  Uiso   1.00
C516   C     0.96766   0.81963   0.10653   0.00000  Uiso   1.00
C517   C     0.67991   0.87718   0.47447   0.00000  Uiso   1.00
C518   C     0.97434   0.76466   0.03247   0.00000  Uiso   1.00
C519   C     0.99619   0.86727   0.42521   0.00000  Uiso   1.00
C520   C     0.99629   0.78298   0.07903   0.00000  Uiso   1.00
C521   C     0.74571   0.81888   0.41255   0.00000  Uiso   1.00
C522   C     0.91949   0.83980   0.08672   0.00000  Uiso   1.00
C523   C     0.76386   0.82824   0.46171   0.00000  Uiso   1.00
C524   C     0.98497   0.73514   0.25113   0.00000  Uiso   1.00
C525   C     0.89306   0.81771   0.04279   0.00000  Uiso   1.00
C526   C     0.73130   0.85966   0.49243   0.00000  Uiso   1.00
C527   C     0.92218   0.78077   0.01466   0.00000  Uiso   1.00
C528   C     0.81575   0.81059   0.47989   0.00000  Uiso   1.00
C529   C     0.83809   0.83044   0.02690   0.00000  Uiso   1.00
C530   C     0.80087   0.76706   0.16862   0.00000  Uiso   1.00
C531   C     0.82952   0.72817   0.13549   0.00000  Uiso   1.00
C532   C     0.86543   0.89814   0.33222   0.00000  Uiso   1.00
C533   C     0.83645   0.93610   0.36606   0.00000  Uiso   1.00
C534   C     0.80393   0.86086   0.05707   0.00000  Uiso   1.00
C535   C     0.84594   0.77380   0.45265   0.00000  Uiso   1.00
C536   C     0.75114   0.87444   0.04021   0.00000  Uiso   1.00
C537   C     0.89816   0.75921   0.46991   0.00000  Uiso   1.00
C538   C     0.68946   0.98612   0.24805   0.00000  Uiso   1.00
C539   C     0.97719   0.68054   0.25186   0.00000  Uiso   1.00
C540   C     0.68751   0.83700   0.34113   0.00000  Uiso   1.00
H541   H     0.72637   0.89782   0.06437   0.00000  Uiso   1.00
H542   H     0.82930   0.75376   0.41859   0.00000  Uiso   1.00
H543   H     0.73242   0.66992   0.24433   0.00000  Uiso   1.00
H544   H     0.93423   0.99674   0.25558   0.00000  Uiso   1.00
H545   H     0.79650   0.80318   0.14894   0.00000  Uiso   1.00
H546   H     0.75850   0.74880   0.17585   0.00000  Uiso   1.00
H547   H     0.83203   0.69060   0.15304   0.00000  Uiso   1.00
H548   H     0.80463   0.72075   0.09996   0.00000  Uiso   1.00
H549   H     0.87316   0.74396   0.12855   0.00000  Uiso   1.00
H550   H     0.90785   0.91674   0.32546   0.00000  Uiso   1.00
H551   H     0.86963   0.86142   0.35115   0.00000  Uiso   1.00
H552   H     0.91960   0.73049   0.44828   0.00000  Uiso   1.00
H553   H     0.79337   0.91926   0.37358   0.00000  Uiso   1.00
H554   H     0.86193   0.94380   0.40127   0.00000  Uiso   1.00
H555   H     0.83257   0.97371   0.34884   0.00000  Uiso   1.00
H556   H     0.90191   0.87092   0.10804   0.00000  Uiso   1.00
H557   H     0.77100   0.79862   0.38688   0.00000  Uiso   1.00
H558   H     0.70057   0.76699   0.09420   0.00000  Uiso   1.00
H559   H     0.95809   0.88339   0.41116   0.00000  Uiso   1.00
H560   H     0.98754   0.90024   0.49803   0.00000  Uiso   1.00
H561   H     0.99665   0.73615   0.01142   0.00000  Uiso   1.00
H562   H     0.81595   0.87386   0.09453   0.00000  Uiso   1.00
N563   N     0.81362   0.81883   0.23740   0.00000  Uiso   1.00
N564   N     0.85305   0.84784   0.26261   0.00000  Uiso   1.00
O565   O     0.96386   0.91298   0.25310   0.00000  Uiso   1.00
O566   O     0.83232   0.88820   0.28820   0.00000  Uiso   1.00
O567   O     0.70281   0.75369   0.24691   0.00000  Uiso   1.00
O568   O     0.72488   0.90368   0.24502   0.00000  Uiso   1.00
O569   O     0.94178   0.76298   0.25499   0.00000  Uiso   1.00
O570   O     0.96995   0.84063   0.32247   0.00000  Uiso   1.00
O571   O     0.69672   0.82603   0.17753   0.00000  Uiso   1.00
O572   O     0.73098   0.83134   0.31439   0.00000  Uiso   1.00
O573   O     0.93569   0.83533   0.18561   0.00000  Uiso   1.00
O574   O     0.83430   0.77806   0.21235   0.00000  Uiso   1.00
Zn575  Zn    0.93700   0.83954   0.25540   0.00000  Uiso   1.00
Zn576  Zn    0.72967   0.82713   0.24461   0.00000  Uiso   1.00
C577   C     0.01502   0.26485   0.74884   0.00000  Uiso   1.00
C578   C     0.31240   0.16244   0.65891   0.00000  Uiso   1.00
C579   C     0.03063   0.17326   0.89398   0.00000  Uiso   1.00
C580   C     0.30099   0.15296   0.60653   0.00000  Uiso   1.00
C581   C     0.01325   0.21052   0.97447   0.00000  Uiso   1.00
C582   C     0.30768   0.09799   0.53247   0.00000  Uiso   1.00
C583   C     0.32952   0.20061   0.92521   0.00000  Uiso   1.00
C584   C     0.32962   0.11632   0.57903   0.00000  Uiso   1.00
C585   C     0.07905   0.15222   0.91255   0.00000  Uiso   1.00
C586   C     0.25283   0.17313   0.58672   0.00000  Uiso   1.00
C587   C     0.09720   0.16158   0.96171   0.00000  Uiso   1.00
C588   C     0.31831   0.06848   0.75113   0.00000  Uiso   1.00
C589   C     0.22640   0.15104   0.54279   0.00000  Uiso   1.00
C590   C     0.06463   0.19300   0.99243   0.00000  Uiso   1.00
C591   C     0.25551   0.11410   0.51466   0.00000  Uiso   1.00
C592   C     0.14909   0.14393   0.97989   0.00000  Uiso   1.00
C593   C     0.17142   0.16377   0.52690   0.00000  Uiso   1.00
C594   C     0.13420   0.10039   0.66862   0.00000  Uiso   1.00
C595   C     0.16285   0.06150   0.63549   0.00000  Uiso   1.00
C596   C     0.19876   0.23147   0.83222   0.00000  Uiso   1.00
C597   C     0.16978   0.26943   0.86606   0.00000  Uiso   1.00
C598   C     0.13727   0.19419   0.55707   0.00000  Uiso   1.00
C599   C     0.17927   0.10714   0.95265   0.00000  Uiso   1.00
C600   C     0.08447   0.20778   0.54021   0.00000  Uiso   1.00
C601   C     0.23150   0.09254   0.96991   0.00000  Uiso   1.00
C602   C     0.02280   0.31945   0.74805   0.00000  Uiso   1.00
C603   C     0.31052   0.01388   0.75186   0.00000  Uiso   1.00
C604   C     0.02084   0.17033   0.84113   0.00000  Uiso   1.00
H605   H     0.05970   0.23115   0.56437   0.00000  Uiso   1.00
H606   H     0.16264   0.08710   0.91859   0.00000  Uiso   1.00
H607   H     0.06576   0.00326   0.74433   0.00000  Uiso   1.00
H608   H     0.26756   0.33007   0.75558   0.00000  Uiso   1.00
H609   H     0.12984   0.13651   0.64894   0.00000  Uiso   1.00
H610   H     0.09183   0.08213   0.67585   0.00000  Uiso   1.00
H611   H     0.16537   0.02393   0.65304   0.00000  Uiso   1.00
H612   H     0.13797   0.05408   0.59996   0.00000  Uiso   1.00
H613   H     0.20649   0.07730   0.62855   0.00000  Uiso   1.00
H614   H     0.24118   0.25007   0.82546   0.00000  Uiso   1.00
H615   H     0.20296   0.19475   0.85115   0.00000  Uiso   1.00
H616   H     0.25293   0.06382   0.94828   0.00000  Uiso   1.00
H617   H     0.12670   0.25259   0.87358   0.00000  Uiso   1.00
H618   H     0.19527   0.27713   0.90127   0.00000  Uiso   1.00
H619   H     0.16590   0.30704   0.84884   0.00000  Uiso   1.00
H620   H     0.23524   0.20426   0.60804   0.00000  Uiso   1.00
H621   H     0.10433   0.13196   0.88688   0.00000  Uiso   1.00
H622   H     0.03390   0.10033   0.59420   0.00000  Uiso   1.00
H623   H     0.29142   0.21672   0.91116   0.00000  Uiso   1.00
H624   H     0.32087   0.23357   0.99803   0.00000  Uiso   1.00
H625   H     0.32998   0.06948   0.51142   0.00000  Uiso   1.00
H626   H     0.14929   0.20719   0.59453   0.00000  Uiso   1.00
N627   N     0.14695   0.15216   0.73740   0.00000  Uiso   1.00
N628   N     0.18638   0.18117   0.76261   0.00000  Uiso   1.00
O629   O     0.29719   0.24631   0.75310   0.00000  Uiso   1.00
O630   O     0.16565   0.22153   0.78820   0.00000  Uiso   1.00
O631   O     0.03614   0.08702   0.74691   0.00000  Uiso   1.00
O632   O     0.05822   0.23702   0.74502   0.00000  Uiso   1.00
O633   O     0.27512   0.09632   0.75499   0.00000  Uiso   1.00
O634   O     0.30328   0.17397   0.82247   0.00000  Uiso   1.00
O635   O     0.03005   0.15937   0.67753   0.00000  Uiso   1.00
O636   O     0.06431   0.16467   0.81439   0.00000  Uiso   1.00
O637   O     0.26902   0.16866   0.68561   0.00000  Uiso   1.00
O638   O     0.16764   0.11140   0.71235   0.00000  Uiso   1.00
Zn639  Zn    0.27033   0.17287   0.75540   0.00000  Uiso   1.00
Zn640  Zn    0.06300   0.16046   0.74461   0.00000  Uiso   1.00
C641   C     0.34835   0.26485   0.74884   0.00000  Uiso   1.00
C642   C     0.64573   0.16244   0.65891   0.00000  Uiso   1.00
C643   C     0.36397   0.17326   0.89398   0.00000  Uiso   1.00
C644   C     0.63433   0.15296   0.60653   0.00000  Uiso   1.00
C645   C     0.34658   0.21052   0.97447   0.00000  Uiso   1.00
C646   C     0.64101   0.09799   0.53247   0.00000  Uiso   1.00
C647   C     0.66285   0.20061   0.92521   0.00000  Uiso   1.00
C648   C     0.66296   0.11632   0.57903   0.00000  Uiso   1.00
C649   C     0.41238   0.15222   0.91255   0.00000  Uiso   1.00
C650   C     0.58616   0.17313   0.58672   0.00000  Uiso   1.00
C651   C     0.43053   0.16158   0.96171   0.00000  Uiso   1.00
C652   C     0.65164   0.06848   0.75113   0.00000  Uiso   1.00
C653   C     0.55973   0.15104   0.54279   0.00000  Uiso   1.00
C654   C     0.39797   0.19300   0.99243   0.00000  Uiso   1.00
C655   C     0.58884   0.11410   0.51466   0.00000  Uiso   1.00
C656   C     0.48242   0.14393   0.97989   0.00000  Uiso   1.00
C657   C     0.50475   0.16377   0.52690   0.00000  Uiso   1.00
C658   C     0.46754   0.10039   0.66862   0.00000  Uiso   1.00
C659   C     0.49619   0.06150   0.63549   0.00000  Uiso   1.00
C660   C     0.53210   0.23147   0.83222   0.00000  Uiso   1.00
C661   C     0.50311   0.26943   0.86606   0.00000  Uiso   1.00
C662   C     0.47060   0.19419   0.55707   0.00000  Uiso   1.00
C663   C     0.51261   0.10714   0.95265   0.00000  Uiso   1.00
C664   C     0.41781   0.20778   0.54021   0.00000  Uiso   1.00
C665   C     0.56483   0.09254   0.96991   0.00000  Uiso   1.00
C666   C     0.35613   0.31945   0.74805   0.00000  Uiso   1.00
C667   C     0.64386   0.01388   0.75186   0.00000  Uiso   1.00
C668   C     0.35417   0.17033   0.84113   0.00000  Uiso   1.00
H669   H     0.39304   0.23115   0.56437   0.00000  Uiso   1.00
H670   H     0.49597   0.08710   0.91859   0.00000  Uiso   1.00
H671   H     0.39909   0.00326   0.74433   0.00000  Uiso   1.00
H672   H     0.60090   0.33007   0.75558   0.00000  Uiso   1.00
H673   H     0.46317   0.13651   0.64894   0.00000  Uiso   1.00
H674   H     0.42516   0.08213   0.67585   0.00000  Uiso   1.00
H675   H     0.49870   0.02393   0.65304   0.00000  Uiso   1.00
H676   H     0.47130   0.05408   0.59996   0.00000  Uiso   1.00
H677   H     0.53982   0.07730   0.62855   0.00000  Uiso   1.00
H678   H     0.57451   0.25007   0.82546   0.00000  Uiso   1.00
H679   H     0.53629   0.19475   0.85115   0.00000  Uiso   1.00
H680   H     0.58626   0.06382   0.94828   0.00000  Uiso   1.00
H681   H     0.46004   0.25259   0.87358   0.00000  Uiso   1.00
H682   H     0.52860   0.27713   0.90127   0.00000  Uiso   1.00
H683   H     0.49924   0.30704   0.84884   0.00000  Uiso   1.00
H684   H     0.56858   0.20426   0.60804   0.00000  Uiso   1.00
H685   H     0.43767   0.13196   0.88688   0.00000  Uiso   1.00
H686   H     0.36724   0.10033   0.59420   0.00000  Uiso   1.00
H687   H     0.62475   0.21672   0.91116   0.00000  Uiso   1.00
H688   H     0.65421   0.23357   0.99803   0.00000  Uiso   1.00
H689   H     0.66331   0.06948   0.51142   0.00000  Uiso   1.00
H690   H     0.48262   0.20719   0.59453   0.00000  Uiso   1.00
N691   N     0.48029   0.15216   0.73740   0.00000  Uiso   1.00
N692   N     0.51971   0.18117   0.76261   0.00000  Uiso   1.00
O693   O     0.63052   0.24631   0.75310   0.00000  Uiso   1.00
O694   O     0.49899   0.22153   0.78820   0.00000  Uiso   1.00
O695   O     0.36948   0.08702   0.74691   0.00000  Uiso   1.00
O696   O     0.39155   0.23702   0.74502   0.00000  Uiso   1.00
O697   O     0.60845   0.09632   0.75499   0.00000  Uiso   1.00
O698   O     0.63662   0.17397   0.82247   0.00000  Uiso   1.00
O699   O     0.36338   0.15937   0.67753   0.00000  Uiso   1.00
O700   O     0.39764   0.16467   0.81439   0.00000  Uiso   1.00
O701   O     0.60236   0.16866   0.68561   0.00000  Uiso   1.00
O702   O     0.50097   0.11140   0.71235   0.00000  Uiso   1.00
Zn703  Zn    0.60366   0.17287   0.75540   0.00000  Uiso   1.00
Zn704  Zn    0.39634   0.16046   0.74461   0.00000  Uiso   1.00
C705   C     0.68169   0.26485   0.74884   0.00000  Uiso   1.00
C706   C     0.97907   0.16244   0.65891   0.00000  Uiso   1.00
C707   C     0.69730   0.17326   0.89398   0.00000  Uiso   1.00
C708   C     0.96766   0.15296   0.60653   0.00000  Uiso   1.00
C709   C     0.67991   0.21052   0.97447   0.00000  Uiso   1.00
C710   C     0.97434   0.09799   0.53247   0.00000  Uiso   1.00
C711   C     0.99619   0.20061   0.92521   0.00000  Uiso   1.00
C712   C     0.99629   0.11632   0.57903   0.00000  Uiso   1.00
C713   C     0.74571   0.15222   0.91255   0.00000  Uiso   1.00
C714   C     0.91949   0.17313   0.58672   0.00000  Uiso   1.00
C715   C     0.76386   0.16158   0.96171   0.00000  Uiso   1.00
C716   C     0.98497   0.06848   0.75113   0.00000  Uiso   1.00
C717   C     0.89306   0.15104   0.54279   0.00000  Uiso   1.00
C718   C     0.73130   0.19300   0.99243   0.00000  Uiso   1.00
C719   C     0.92218   0.11410   0.51466   0.00000  Uiso   1.00
C720   C     0.81575   0.14393   0.97989   0.00000  Uiso   1.00
C721   C     0.83809   0.16377   0.52690   0.00000  Uiso   1.00
C722   C     0.80087   0.10039   0.66862   0.00000  Uiso   1.00
C723   C     0.82952   0.06150   0.63549   0.00000  Uiso   1.00
C724   C     0.86543   0.23147   0.83222   0.00000  Uiso   1.00
C725   C     0.83645   0.26943   0.86606   0.00000  Uiso   1.00
C726   C     0.80393   0.19419   0.55707   0.00000  Uiso   1.00
C727   C     0.84594   0.10714   0.95265   0.00000  Uiso   1.00
C728   C     0.75114   0.20778   0.54021   0.00000  Uiso   1.00
C729   C     0.89816   0.09254   0.96991   0.00000  Uiso   1.00
C730   C     0.68946   0.31945   0.74805   0.00000  Uiso   1.00
C731   C     0.97719   0.01388   0.75186   0.00000  Uiso   1.00
C732   C     0.68751   0.17033   0.84113   0.00000  Uiso   1.00
H733   H     0.72637   0.23115   0.56437   0.00000  Uiso   1.00
H734   H     0.82930   0.08710   0.91859   0.00000  Uiso   1.00
H735   H     0.73242   0.00326   0.74433   0.00000  Uiso   1.00
H736   H     0.93423   0.33007   0.75558   0.00000  Uiso   1.00
H737   H     0.79650   0.13651   0.64894   0.00000  Uiso   1.00
H738   H     0.75850   0.08213   0.67585   0.00000  Uiso   1.00
H739   H     0.83203   0.02393   0.65304   0.00000  Uiso   1.00
H740   H     0.80463   0.05408   0.59996   0.00000  Uiso   1.00
H741   H     0.87316   0.07730   0.62855   0.00000  Uiso   1.00
H742   H     0.90785   0.25007   0.82546   0.00000  Uiso   1.00
H743   H     0.86963   0.19475   0.85115   0.00000  Uiso   1.00
H744   H     0.91960   0.06382   0.94828   0.00000  Uiso   1.00
H745   H     0.79337   0.25259   0.87358   0.00000  Uiso   1.00
H746   H     0.86193   0.27713   0.90127   0.00000  Uiso   1.00
H747   H     0.83257   0.30704   0.84884   0.00000  Uiso   1.00
H748   H     0.90191   0.20426   0.60804   0.00000  Uiso   1.00
H749   H     0.77100   0.13196   0.88688   0.00000  Uiso   1.00
H750   H     0.70057   0.10033   0.59420   0.00000  Uiso   1.00
H751   H     0.95809   0.21672   0.91116   0.00000  Uiso   1.00
H752   H     0.98754   0.23357   0.99803   0.00000  Uiso   1.00
H753   H     0.99665   0.06948   0.51142   0.00000  Uiso   1.00
H754   H     0.81595   0.20719   0.59453   0.00000  Uiso   1.00
N755   N     0.81362   0.15216   0.73740   0.00000  Uiso   1.00
N756   N     0.85305   0.18117   0.76261   0.00000  Uiso   1.00
O757   O     0.96386   0.24631   0.75310   0.00000  Uiso   1.00
O758   O     0.83232   0.22153   0.78820   0.00000  Uiso   1.00
O759   O     0.70281   0.08702   0.74691   0.00000  Uiso   1.00
O760   O     0.72488   0.23702   0.74502   0.00000  Uiso   1.00
O761   O     0.94178   0.09632   0.75499   0.00000  Uiso   1.00
O762   O     0.96995   0.17397   0.82247   0.00000  Uiso   1.00
O763   O     0.69672   0.15937   0.67753   0.00000  Uiso   1.00
O764   O     0.73098   0.16467   0.81439   0.00000  Uiso   1.00
O765   O     0.93569   0.16866   0.68561   0.00000  Uiso   1.00
O766   O     0.83430   0.11140   0.71235   0.00000  Uiso   1.00
Zn767  Zn    0.93700   0.17287   0.75540   0.00000  Uiso   1.00
Zn768  Zn    0.72967   0.16046   0.74461   0.00000  Uiso   1.00
C769   C     0.01502   0.59819   0.74884   0.00000  Uiso   1.00
C770   C     0.31240   0.49578   0.65891   0.00000  Uiso   1.00
C771   C     0.03063   0.50660   0.89398   0.00000  Uiso   1.00
C772   C     0.30099   0.48629   0.60653   0.00000  Uiso   1.00
C773   C     0.01325   0.54385   0.97447   0.00000  Uiso   1.00
C774   C     0.30768   0.43133   0.53247   0.00000  Uiso   1.00
C775   C     0.32952   0.53394   0.92521   0.00000  Uiso   1.00
C776   C     0.32962   0.44965   0.57903   0.00000  Uiso   1.00
C777   C     0.07905   0.48555   0.91255   0.00000  Uiso   1.00
C778   C     0.25283   0.50647   0.58672   0.00000  Uiso   1.00
C779   C     0.09720   0.49491   0.96171   0.00000  Uiso   1.00
C780   C     0.31831   0.40181   0.75113   0.00000  Uiso   1.00
C781   C     0.22640   0.48437   0.54279   0.00000  Uiso   1.00
C782   C     0.06463   0.52633   0.99243   0.00000  Uiso   1.00
C783   C     0.25551   0.44743   0.51466   0.00000  Uiso   1.00
C784   C     0.14909   0.47726   0.97989   0.00000  Uiso   1.00
C785   C     0.17142   0.49710   0.52690   0.00000  Uiso   1.00
C786   C     0.13420   0.43372   0.66862   0.00000  Uiso   1.00
C787   C     0.16285   0.39484   0.63549   0.00000  Uiso   1.00
C788   C     0.19876   0.56480   0.83222   0.00000  Uiso   1.00
C789   C     0.16978   0.60277   0.86606   0.00000  Uiso   1.00
C790   C     0.13727   0.52753   0.55707   0.00000  Uiso   1.00
C791   C     0.17927   0.44047   0.95265   0.00000  Uiso   1.00
C792   C     0.08447   0.54111   0.54021   0.00000  Uiso   1.00
C793   C     0.23150   0.42588   0.96991   0.00000  Uiso   1.00
C794   C     0.02280   0.65278   0.74805   0.00000  Uiso   1.00
C795   C     0.31052   0.34721   0.75186   0.00000  Uiso   1.00
C796   C     0.02084   0.50367   0.84113   0.00000  Uiso   1.00
H797   H     0.05970   0.56449   0.56437   0.00000  Uiso   1.00
H798   H     0.16264   0.42043   0.91859   0.00000  Uiso   1.00
H799   H     0.06576   0.33659   0.74433   0.00000  Uiso   1.00
H800   H     0.26756   0.66340   0.75558   0.00000  Uiso   1.00
H801   H     0.12984   0.46985   0.64894   0.00000  Uiso   1.00
H802   H     0.09183   0.41547   0.67585   0.00000  Uiso   1.00
H803   H     0.16537   0.35727   0.65304   0.00000  Uiso   1.00
H804   H     0.13797   0.38741   0.59996   0.00000  Uiso   1.00
H805   H     0.20649   0.41063   0.62855   0.00000  Uiso   1.00
H806   H     0.24118   0.58340   0.82546   0.00000  Uiso   1.00
H807   H     0.20296   0.52809   0.85115   0.00000  Uiso   1.00
H808   H     0.25293   0.39715   0.94828   0.00000  Uiso   1.00
H809   H     0.12670   0.58592   0.87358   0.00000  Uiso   1.00
H810   H     0.19527   0.61047   0.90127   0.00000  Uiso   1.00
H811   H     0.16590   0.64038   0.84884   0.00000  Uiso   1.00
H812   H     0.23524   0.53759   0.60804   0.00000  Uiso   1.00
H813   H     0.10433   0.46529   0.88688   0.00000  Uiso   1.00
H814   H     0.03390   0.43366   0.59420   0.00000  Uiso   1.00
H815   H     0.29142   0.55005   0.91116   0.00000  Uiso   1.00
H816   H     0.32087   0.56691   0.99803   0.00000  Uiso   1.00
H817   H     0.32998   0.40282   0.51142   0.00000  Uiso   1.00
H818   H     0.14929   0.54052   0.59453   0.00000  Uiso   1.00
N819   N     0.14695   0.48550   0.73740   0.00000  Uiso   1.00
N820   N     0.18638   0.51450   0.76261   0.00000  Uiso   1.00
O821   O     0.29719   0.57964   0.75310   0.00000  Uiso   1.00
O822   O     0.16565   0.55486   0.78820   0.00000  Uiso   1.00
O823   O     0.03614   0.42036   0.74691   0.00000  Uiso   1.00
O824   O     0.05822   0.57035   0.74502   0.00000  Uiso   1.00
O825   O     0.27512   0.42965   0.75499   0.00000  Uiso   1.00
O826   O     0.30328   0.50730   0.82247   0.00000  Uiso   1.00
O827   O     0.03005   0.49270   0.67753   0.00000  Uiso   1.00
O828   O     0.06431   0.49801   0.81439   0.00000  Uiso   1.00
O829   O     0.26902   0.50199   0.68561   0.00000  Uiso   1.00
O830   O     0.16764   0.44473   0.71235   0.00000  Uiso   1.00
Zn831  Zn    0.27033   0.50621   0.75540   0.00000  Uiso   1.00
Zn832  Zn    0.06300   0.49379   0.74461   0.00000  Uiso   1.00
C833   C     0.34835   0.59819   0.74884   0.00000  Uiso   1.00
C834   C     0.64573   0.49578   0.65891   0.00000  Uiso   1.00
C835   C     0.36397   0.50660   0.89398   0.00000  Uiso   1.00
C836   C     0.63433   0.48629   0.60653   0.00000  Uiso   1.00
C837   C     0.34658   0.54385   0.97447   0.00000  Uiso   1.00
C838   C     0.64101   0.43133   0.53247   0.00000  Uiso   1.00
C839   C     0.66285   0.53394   0.92521   0.00000  Uiso   1.00
C840   C     0.66296   0.44965   0.57903   0.00000  Uiso   1.00
C841   C     0.41238   0.48555   0.91255   0.00000  Uiso   1.00
C842   C     0.58616   0.50647   0.58672   0.00000  Uiso   1.00
C843   C     0.43053   0.49491   0.96171   0.00000  Uiso   1.00
C844   C     0.65164   0.40181   0.75113   0.00000  Uiso   1.00
C845   C     0.55973   0.48437   0.54279   0.00000  Uiso   1.00
C846   C     0.39797   0.52633   0.99243   0.00000  Uiso   1.00
C847   C     0.58884   0.44743   0.51466   0.00000  Uiso   1.00
C848   C     0.48242   0.47726   0.97989   0.00000  Uiso   1.00
C849   C     0.50475   0.49710   0.52690   0.00000  Uiso   1.00
C850   C     0.46754   0.43372   0.66862   0.00000  Uiso   1.00
C851   C     0.49619   0.39484   0.63549   0.00000  Uiso   1.00
C852   C     0.53210   0.56480   0.83222   0.00000  Uiso   1.00
C853   C     0.50311   0.60277   0.86606   0.00000  Uiso   1.00
C854   C     0.47060   0.52753   0.55707   0.00000  Uiso   1.00
C855   C     0.51261   0.44047   0.95265   0.00000  Uiso   1.00
C856   C     0.41781   0.54111   0.54021   0.00000  Uiso   1.00
C857   C     0.56483   0.42588   0.96991   0.00000  Uiso   1.00
C858   C     0.35613   0.65278   0.74805   0.00000  Uiso   1.00
C859   C     0.64386   0.34721   0.75186   0.00000  Uiso   1.00
C860   C     0.35417   0.50367   0.84113   0.00000  Uiso   1.00
H861   H     0.39304   0.56449   0.56437   0.00000  Uiso   1.00
H862   H     0.49597   0.42043   0.91859   0.00000  Uiso   1.00
H863   H     0.39909   0.33659   0.74433   0.00000  Uiso   1.00
H864   H     0.60090   0.66340   0.75558   0.00000  Uiso   1.00
H865   H     0.46317   0.46985   0.64894   0.00000  Uiso   1.00
H866   H     0.42516   0.41547   0.67585   0.00000  Uiso   1.00
H867   H     0.49870   0.35727   0.65304   0.00000  Uiso   1.00
H868   H     0.47130   0.38741   0.59996   0.00000  Uiso   1.00
H869   H     0.53982   0.41063   0.62855   0.00000  Uiso   1.00
H870   H     0.57451   0.58340   0.82546   0.00000  Uiso   1.00
H871   H     0.53629   0.52809   0.85115   0.00000  Uiso   1.00
H872   H     0.58626   0.39715   0.94828   0.00000  Uiso   1.00
H873   H     0.46004   0.58592   0.87358   0.00000  Uiso   1.00
H874   H     0.52860   0.61047   0.90127   0.00000  Uiso   1.00
H875   H     0.49924   0.64038   0.84884   0.00000  Uiso   1.00
H876   H     0.56858   0.53759   0.60804   0.00000  Uiso   1.00
H877   H     0.43767   0.46529   0.88688   0.00000  Uiso   1.00
H878   H     0.36724   0.43366   0.59420   0.00000  Uiso   1.00
H879   H     0.62475   0.55005   0.91116   0.00000  Uiso   1.00
H880   H     0.65421   0.56691   0.99803   0.00000  Uiso   1.00
H881   H     0.66331   0.40282   0.51142   0.00000  Uiso   1.00
H882   H     0.48262   0.54052   0.59453   0.00000  Uiso   1.00
N883   N     0.48029   0.48550   0.73740   0.00000  Uiso   1.00
N884   N     0.51971   0.51450   0.76261   0.00000  Uiso   1.00
O885   O     0.63052   0.57964   0.75310   0.00000  Uiso   1.00
O886   O     0.49899   0.55486   0.78820   0.00000  Uiso   1.00
O887   O     0.36948   0.42036   0.74691   0.00000  Uiso   1.00
O888   O     0.39155   0.57035   0.74502   0.00000  Uiso   1.00
O889   O     0.60845   0.42965   0.75499   0.00000  Uiso   1.00
O890   O     0.63662   0.50730   0.82247   0.00000  Uiso   1.00
O891   O     0.36338   0.49270   0.67753   0.00000  Uiso   1.00
O892   O     0.39764   0.49801   0.81439   0.00000  Uiso   1.00
O893   O     0.60236   0.50199   0.68561   0.00000  Uiso   1.00
O894   O     0.50097   0.44473   0.71235   0.00000  Uiso   1.00
Zn895  Zn    0.60366   0.50621   0.75540   0.00000  Uiso   1.00
Zn896  Zn    0.39634   0.49379   0.74461   0.00000  Uiso   1.00
C897   C     0.68169   0.59819   0.74884   0.00000  Uiso   1.00
C898   C     0.97907   0.49578   0.65891   0.00000  Uiso   1.00
C899   C     0.69730   0.50660   0.89398   0.00000  Uiso   1.00
C900   C     0.96766   0.48629   0.60653   0.00000  Uiso   1.00
C901   C     0.67991   0.54385   0.97447   0.00000  Uiso   1.00
C902   C     0.97434   0.43133   0.53247   0.00000  Uiso   1.00
C903   C     0.99619   0.53394   0.92521   0.00000  Uiso   1.00
C904   C     0.99629   0.44965   0.57903   0.00000  Uiso   1.00
C905   C     0.74571   0.48555   0.91255   0.00000  Uiso   1.00
C906   C     0.91949   0.50647   0.58672   0.00000  Uiso   1.00
C907   C     0.76386   0.49491   0.96171   0.00000  Uiso   1.00
C908   C     0.98497   0.40181   0.75113   0.00000  Uiso   1.00
C909   C     0.89306   0.48437   0.54279   0.00000  Uiso   1.00
C910   C     0.73130   0.52633   0.99243   0.00000  Uiso   1.00
C911   C     0.92218   0.44743   0.51466   0.00000  Uiso   1.00
C912   C     0.81575   0.47726   0.97989   0.00000  Uiso   1.00
C913   C     0.83809   0.49710   0.52690   0.00000  Uiso   1.00
C914   C     0.80087   0.43372   0.66862   0.00000  Uiso   1.00
C915   C     0.82952   0.39484   0.63549   0.00000  Uiso   1.00
C916   C     0.86543   0.56480   0.83222   0.00000  Uiso   1.00
C917   C     0.83645   0.60277   0.86606   0.00000  Uiso   1.00
C918   C     0.80393   0.52753   0.55707   0.00000  Uiso   1.00
C919   C     0.84594   0.44047   0.95265   0.00000  Uiso   1.00
C920   C     0.75114   0.54111   0.54021   0.00000  Uiso   1.00
C921   C     0.89816   0.42588   0.96991   0.00000  Uiso   1.00
C922   C     0.68946   0.65278   0.74805   0.00000  Uiso   1.00
C923   C     0.97719   0.34721   0.75186   0.00000  Uiso   1.00
C924   C     0.68751   0.50367   0.84113   0.00000  Uiso   1.00
H925   H     0.72637   0.56449   0.56437   0.00000  Uiso   1.00
H926   H     0.82930   0.42043   0.91859   0.00000  Uiso   1.00
H927   H     0.73242   0.33659   0.74433   0.00000  Uiso   1.00
H928   H     0.93423   0.66340   0.75558   0.00000  Uiso   1.00
H929   H     0.79650   0.46985   0.64894   0.00000  Uiso   1.00
H930   H     0.75850   0.41547   0.67585   0.00000  Uiso   1.00
H931   H     0.83203   0.35727   0.65304   0.00000  Uiso   1.00
H932   H     0.80463   0.38741   0.59996   0.00000  Uiso   1.00
H933   H     0.87316   0.41063   0.62855   0.00000  Uiso   1.00
H934   H     0.90785   0.58340   0.82546   0.00000  Uiso   1.00
H935   H     0.86963   0.52809   0.85115   0.00000  Uiso   1.00
H936   H     0.91960   0.39715   0.94828   0.00000  Uiso   1.00
H937   H     0.79337   0.58592   0.87358   0.00000  Uiso   1.00
H938   H     0.86193   0.61047   0.90127   0.00000  Uiso   1.00
H939   H     0.83257   0.64038   0.84884   0.00000  Uiso   1.00
H940   H     0.90191   0.53759   0.60804   0.00000  Uiso   1.00
H941   H     0.77100   0.46529   0.88688   0.00000  Uiso   1.00
H942   H     0.70057   0.43366   0.59420   0.00000  Uiso   1.00
H943   H     0.95809   0.55005   0.91116   0.00000  Uiso   1.00
H944   H     0.98754   0.56691   0.99803   0.00000  Uiso   1.00
H945   H     0.99665   0.40282   0.51142   0.00000  Uiso   1.00
H946   H     0.81595   0.54052   0.59453   0.00000  Uiso   1.00
N947   N     0.81362   0.48550   0.73740   0.00000  Uiso   1.00
N948   N     0.85305   0.51450   0.76261   0.00000  Uiso   1.00
O949   O     0.96386   0.57964   0.75310   0.00000  Uiso   1.00
O950   O     0.83232   0.55486   0.78820   0.00000  Uiso   1.00
O951   O     0.70281   0.42036   0.74691   0.00000  Uiso   1.00
O952   O     0.72488   0.57035   0.74502   0.00000  Uiso   1.00
O953   O     0.94178   0.42965   0.75499   0.00000  Uiso   1.00
O954   O     0.96995   0.50730   0.82247   0.00000  Uiso   1.00
O955   O     0.69672   0.49270   0.67753   0.00000  Uiso   1.00
O956   O     0.73098   0.49801   0.81439   0.00000  Uiso   1.00
O957   O     0.93569   0.50199   0.68561   0.00000  Uiso   1.00
O958   O     0.83430   0.44473   0.71235   0.00000  Uiso   1.00
Zn959  Zn    0.93700   0.50621   0.75540   0.00000  Uiso   1.00
Zn960  Zn    0.72967   0.49379   0.74461   0.00000  Uiso   1.00
C961   C     0.01502   0.93152   0.74884   0.00000  Uiso   1.00
C962   C     0.31240   0.82911   0.65891   0.00000  Uiso   1.00
C963   C     0.03063   0.83993   0.89398   0.00000  Uiso   1.00
C964   C     0.30099   0.81963   0.60653   0.00000  Uiso   1.00
C965   C     0.01325   0.87718   0.97447   0.00000  Uiso   1.00
C966   C     0.30768   0.76466   0.53247   0.00000  Uiso   1.00
C967   C     0.32952   0.86727   0.92521   0.00000  Uiso   1.00
C968   C     0.32962   0.78298   0.57903   0.00000  Uiso   1.00
C969   C     0.07905   0.81888   0.91255   0.00000  Uiso   1.00
C970   C     0.25283   0.83980   0.58672   0.00000  Uiso   1.00
C971   C     0.09720   0.82824   0.96171   0.00000  Uiso   1.00
C972   C     0.31831   0.73514   0.75113   0.00000  Uiso   1.00
C973   C     0.22640   0.81771   0.54279   0.00000  Uiso   1.00
C974   C     0.06463   0.85966   0.99243   0.00000  Uiso   1.00
C975   C     0.25551   0.78077   0.51466   0.00000  Uiso   1.00
C976   C     0.14909   0.81059   0.97989   0.00000  Uiso   1.00
C977   C     0.17142   0.83044   0.52690   0.00000  Uiso   1.00
C978   C     0.13420   0.76706   0.66862   0.00000  Uiso   1.00
C979   C     0.16285   0.72817   0.63549   0.00000  Uiso   1.00
C980   C     0.19876   0.89814   0.83222   0.00000  Uiso   1.00
C981   C     0.16978   0.93610   0.86606   0.00000  Uiso   1.00
C982   C     0.13727   0.86086   0.55707   0.00000  Uiso   1.00
C983   C     0.17927   0.77380   0.95265   0.00000  Uiso   1.00
C984   C     0.08447   0.87444   0.54021   0.00000  Uiso   1.00
C985   C     0.23150   0.75921   0.96991   0.00000  Uiso   1.00
C986   C     0.02280   0.98612   0.74805   0.00000  Uiso   1.00
C987   C     0.31052   0.68054   0.75186   0.00000  Uiso   1.00
C988   C     0.02084   0.83700   0.84113   0.00000  Uiso   1.00
H989   H     0.05970   0.89782   0.56437   0.00000  Uiso   1.00
H990   H     0.16264   0.75376   0.91859   0.00000  Uiso   1.00
H991   H     0.06576   0.66992   0.74433   0.00000  Uiso   1.00
H992   H     0.26756   0.99674   0.75558   0.00000  Uiso   1.00
H993   H     0.12984   0.80318   0.64894   0.00000  Uiso   1.00
H994   H     0.09183   0.74880   0.67585   0.00000  Uiso   1.00
H995   H     0.16537   0.69060   0.65304   0.00000  Uiso   1.00
H996   H     0.13797   0.72075   0.59996   0.00000  Uiso   1.00
H997   H     0.20649   0.74396   0.62855   0.00000  Uiso   1.00
H998   H     0.24118   0.91674   0.82546   0.00000  Uiso   1.00
H999   H     0.20296   0.86142   0.85115   0.00000  Uiso   1.00
H1000  H     0.25293   0.73049   0.94828   0.00000  Uiso   1.00
H1001  H     0.12670   0.91926   0.87358   0.00000  Uiso   1.00
H1002  H     0.19527   0.94380   0.90127   0.00000  Uiso   1.00
H1003  H     0.16590   0.97371   0.84884   0.00000  Uiso   1.00
H1004  H     0.23524   0.87092   0.60804   0.00000  Uiso   1.00
H1005  H     0.10433   0.79862   0.88688   0.00000  Uiso   1.00
H1006  H     0.03390   0.76699   0.59420   0.00000  Uiso   1.00
H1007  H     0.29142   0.88339   0.91116   0.00000  Uiso   1.00
H1008  H     0.32087   0.90024   0.99803   0.00000  Uiso   1.00
H1009  H     0.32998   0.73615   0.51142   0.00000  Uiso   1.00
H1010  H     0.14929   0.87386   0.59453   0.00000  Uiso   1.00
N1011  N     0.14695   0.81883   0.73740   0.00000  Uiso   1.00
N1012  N     0.18638   0.84784   0.76261   0.00000  Uiso   1.00
O1013  O     0.29719   0.91298   0.75310   0.00000  Uiso   1.00
O1014  O     0.16565   0.88820   0.78820   0.00000  Uiso   1.00
O1015  O     0.03614   0.75369   0.74691   0.00000  Uiso   1.00
O1016  O     0.05822   0.90368   0.74502   0.00000  Uiso   1.00
O1017  O     0.27512   0.76298   0.75499   0.00000  Uiso   1.00
O1018  O     0.30328   0.84063   0.82247   0.00000  Uiso   1.00
O1019  O     0.03005   0.82603   0.67753   0.00000  Uiso   1.00
O1020  O     0.06431   0.83134   0.81439   0.00000  Uiso   1.00
O1021  O     0.26902   0.83533   0.68561   0.00000  Uiso   1.00
O1022  O     0.16764   0.77806   0.71235   0.00000  Uiso   1.00
Zn1023 Zn    0.27033   0.83954   0.75540   0.00000  Uiso   1.00
Zn1024 Zn    0.06300   0.82713   0.74461   0.00000  Uiso   1.00
C1025  C     0.34835   0.93152   0.74884   0.00000  Uiso   1.00
C1026  C     0.64573   0.82911   0.65891   0.00000  Uiso   1.00
C1027  C     0.36397   0.83993   0.89398   0.00000  Uiso   1.00
C1028  C     0.63433   0.81963   0.60653   0.00000  Uiso   1.00
C1029  C     0.34658   0.87718   0.97447   0.00000  Uiso   1.00
C1030  C     0.64101   0.76466   0.53247   0.00000  Uiso   1.00
C1031  C     0.66285   0.86727   0.92521   0.00000  Uiso   1.00
C1032  C     0.66296   0.78298   0.57903   0.00000  Uiso   1.00
C1033  C     0.41238   0.81888   0.91255   0.00000  Uiso   1.00
C1034  C     0.58616   0.83980   0.58672   0.00000  Uiso   1.00
C1035  C     0.43053   0.82824   0.96171   0.00000  Uiso   1.00
C1036  C     0.65164   0.73514   0.75113   0.00000  Uiso   1.00
C1037  C     0.55973   0.81771   0.54279   0.00000  Uiso   1.00
C1038  C     0.39797   0.85966   0.99243   0.00000  Uiso   1.00
C1039  C     0.58884   0.78077   0.51466   0.00000  Uiso   1.00
C1040  C     0.48242   0.81059   0.97989   0.00000  Uiso   1.00
C1041  C     0.50475   0.83044   0.52690   0.00000  Uiso   1.00
C1042  C     0.46754   0.76706   0.66862   0.00000  Uiso   1.00
C1043  C     0.49619   0.72817   0.63549   0.00000  Uiso   1.00
C1044  C     0.53210   0.89814   0.83222   0.00000  Uiso   1.00
C1045  C     0.50311   0.93610   0.86606   0.00000  Uiso   1.00
C1046  C     0.47060   0.86086   0.55707   0.00000  Uiso   1.00
C1047  C     0.51261   0.77380   0.95265   0.00000  Uiso   1.00
C1048  C     0.41781   0.87444   0.54021   0.00000  Uiso   1.00
C1049  C     0.56483   0.75921   0.96991   0.00000  Uiso   1.00
C1050  C     0.35613   0.98612   0.74805   0.00000  Uiso   1.00
C1051  C     0.64386   0.68054   0.75186   0.00000  Uiso   1.00
C1052  C     0.35417   0.83700   0.84113   0.00000  Uiso   1.00
H1053  H     0.39304   0.89782   0.56437   0.00000  Uiso   1.00
H1054  H     0.49597   0.75376   0.91859   0.00000  Uiso   1.00
H1055  H     0.39909   0.66992   0.74433   0.00000  Uiso   1.00
H1056  H     0.60090   0.99674   0.75558   0.00000  Uiso   1.00
H1057  H     0.46317   0.80318   0.64894   0.00000  Uiso   1.00
H1058  H     0.42516   0.74880   0.67585   0.00000  Uiso   1.00
H1059  H     0.49870   0.69060   0.65304   0.00000  Uiso   1.00
H1060  H     0.47130   0.72075   0.59996   0.00000  Uiso   1.00
H1061  H     0.53982   0.74396   0.62855   0.00000  Uiso   1.00
H1062  H     0.57451   0.91674   0.82546   0.00000  Uiso   1.00
H1063  H     0.53629   0.86142   0.85115   0.00000  Uiso   1.00
H1064  H     0.58626   0.73049   0.94828   0.00000  Uiso   1.00
H1065  H     0.46004   0.91926   0.87358   0.00000  Uiso   1.00
H1066  H     0.52860   0.94380   0.90127   0.00000  Uiso   1.00
H1067  H     0.49924   0.97371   0.84884   0.00000  Uiso   1.00
H1068  H     0.56858   0.87092   0.60804   0.00000  Uiso   1.00
H1069  H     0.43767   0.79862   0.88688   0.00000  Uiso   1.00
H1070  H     0.36724   0.76699   0.59420   0.00000  Uiso   1.00
H1071  H     0.62475   0.88339   0.91116   0.00000  Uiso   1.00
H1072  H     0.65421   0.90024   0.99803   0.00000  Uiso   1.00
H1073  H     0.66331   0.73615   0.51142   0.00000  Uiso   1.00
H1074  H     0.48262   0.87386   0.59453   0.00000  Uiso   1.00
N1075  N     0.48029   0.81883   0.73740   0.00000  Uiso   1.00
N1076  N     0.51971   0.84784   0.76261   0.00000  Uiso   1.00
O1077  O     0.63052   0.91298   0.75310   0.00000  Uiso   1.00
O1078  O     0.49899   0.88820   0.78820   0.00000  Uiso   1.00
O1079  O     0.36948   0.75369   0.74691   0.00000  Uiso   1.00
O1080  O     0.39155   0.90368   0.74502   0.00000  Uiso   1.00
O1081  O     0.60845   0.76298   0.75499   0.00000  Uiso   1.00
O1082  O     0.63662   0.84063   0.82247   0.00000  Uiso   1.00
O1083  O     0.36338   0.82603   0.67753   0.00000  Uiso   1.00
O1084  O     0.39764   0.83134   0.81439   0.00000  Uiso   1.00
O1085  O     0.60236   0.83533   0.68561   0.00000  Uiso   1.00
O1086  O     0.50097   0.77806   0.71235   0.00000  Uiso   1.00
Zn1087 Zn    0.60366   0.83954   0.75540   0.00000  Uiso   1.00
Zn1088 Zn    0.39634   0.82713   0.74461   0.00000  Uiso   1.00
C1089  C     0.68169   0.93152   0.74884   0.00000  Uiso   1.00
C1090  C     0.97907   0.82911   0.65891   0.00000  Uiso   1.00
C1091  C     0.69730   0.83993   0.89398   0.00000  Uiso   1.00
C1092  C     0.96766   0.81963   0.60653   0.00000  Uiso   1.00
C1093  C     0.67991   0.87718   0.97447   0.00000  Uiso   1.00
C1094  C     0.97434   0.76466   0.53247   0.00000  Uiso   1.00
C1095  C     0.99619   0.86727   0.92521   0.00000  Uiso   1.00
C1096  C     0.99629   0.78298   0.57903   0.00000  Uiso   1.00
C1097  C     0.74571   0.81888   0.91255   0.00000  Uiso   1.00
C1098  C     0.91949   0.83980   0.58672   0.00000  Uiso   1.00
C1099  C     0.76386   0.82824   0.96171   0.00000  Uiso   1.00
C1100  C     0.98497   0.73514   0.75113   0.00000  Uiso   1.00
C1101  C     0.89306   0.81771   0.54279   0.00000  Uiso   1.00
C1102  C     0.73130   0.85966   0.99243   0.00000  Uiso   1.00
C1103  C     0.92218   0.78077   0.51466   0.00000  Uiso   1.00
C1104  C     0.81575   0.81059   0.97989   0.00000  Uiso   1.00
C1105  C     0.83809   0.83044   0.52690   0.00000  Uiso   1.00
C1106  C     0.80087   0.76706   0.66862   0.00000  Uiso   1.00
C1107  C     0.82952   0.72817   0.63549   0.00000  Uiso   1.00
C1108  C     0.86543   0.89814   0.83222   0.00000  Uiso   1.00
C1109  C     0.83645   0.93610   0.86606   0.00000  Uiso   1.00
C1110  C     0.80393   0.86086   0.55707   0.00000  Uiso   1.00
C1111  C     0.84594   0.77380   0.95265   0.00000  Uiso   1.00
C1112  C     0.75114   0.87444   0.54021   0.00000  Uiso   1.00
C1113  C     0.89816   0.75921   0.96991   0.00000  Uiso   1.00
C1114  C     0.68946   0.98612   0.74805   0.00000  Uiso   1.00
C1115  C     0.97719   0.68054   0.75186   0.00000  Uiso   1.00
C1116  C     0.68751   0.83700   0.84113   0.00000  Uiso   1.00
H1117  H     0.72637   0.89782   0.56437   0.00000  Uiso   1.00
H1118  H     0.82930   0.75376   0.91859   0.00000  Uiso   1.00
H1119  H     0.73242   0.66992   0.74433   0.00000  Uiso   1.00
H1120  H     0.93423   0.99674   0.75558   0.00000  Uiso   1.00
H1121  H     0.79650   0.80318   0.64894   0.00000  Uiso   1.00
H1122  H     0.75850   0.74880   0.67585   0.00000  Uiso   1.00
H1123  H     0.83203   0.69060   0.65304   0.00000  Uiso   1.00
H1124  H     0.80463   0.72075   0.59996   0.00000  Uiso   1.00
H1125  H     0.87316   0.74396   0.62855   0.00000  Uiso   1.00
H1126  H     0.90785   0.91674   0.82546   0.00000  Uiso   1.00
H1127  H     0.86963   0.86142   0.85115   0.00000  Uiso   1.00
H1128  H     0.91960   0.73049   0.94828   0.00000  Uiso   1.00
H1129  H     0.79337   0.91926   0.87358   0.00000  Uiso   1.00
H1130  H     0.86193   0.94380   0.90127   0.00000  Uiso   1.00
H1131  H     0.83257   0.97371   0.84884   0.00000  Uiso   1.00
H1132  H     0.90191   0.87092   0.60804   0.00000  Uiso   1.00
H1133  H     0.77100   0.79862   0.88688   0.00000  Uiso   1.00
H1134  H     0.70057   0.76699   0.59420   0.00000  Uiso   1.00
H1135  H     0.95809   0.88339   0.91116   0.00000  Uiso   1.00
H1136  H     0.98754   0.90024   0.99803   0.00000  Uiso   1.00
H1137  H     0.99665   0.73615   0.51142   0.00000  Uiso   1.00
H1138  H     0.81595   0.87386   0.59453   0.00000  Uiso   1.00
N1139  N     0.81362   0.81883   0.73740   0.00000  Uiso   1.00
N1140  N     0.85305   0.84784   0.76261   0.00000  Uiso   1.00
O1141  O     0.96386   0.91298   0.75310   0.00000  Uiso   1.00
O1142  O     0.83232   0.88820   0.78820   0.00000  Uiso   1.00
O1143  O     0.70281   0.75369   0.74691   0.00000  Uiso   1.00
O1144  O     0.72488   0.90368   0.74502   0.00000  Uiso   1.00
O1145  O     0.94178   0.76298   0.75499   0.00000  Uiso   1.00
O1146  O     0.96995   0.84063   0.82247   0.00000  Uiso   1.00
O1147  O     0.69672   0.82603   0.67753   0.00000  Uiso   1.00
O1148  O     0.73098   0.83134   0.81439   0.00000  Uiso   1.00
O1149  O     0.93569   0.83533   0.68561   0.00000  Uiso   1.00
O1150  O     0.83430   0.77806   0.71235   0.00000  Uiso   1.00
Zn1151 Zn    0.93700   0.83954   0.75540   0.00000  Uiso   1.00
Zn1152 Zn    0.72967   0.82713   0.74461   0.00000  Uiso   1.00
loop_
_geom_bond_atom_site_label_1
_geom_bond_atom_site_label_2
_geom_bond_distance
_geom_bond_site_symmetry_2
_ccdc_geom_bond_type
C1     O56     1.292   .     A
C1     C26     1.402   .     S
C1     O181    1.279   1_455 S
C2     C4      1.449   .     S
C2     O61     1.300   .     A
C2     O123    1.295   .     S
C3     C9      1.389   .     A
C3     C28     1.452   .     S
C3     C135    1.399   1_455 S
C4     C8      1.399   .     A
C4     C10     1.386   .     A
C5     C14     1.403   .     A
C5     C135    1.392   1_455 S
C5     H176    1.084   1_455 S
C6     H49     1.084   .     S
C6     C8      1.392   .     A
C6     C15     1.404   .     A
C7     H47     1.082   .     S
C7     C67     1.399   .     S
C7     C69     1.392   .     S
C8     H110    1.082   .     S
C9     H45     1.076   .     S
C9     C11     1.394   .     A
C10    H44     1.078   .     S
C10    C13     1.395   .     A
C11    C16     1.417   .     A
C11    C14     1.419   .     A
C12    O57     1.292   .     A
C12    C27     1.402   .     S
C12    O119    1.279   .     S
C13    C17     1.417   .     A
C13    C15     1.419   .     A
C14    C600    1.388   .     S
C15    C601    1.389   1_554 S
C16    C23     1.419   .     A
C16    C593    1.416   .     S
C17    C22     1.419   .     A
C17    C592    1.416   1_554 S
C18    H34     1.106   .     S
C18    H33     1.113   .     S
C18    C19     1.521   .     S
C18    O62     1.404   .     S
C19    H35     1.111   .     S
C19    H36     1.111   .     S
C19    H37     1.109   .     S
C20    H38     1.107   .     S
C20    C21     1.522   .     S
C20    O54     1.404   .     S
C20    H39     1.115   .     S
C21    H41     1.110   .     S
C21    H43     1.111   .     S
C21    H42     1.111   .     S
C22    C24     1.385   .     A
C22    H50     1.076   .     S
C23    C25     1.386   .     A
C23    H30     1.077   .     S
C24    H29     1.084   .     S
C24    C590    1.388   1_554 S
C25    H40     1.084   .     S
C25    C591    1.389   .     S
C26    C347    1.339   1_455 S
C26    H223    1.088   .     S
C27    C474    1.339   1_545 S
C27    H416    1.088   1_545 S
C28    O60     1.301   .     A
C28    O186    1.295   1_455 S
H31    C410    1.088   1_545 S
H32    C219    1.088   .     S
H46    C136    1.082   1_455 S
H48    C69     1.084   .     S
N51    O62     1.347   .     S
N51    N52     1.291   .     D
N51    Zn64    2.027   .     S
N52    O54     1.347   .     S
N52    Zn63    2.027   .     S
O53    Zn63    1.951   .     S
O53    C65     1.279   .     S
O55    Zn64    1.951   .     S
O55    C140    1.279   1_455 S
O56    Zn64    1.976   .     S
O57    Zn63    1.976   .     S
O58    Zn63    1.960   .     S
O58    C92     1.295   .     S
O59    Zn64    1.960   .     S
O59    C130    1.295   1_455 S
O60    Zn64    1.908   .     S
O61    Zn63    1.908   .     S
C65    O120    1.292   .     A
C65    C90     1.402   .     S
C66    C68     1.449   .     S
C66    O125    1.300   .     A
C66    O187    1.295   .     S
C67    C73     1.389   .     A
C67    C92     1.452   .     S
C68    C72     1.399   .     A
C68    C74     1.386   .     A
C69    C78     1.403   .     A
C70    H113    1.084   .     S
C70    C72     1.392   .     A
C70    C79     1.404   .     A
C71    H111    1.082   .     S
C71    C131    1.399   .     S
C71    C133    1.392   .     S
C72    H174    1.082   .     S
C73    H109    1.076   .     S
C73    C75     1.394   .     A
C74    H108    1.078   .     S
C74    C77     1.395   .     A
C75    C80     1.417   .     A
C75    C78     1.419   .     A
C76    O121    1.292   .     A
C76    C91     1.402   .     S
C76    O183    1.279   .     S
C77    C81     1.417   .     A
C77    C79     1.419   .     A
C78    C664    1.388   .     S
C79    C665    1.389   1_554 S
C80    C87     1.419   .     A
C80    C657    1.416   .     S
C81    C86     1.419   .     A
C81    C656    1.416   1_554 S
C82    H98     1.106   .     S
C82    H97     1.113   .     S
C82    C83     1.521   .     S
C82    O126    1.404   .     S
C83    H99     1.111   .     S
C83    H100    1.111   .     S
C83    H101    1.109   .     S
C84    H102    1.107   .     S
C84    C85     1.522   .     S
C84    O118    1.404   .     S
C84    H103    1.115   .     S
C85    H105    1.110   .     S
C85    H107    1.111   .     S
C85    H106    1.111   .     S
C86    C88     1.385   .     A
C86    H114    1.076   .     S
C87    C89     1.386   .     A
C87    H94     1.077   .     S
C88    H93     1.084   .     S
C88    C654    1.388   1_554 S
C89    H104    1.084   .     S
C89    C655    1.389   .     S
C90    C219    1.339   .     S
C90    H287    1.088   .     S
C91    C538    1.339   1_545 S
C91    H480    1.088   1_545 S
C92    O124    1.301   .     A
H95    C474    1.088   1_545 S
H96    C283    1.088   .     S
H112   C133    1.084   .     S
N115   O126    1.347   .     S
N115   N116    1.291   .     D
N115   Zn128   2.027   .     S
N116   O118    1.347   .     S
N116   Zn127   2.027   .     S
O117   Zn127   1.951   .     S
O117   C129    1.279   .     S
O119   Zn128   1.951   .     S
O120   Zn128   1.976   .     S
O121   Zn127   1.976   .     S
O122   Zn127   1.960   .     S
O122   C156    1.295   .     S
O123   Zn128   1.960   .     S
O124   Zn128   1.908   .     S
O125   Zn127   1.908   .     S
C129   O184    1.292   .     A
C129   C154    1.402   .     S
C130   C132    1.449   .     S
C130   O189    1.300   .     A
C130   O59     1.295   1_655 S
C131   C137    1.389   .     A
C131   C156    1.452   .     S
C132   C136    1.399   .     A
C132   C138    1.386   .     A
C133   C142    1.403   .     A
C134   H177    1.084   .     S
C134   C136    1.392   .     A
C134   C143    1.404   .     A
C135   H175    1.082   .     S
C135   C3      1.399   1_655 S
C135   C5      1.392   1_655 S
C136   H46     1.082   1_655 S
C137   H173    1.076   .     S
C137   C139    1.394   .     A
C138   H172    1.078   .     S
C138   C141    1.395   .     A
C139   C144    1.417   .     A
C139   C142    1.419   .     A
C140   O185    1.292   .     A
C140   C155    1.402   .     S
C140   O55     1.279   1_655 S
C141   C145    1.417   .     A
C141   C143    1.419   .     A
C142   C728    1.388   .     S
C143   C729    1.389   1_554 S
C144   C151    1.419   .     A
C144   C721    1.416   .     S
C145   C150    1.419   .     A
C145   C720    1.416   1_554 S
C146   H162    1.106   .     S
C146   H161    1.113   .     S
C146   C147    1.521   .     S
C146   O190    1.404   .     S
C147   H163    1.111   .     S
C147   H164    1.111   .     S
C147   H165    1.109   .     S
C148   H166    1.107   .     S
C148   C149    1.522   .     S
C148   O182    1.404   .     S
C148   H167    1.115   .     S
C149   H169    1.110   .     S
C149   H171    1.111   .     S
C149   H170    1.111   .     S
C150   C152    1.385   .     A
C150   H178    1.076   .     S
C151   C153    1.386   .     A
C151   H158    1.077   .     S
C152   H157    1.084   .     S
C152   C718    1.388   1_554 S
C153   H168    1.084   .     S
C153   C719    1.389   .     S
C154   C283    1.339   .     S
C154   H351    1.088   .     S
C155   C410    1.339   1_645 S
C155   H544    1.088   1_545 S
C156   O188    1.301   .     A
H159   C538    1.088   1_545 S
H160   C347    1.088   .     S
H176   C5      1.084   1_655 S
N179   O190    1.347   .     S
N179   N180    1.291   .     D
N179   Zn192   2.027   .     S
N180   O182    1.347   .     S
N180   Zn191   2.027   .     S
O181   Zn191   1.951   .     S
O181   C1      1.279   1_655 S
O183   Zn192   1.951   .     S
O184   Zn192   1.976   .     S
O185   Zn191   1.976   .     S
O186   Zn191   1.960   .     S
O186   C28     1.295   1_655 S
O187   Zn192   1.960   .     S
O188   Zn192   1.908   .     S
O189   Zn191   1.908   .     S
C193   O248    1.292   .     A
C193   C218    1.402   .     S
C193   O373    1.279   1_455 S
C194   C196    1.449   .     S
C194   O253    1.300   .     A
C194   O315    1.295   .     S
C195   C201    1.389   .     A
C195   C220    1.452   .     S
C195   C327    1.399   1_455 S
C196   C200    1.399   .     A
C196   C202    1.386   .     A
C197   C206    1.403   .     A
C197   C327    1.392   1_455 S
C197   H368    1.084   1_455 S
C198   H241    1.084   .     S
C198   C200    1.392   .     A
C198   C207    1.404   .     A
C199   H239    1.082   .     S
C199   C259    1.399   .     S
C199   C261    1.392   .     S
C200   H302    1.082   .     S
C201   H237    1.076   .     S
C201   C203    1.394   .     A
C202   H236    1.078   .     S
C202   C205    1.395   .     A
C203   C208    1.417   .     A
C203   C206    1.419   .     A
C204   O249    1.292   .     A
C204   C219    1.402   .     S
C204   O311    1.279   .     S
C205   C209    1.417   .     A
C205   C207    1.419   .     A
C206   C792    1.388   .     S
C207   C793    1.389   1_554 S
C208   C215    1.419   .     A
C208   C785    1.416   .     S
C209   C214    1.419   .     A
C209   C784    1.416   1_554 S
C210   H226    1.106   .     S
C210   H225    1.113   .     S
C210   C211    1.521   .     S
C210   O254    1.404   .     S
C211   H227    1.111   .     S
C211   H228    1.111   .     S
C211   H229    1.109   .     S
C212   H230    1.107   .     S
C212   C213    1.522   .     S
C212   O246    1.404   .     S
C212   H231    1.115   .     S
C213   H233    1.110   .     S
C213   H235    1.111   .     S
C213   H234    1.111   .     S
C214   C216    1.385   .     A
C214   H242    1.076   .     S
C215   C217    1.386   .     A
C215   H222    1.077   .     S
C216   H221    1.084   .     S
C216   C782    1.388   1_554 S
C217   H232    1.084   .     S
C217   C783    1.389   .     S
C218   C539    1.339   1_455 S
C218   H415    1.088   .     S
C220   O252    1.301   .     A
C220   O378    1.295   1_455 S
H224   C411    1.088   .     S
H238   C328    1.082   1_455 S
H240   C261    1.084   .     S
N243   O254    1.347   .     S
N243   N244    1.291   .     D
N243   Zn256   2.027   .     S
N244   O246    1.347   .     S
N244   Zn255   2.027   .     S
O245   Zn255   1.951   .     S
O245   C257    1.279   .     S
O247   Zn256   1.951   .     S
O247   C332    1.279   1_455 S
O248   Zn256   1.976   .     S
O249   Zn255   1.976   .     S
O250   Zn255   1.960   .     S
O250   C284    1.295   .     S
O251   Zn256   1.960   .     S
O251   C322    1.295   1_455 S
O252   Zn256   1.908   .     S
O253   Zn255   1.908   .     S
C257   O312    1.292   .     A
C257   C282    1.402   .     S
C258   C260    1.449   .     S
C258   O317    1.300   .     A
C258   O379    1.295   .     S
C259   C265    1.389   .     A
C259   C284    1.452   .     S
C260   C264    1.399   .     A
C260   C266    1.386   .     A
C261   C270    1.403   .     A
C262   H305    1.084   .     S
C262   C264    1.392   .     A
C262   C271    1.404   .     A
C263   H303    1.082   .     S
C263   C323    1.399   .     S
C263   C325    1.392   .     S
C264   H366    1.082   .     S
C265   H301    1.076   .     S
C265   C267    1.394   .     A
C266   H300    1.078   .     S
C266   C269    1.395   .     A
C267   C272    1.417   .     A
C267   C270    1.419   .     A
C268   O313    1.292   .     A
C268   C283    1.402   .     S
C268   O375    1.279   .     S
C269   C273    1.417   .     A
C269   C271    1.419   .     A
C270   C856    1.388   .     S
C271   C857    1.389   1_554 S
C272   C279    1.419   .     A
C272   C849    1.416   .     S
C273   C278    1.419   .     A
C273   C848    1.416   1_554 S
C274   H290    1.106   .     S
C274   H289    1.113   .     S
C274   C275    1.521   .     S
C274   O318    1.404   .     S
C275   H291    1.111   .     S
C275   H292    1.111   .     S
C275   H293    1.109   .     S
C276   H294    1.107   .     S
C276   C277    1.522   .     S
C276   O310    1.404   .     S
C276   H295    1.115   .     S
C277   H297    1.110   .     S
C277   H299    1.111   .     S
C277   H298    1.111   .     S
C278   C280    1.385   .     A
C278   H306    1.076   .     S
C279   C281    1.386   .     A
C279   H286    1.077   .     S
C280   H285    1.084   .     S
C280   C846    1.388   1_554 S
C281   H296    1.084   .     S
C281   C847    1.389   .     S
C282   C411    1.339   .     S
C282   H479    1.088   .     S
C284   O316    1.301   .     A
H288   C475    1.088   .     S
H304   C325    1.084   .     S
N307   O318    1.347   .     S
N307   N308    1.291   .     D
N307   Zn320   2.027   .     S
N308   O310    1.347   .     S
N308   Zn319   2.027   .     S
O309   Zn319   1.951   .     S
O309   C321    1.279   .     S
O311   Zn320   1.951   .     S
O312   Zn320   1.976   .     S
O313   Zn319   1.976   .     S
O314   Zn319   1.960   .     S
O314   C348    1.295   .     S
O315   Zn320   1.960   .     S
O316   Zn320   1.908   .     S
O317   Zn319   1.908   .     S
C321   O376    1.292   .     A
C321   C346    1.402   .     S
C322   C324    1.449   .     S
C322   O381    1.300   .     A
C322   O251    1.295   1_655 S
C323   C329    1.389   .     A
C323   C348    1.452   .     S
C324   C328    1.399   .     A
C324   C330    1.386   .     A
C325   C334    1.403   .     A
C326   H369    1.084   .     S
C326   C328    1.392   .     A
C326   C335    1.404   .     A
C327   H367    1.082   .     S
C327   C195    1.399   1_655 S
C327   C197    1.392   1_655 S
C328   H238    1.082   1_655 S
C329   H365    1.076   .     S
C329   C331    1.394   .     A
C330   H364    1.078   .     S
C330   C333    1.395   .     A
C331   C336    1.417   .     A
C331   C334    1.419   .     A
C332   O377    1.292   .     A
C332   C347    1.402   .     S
C332   O247    1.279   1_655 S
C333   C337    1.417   .     A
C333   C335    1.419   .     A
C334   C920    1.388   .     S
C335   C921    1.389   1_554 S
C336   C343    1.419   .     A
C336   C913    1.416   .     S
C337   C342    1.419   .     A
C337   C912    1.416   1_554 S
C338   H354    1.106   .     S
C338   H353    1.113   .     S
C338   C339    1.521   .     S
C338   O382    1.404   .     S
C339   H355    1.111   .     S
C339   H356    1.111   .     S
C339   H357    1.109   .     S
C340   H358    1.107   .     S
C340   C341    1.522   .     S
C340   O374    1.404   .     S
C340   H359    1.115   .     S
C341   H361    1.110   .     S
C341   H363    1.111   .     S
C341   H362    1.111   .     S
C342   C344    1.385   .     A
C342   H370    1.076   .     S
C343   C345    1.386   .     A
C343   H350    1.077   .     S
C344   H349    1.084   .     S
C344   C910    1.388   1_554 S
C345   H360    1.084   .     S
C345   C911    1.389   .     S
C346   C475    1.339   .     S
C346   H543    1.088   .     S
C347   C26     1.339   1_655 S
C348   O380    1.301   .     A
H352   C539    1.088   .     S
H368   C197    1.084   1_655 S
N371   O382    1.347   .     S
N371   N372    1.291   .     D
N371   Zn384   2.027   .     S
N372   O374    1.347   .     S
N372   Zn383   2.027   .     S
O373   Zn383   1.951   .     S
O373   C193    1.279   1_655 S
O375   Zn384   1.951   .     S
O376   Zn384   1.976   .     S
O377   Zn383   1.976   .     S
O378   Zn383   1.960   .     S
O378   C220    1.295   1_655 S
O379   Zn384   1.960   .     S
O380   Zn384   1.908   .     S
O381   Zn383   1.908   .     S
C385   O440    1.292   .     A
C385   C410    1.402   .     S
C385   O565    1.279   1_455 S
C386   C388    1.449   .     S
C386   O445    1.300   .     A
C386   O507    1.295   .     S
C387   C393    1.389   .     A
C387   C412    1.452   .     S
C387   C519    1.399   1_455 S
C388   C392    1.399   .     A
C388   C394    1.386   .     A
C389   C398    1.403   .     A
C389   C519    1.392   1_455 S
C389   H560    1.084   1_455 S
C390   H433    1.084   .     S
C390   C392    1.392   .     A
C390   C399    1.404   .     A
C391   H431    1.082   .     S
C391   C451    1.399   .     S
C391   C453    1.392   .     S
C392   H494    1.082   .     S
C393   H429    1.076   .     S
C393   C395    1.394   .     A
C394   H428    1.078   .     S
C394   C397    1.395   .     A
C395   C400    1.417   .     A
C395   C398    1.419   .     A
C396   O441    1.292   .     A
C396   C411    1.402   .     S
C396   O503    1.279   .     S
C397   C401    1.417   .     A
C397   C399    1.419   .     A
C398   C984    1.388   .     S
C399   C985    1.389   1_554 S
C400   C407    1.419   .     A
C400   C977    1.416   .     S
C401   C406    1.419   .     A
C401   C976    1.416   1_554 S
C402   H418    1.106   .     S
C402   H417    1.113   .     S
C402   C403    1.521   .     S
C402   O446    1.404   .     S
C403   H419    1.111   .     S
C403   H420    1.111   .     S
C403   H421    1.109   .     S
C404   H422    1.107   .     S
C404   C405    1.522   .     S
C404   O438    1.404   .     S
C404   H423    1.115   .     S
C405   H425    1.110   .     S
C405   H427    1.111   .     S
C405   H426    1.111   .     S
C406   C408    1.385   .     A
C406   H434    1.076   .     S
C407   C409    1.386   .     A
C407   H414    1.077   .     S
C408   H413    1.084   .     S
C408   C974    1.388   1_554 S
C409   H424    1.084   .     S
C409   C975    1.389   .     S
C410   C155    1.339   1_465 S
C410   H31     1.088   1_565 S
C412   O444    1.301   .     A
C412   O570    1.295   1_455 S
H416   C27     1.088   1_565 S
H430   C520    1.082   1_455 S
H432   C453    1.084   .     S
N435   O446    1.347   .     S
N435   N436    1.291   .     D
N435   Zn448   2.027   .     S
N436   O438    1.347   .     S
N436   Zn447   2.027   .     S
O437   Zn447   1.951   .     S
O437   C449    1.279   .     S
O439   Zn448   1.951   .     S
O439   C524    1.279   1_455 S
O440   Zn448   1.976   .     S
O441   Zn447   1.976   .     S
O442   Zn447   1.960   .     S
O442   C476    1.295   .     S
O443   Zn448   1.960   .     S
O443   C514    1.295   1_455 S
O444   Zn448   1.908   .     S
O445   Zn447   1.908   .     S
C449   O504    1.292   .     A
C449   C474    1.402   .     S
C450   C452    1.449   .     S
C450   O509    1.300   .     A
C450   O571    1.295   .     S
C451   C457    1.389   .     A
C451   C476    1.452   .     S
C452   C456    1.399   .     A
C452   C458    1.386   .     A
C453   C462    1.403   .     A
C454   H497    1.084   .     S
C454   C456    1.392   .     A
C454   C463    1.404   .     A
C455   H495    1.082   .     S
C455   C515    1.399   .     S
C455   C517    1.392   .     S
C456   H558    1.082   .     S
C457   H493    1.076   .     S
C457   C459    1.394   .     A
C458   H492    1.078   .     S
C458   C461    1.395   .     A
C459   C464    1.417   .     A
C459   C462    1.419   .     A
C460   O505    1.292   .     A
C460   C475    1.402   .     S
C460   O567    1.279   .     S
C461   C465    1.417   .     A
C461   C463    1.419   .     A
C462   C1048   1.388   .     S
C463   C1049   1.389   1_554 S
C464   C471    1.419   .     A
C464   C1041   1.416   .     S
C465   C470    1.419   .     A
C465   C1040   1.416   1_554 S
C466   H482    1.106   .     S
C466   H481    1.113   .     S
C466   C467    1.521   .     S
C466   O510    1.404   .     S
C467   H483    1.111   .     S
C467   H484    1.111   .     S
C467   H485    1.109   .     S
C468   H486    1.107   .     S
C468   C469    1.522   .     S
C468   O502    1.404   .     S
C468   H487    1.115   .     S
C469   H489    1.110   .     S
C469   H491    1.111   .     S
C469   H490    1.111   .     S
C470   C472    1.385   .     A
C470   H498    1.076   .     S
C471   C473    1.386   .     A
C471   H478    1.077   .     S
C472   H477    1.084   .     S
C472   C1038   1.388   1_554 S
C473   H488    1.084   .     S
C473   C1039   1.389   .     S
C474   C27     1.339   1_565 S
C474   H95     1.088   1_565 S
C476   O508    1.301   .     A
H480   C91     1.088   1_565 S
H496   C517    1.084   .     S
N499   O510    1.347   .     S
N499   N500    1.291   .     D
N499   Zn512   2.027   .     S
N500   O502    1.347   .     S
N500   Zn511   2.027   .     S
O501   Zn511   1.951   .     S
O501   C513    1.279   .     S
O503   Zn512   1.951   .     S
O504   Zn512   1.976   .     S
O505   Zn511   1.976   .     S
O506   Zn511   1.960   .     S
O506   C540    1.295   .     S
O507   Zn512   1.960   .     S
O508   Zn512   1.908   .     S
O509   Zn511   1.908   .     S
C513   O568    1.292   .     A
C513   C538    1.402   .     S
C514   C516    1.449   .     S
C514   O573    1.300   .     A
C514   O443    1.295   1_655 S
C515   C521    1.389   .     A
C515   C540    1.452   .     S
C516   C520    1.399   .     A
C516   C522    1.386   .     A
C517   C526    1.403   .     A
C518   H561    1.084   .     S
C518   C520    1.392   .     A
C518   C527    1.404   .     A
C519   H559    1.082   .     S
C519   C387    1.399   1_655 S
C519   C389    1.392   1_655 S
C520   H430    1.082   1_655 S
C521   H557    1.076   .     S
C521   C523    1.394   .     A
C522   H556    1.078   .     S
C522   C525    1.395   .     A
C523   C528    1.417   .     A
C523   C526    1.419   .     A
C524   O569    1.292   .     A
C524   C539    1.402   .     S
C524   O439    1.279   1_655 S
C525   C529    1.417   .     A
C525   C527    1.419   .     A
C526   C1112   1.388   .     S
C527   C1113   1.389   1_554 S
C528   C535    1.419   .     A
C528   C1105   1.416   .     S
C529   C534    1.419   .     A
C529   C1104   1.416   1_554 S
C530   H546    1.106   .     S
C530   H545    1.113   .     S
C530   C531    1.521   .     S
C530   O574    1.404   .     S
C531   H547    1.111   .     S
C531   H548    1.111   .     S
C531   H549    1.109   .     S
C532   H550    1.107   .     S
C532   C533    1.522   .     S
C532   O566    1.404   .     S
C532   H551    1.115   .     S
C533   H553    1.110   .     S
C533   H555    1.111   .     S
C533   H554    1.111   .     S
C534   C536    1.385   .     A
C534   H562    1.076   .     S
C535   C537    1.386   .     A
C535   H542    1.077   .     S
C536   H541    1.084   .     S
C536   C1102   1.388   1_554 S
C537   H552    1.084   .     S
C537   C1103   1.389   .     S
C538   C91     1.339   1_565 S
C538   H159    1.088   1_565 S
C539   C218    1.339   1_655 S
C540   O572    1.301   .     A
H544   C155    1.088   1_565 S
H560   C389    1.084   1_655 S
N563   O574    1.347   .     S
N563   N564    1.291   .     D
N563   Zn576   2.027   .     S
N564   O566    1.347   .     S
N564   Zn575   2.027   .     S
O565   Zn575   1.951   .     S
O565   C385    1.279   1_655 S
O567   Zn576   1.951   .     S
O568   Zn576   1.976   .     S
O569   Zn575   1.976   .     S
O570   Zn575   1.960   .     S
O570   C412    1.295   1_655 S
O571   Zn576   1.960   .     S
O572   Zn576   1.908   .     S
O573   Zn575   1.908   .     S
C577   O632    1.292   .     A
C577   C602    1.402   .     S
C577   O757    1.279   1_455 S
C578   C580    1.449   .     S
C578   O637    1.300   .     A
C578   O699    1.295   .     S
C579   C585    1.389   .     A
C579   C604    1.452   .     S
C579   C711    1.399   1_455 S
C580   C584    1.399   .     A
C580   C586    1.386   .     A
C581   C590    1.403   .     A
C581   C711    1.392   1_455 S
C581   H752    1.084   1_455 S
C582   H625    1.084   .     S
C582   C584    1.392   .     A
C582   C591    1.404   .     A
C583   H623    1.082   .     S
C583   C643    1.399   .     S
C583   C645    1.392   .     S
C584   H686    1.082   .     S
C585   H621    1.076   .     S
C585   C587    1.394   .     A
C586   H620    1.078   .     S
C586   C589    1.395   .     A
C587   C592    1.417   .     A
C587   C590    1.419   .     A
C588   O633    1.292   .     A
C588   C603    1.402   .     S
C588   O695    1.279   .     S
C589   C593    1.417   .     A
C589   C591    1.419   .     A
C590   C24     1.388   1_556 S
C592   C599    1.419   .     A
C592   C17     1.416   1_556 S
C593   C598    1.419   .     A
C594   H610    1.106   .     S
C594   H609    1.113   .     S
C594   C595    1.521   .     S
C594   O638    1.404   .     S
C595   H611    1.111   .     S
C595   H612    1.111   .     S
C595   H613    1.109   .     S
C596   H614    1.107   .     S
C596   C597    1.522   .     S
C596   O630    1.404   .     S
C596   H615    1.115   .     S
C597   H617    1.110   .     S
C597   H619    1.111   .     S
C597   H618    1.111   .     S
C598   C600    1.385   .     A
C598   H626    1.076   .     S
C599   C601    1.386   .     A
C599   H606    1.077   .     S
C600   H605    1.084   .     S
C601   H616    1.084   .     S
C601   C15     1.389   1_556 S
C602   C923    1.339   1_455 S
C602   H799    1.088   .     S
C603   C1050   1.339   1_545 S
C603   H992    1.088   1_545 S
C604   O636    1.301   .     A
C604   O762    1.295   1_455 S
H607   C986    1.088   1_545 S
H608   C795    1.088   .     S
H622   C712    1.082   1_455 S
H624   C645    1.084   .     S
N627   O638    1.347   .     S
N627   N628    1.291   .     D
N627   Zn640   2.027   .     S
N628   O630    1.347   .     S
N628   Zn639   2.027   .     S
O629   Zn639   1.951   .     S
O629   C641    1.279   .     S
O631   Zn640   1.951   .     S
O631   C716    1.279   1_455 S
O632   Zn640   1.976   .     S
O633   Zn639   1.976   .     S
O634   Zn639   1.960   .     S
O634   C668    1.295   .     S
O635   Zn640   1.960   .     S
O635   C706    1.295   1_455 S
O636   Zn640   1.908   .     S
O637   Zn639   1.908   .     S
C641   O696    1.292   .     A
C641   C666    1.402   .     S
C642   C644    1.449   .     S
C642   O701    1.300   .     A
C642   O763    1.295   .     S
C643   C649    1.389   .     A
C643   C668    1.452   .     S
C644   C648    1.399   .     A
C644   C650    1.386   .     A
C645   C654    1.403   .     A
C646   H689    1.084   .     S
C646   C648    1.392   .     A
C646   C655    1.404   .     A
C647   H687    1.082   .     S
C647   C707    1.399   .     S
C647   C709    1.392   .     S
C648   H750    1.082   .     S
C649   H685    1.076   .     S
C649   C651    1.394   .     A
C650   H684    1.078   .     S
C650   C653    1.395   .     A
C651   C656    1.417   .     A
C651   C654    1.419   .     A
C652   O697    1.292   .     A
C652   C667    1.402   .     S
C652   O759    1.279   .     S
C653   C657    1.417   .     A
C653   C655    1.419   .     A
C654   C88     1.388   1_556 S
C656   C663    1.419   .     A
C656   C81     1.416   1_556 S
C657   C662    1.419   .     A
C658   H674    1.106   .     S
C658   H673    1.113   .     S
C658   C659    1.521   .     S
C658   O702    1.404   .     S
C659   H675    1.111   .     S
C659   H676    1.111   .     S
C659   H677    1.109   .     S
C660   H678    1.107   .     S
C660   C661    1.522   .     S
C660   O694    1.404   .     S
C660   H679    1.115   .     S
C661   H681    1.110   .     S
C661   H683    1.111   .     S
C661   H682    1.111   .     S
C662   C664    1.385   .     A
C662   H690    1.076   .     S
C663   C665    1.386   .     A
C663   H670    1.077   .     S
C664   H669    1.084   .     S
C665   H680    1.084   .     S
C665   C79     1.389   1_556 S
C666   C795    1.339   .     S
C666   H863    1.088   .     S
C667   C1114   1.339   1_545 S
C667   H1056   1.088   1_545 S
C668   O700    1.301   .     A
H671   C1050   1.088   1_545 S
H672   C859    1.088   .     S
H688   C709    1.084   .     S
N691   O702    1.347   .     S
N691   N692    1.291   .     D
N691   Zn704   2.027   .     S
N692   O694    1.347   .     S
N692   Zn703   2.027   .     S
O693   Zn703   1.951   .     S
O693   C705    1.279   .     S
O695   Zn704   1.951   .     S
O696   Zn704   1.976   .     S
O697   Zn703   1.976   .     S
O698   Zn703   1.960   .     S
O698   C732    1.295   .     S
O699   Zn704   1.960   .     S
O700   Zn704   1.908   .     S
O701   Zn703   1.908   .     S
C705   O760    1.292   .     A
C705   C730    1.402   .     S
C706   C708    1.449   .     S
C706   O765    1.300   .     A
C706   O635    1.295   1_655 S
C707   C713    1.389   .     A
C707   C732    1.452   .     S
C708   C712    1.399   .     A
C708   C714    1.386   .     A
C709   C718    1.403   .     A
C710   H753    1.084   .     S
C710   C712    1.392   .     A
C710   C719    1.404   .     A
C711   H751    1.082   .     S
C711   C579    1.399   1_655 S
C711   C581    1.392   1_655 S
C712   H622    1.082   1_655 S
C713   H749    1.076   .     S
C713   C715    1.394   .     A
C714   H748    1.078   .     S
C714   C717    1.395   .     A
C715   C720    1.417   .     A
C715   C718    1.419   .     A
C716   O761    1.292   .     A
C716   C731    1.402   .     S
C716   O631    1.279   1_655 S
C717   C721    1.417   .     A
C717   C719    1.419   .     A
C718   C152    1.388   1_556 S
C720   C727    1.419   .     A
C720   C145    1.416   1_556 S
C721   C726    1.419   .     A
C722   H738    1.106   .     S
C722   H737    1.113   .     S
C722   C723    1.521   .     S
C722   O766    1.404   .     S
C723   H739    1.111   .     S
C723   H740    1.111   .     S
C723   H741    1.109   .     S
C724   H742    1.107   .     S
C724   C725    1.522   .     S
C724   O758    1.404   .     S
C724   H743    1.115   .     S
C725   H745    1.110   .     S
C725   H747    1.111   .     S
C725   H746    1.111   .     S
C726   C728    1.385   .     A
C726   H754    1.076   .     S
C727   C729    1.386   .     A
C727   H734    1.077   .     S
C728   H733    1.084   .     S
C729   H744    1.084   .     S
C729   C143    1.389   1_556 S
C730   C859    1.339   .     S
C730   H927    1.088   .     S
C731   C986    1.339   1_645 S
C731   H1120   1.088   1_545 S
C732   O764    1.301   .     A
H735   C1114   1.088   1_545 S
H736   C923    1.088   .     S
H752   C581    1.084   1_655 S
N755   O766    1.347   .     S
N755   N756    1.291   .     D
N755   Zn768   2.027   .     S
N756   O758    1.347   .     S
N756   Zn767   2.027   .     S
O757   Zn767   1.951   .     S
O757   C577    1.279   1_655 S
O759   Zn768   1.951   .     S
O760   Zn768   1.976   .     S
O761   Zn767   1.976   .     S
O762   Zn767   1.960   .     S
O762   C604    1.295   1_655 S
O763   Zn768   1.960   .     S
O764   Zn768   1.908   .     S
O765   Zn767   1.908   .     S
C769   O824    1.292   .     A
C769   C794    1.402   .     S
C769   O949    1.279   1_455 S
C770   C772    1.449   .     S
C770   O829    1.300   .     A
C770   O891    1.295   .     S
C771   C777    1.389   .     A
C771   C796    1.452   .     S
C771   C903    1.399   1_455 S
C772   C776    1.399   .     A
C772   C778    1.386   .     A
C773   C782    1.403   .     A
C773   C903    1.392   1_455 S
C773   H944    1.084   1_455 S
C774   H817    1.084   .     S
C774   C776    1.392   .     A
C774   C783    1.404   .     A
C775   H815    1.082   .     S
C775   C835    1.399   .     S
C775   C837    1.392   .     S
C776   H878    1.082   .     S
C777   H813    1.076   .     S
C777   C779    1.394   .     A
C778   H812    1.078   .     S
C778   C781    1.395   .     A
C779   C784    1.417   .     A
C779   C782    1.419   .     A
C780   O825    1.292   .     A
C780   C795    1.402   .     S
C780   O887    1.279   .     S
C781   C785    1.417   .     A
C781   C783    1.419   .     A
C782   C216    1.388   1_556 S
C784   C791    1.419   .     A
C784   C209    1.416   1_556 S
C785   C790    1.419   .     A
C786   H802    1.106   .     S
C786   H801    1.113   .     S
C786   C787    1.521   .     S
C786   O830    1.404   .     S
C787   H803    1.111   .     S
C787   H804    1.111   .     S
C787   H805    1.109   .     S
C788   H806    1.107   .     S
C788   C789    1.522   .     S
C788   O822    1.404   .     S
C788   H807    1.115   .     S
C789   H809    1.110   .     S
C789   H811    1.111   .     S
C789   H810    1.111   .     S
C790   C792    1.385   .     A
C790   H818    1.076   .     S
C791   C793    1.386   .     A
C791   H798    1.077   .     S
C792   H797    1.084   .     S
C793   H808    1.084   .     S
C793   C207    1.389   1_556 S
C794   C1115   1.339   1_455 S
C794   H991    1.088   .     S
C796   O828    1.301   .     A
C796   O954    1.295   1_455 S
H800   C987    1.088   .     S
H814   C904    1.082   1_455 S
H816   C837    1.084   .     S
N819   O830    1.347   .     S
N819   N820    1.291   .     D
N819   Zn832   2.027   .     S
N820   O822    1.347   .     S
N820   Zn831   2.027   .     S
O821   Zn831   1.951   .     S
O821   C833    1.279   .     S
O823   Zn832   1.951   .     S
O823   C908    1.279   1_455 S
O824   Zn832   1.976   .     S
O825   Zn831   1.976   .     S
O826   Zn831   1.960   .     S
O826   C860    1.295   .     S
O827   Zn832   1.960   .     S
O827   C898    1.295   1_455 S
O828   Zn832   1.908   .     S
O829   Zn831   1.908   .     S
C833   O888    1.292   .     A
C833   C858    1.402   .     S
C834   C836    1.449   .     S
C834   O893    1.300   .     A
C834   O955    1.295   .     S
C835   C841    1.389   .     A
C835   C860    1.452   .     S
C836   C840    1.399   .     A
C836   C842    1.386   .     A
C837   C846    1.403   .     A
C838   H881    1.084   .     S
C838   C840    1.392   .     A
C838   C847    1.404   .     A
C839   H879    1.082   .     S
C839   C899    1.399   .     S
C839   C901    1.392   .     S
C840   H942    1.082   .     S
C841   H877    1.076   .     S
C841   C843    1.394   .     A
C842   H876    1.078   .     S
C842   C845    1.395   .     A
C843   C848    1.417   .     A
C843   C846    1.419   .     A
C844   O889    1.292   .     A
C844   C859    1.402   .     S
C844   O951    1.279   .     S
C845   C849    1.417   .     A
C845   C847    1.419   .     A
C846   C280    1.388   1_556 S
C848   C855    1.419   .     A
C848   C273    1.416   1_556 S
C849   C854    1.419   .     A
C850   H866    1.106   .     S
C850   H865    1.113   .     S
C850   C851    1.521   .     S
C850   O894    1.404   .     S
C851   H867    1.111   .     S
C851   H868    1.111   .     S
C851   H869    1.109   .     S
C852   H870    1.107   .     S
C852   C853    1.522   .     S
C852   O886    1.404   .     S
C852   H871    1.115   .     S
C853   H873    1.110   .     S
C853   H875    1.111   .     S
C853   H874    1.111   .     S
C854   C856    1.385   .     A
C854   H882    1.076   .     S
C855   C857    1.386   .     A
C855   H862    1.077   .     S
C856   H861    1.084   .     S
C857   H872    1.084   .     S
C857   C271    1.389   1_556 S
C858   C987    1.339   .     S
C858   H1055   1.088   .     S
C860   O892    1.301   .     A
H864   C1051   1.088   .     S
H880   C901    1.084   .     S
N883   O894    1.347   .     S
N883   N884    1.291   .     D
N883   Zn896   2.027   .     S
N884   O886    1.347   .     S
N884   Zn895   2.027   .     S
O885   Zn895   1.951   .     S
O885   C897    1.279   .     S
O887   Zn896   1.951   .     S
O888   Zn896   1.976   .     S
O889   Zn895   1.976   .     S
O890   Zn895   1.960   .     S
O890   C924    1.295   .     S
O891   Zn896   1.960   .     S
O892   Zn896   1.908   .     S
O893   Zn895   1.908   .     S
C897   O952    1.292   .     A
C897   C922    1.402   .     S
C898   C900    1.449   .     S
C898   O957    1.300   .     A
C898   O827    1.295   1_655 S
C899   C905    1.389   .     A
C899   C924    1.452   .     S
C900   C904    1.399   .     A
C900   C906    1.386   .     A
C901   C910    1.403   .     A
C902   H945    1.084   .     S
C902   C904    1.392   .     A
C902   C911    1.404   .     A
C903   H943    1.082   .     S
C903   C771    1.399   1_655 S
C903   C773    1.392   1_655 S
C904   H814    1.082   1_655 S
C905   H941    1.076   .     S
C905   C907    1.394   .     A
C906   H940    1.078   .     S
C906   C909    1.395   .     A
C907   C912    1.417   .     A
C907   C910    1.419   .     A
C908   O953    1.292   .     A
C908   C923    1.402   .     S
C908   O823    1.279   1_655 S
C909   C913    1.417   .     A
C909   C911    1.419   .     A
C910   C344    1.388   1_556 S
C912   C919    1.419   .     A
C912   C337    1.416   1_556 S
C913   C918    1.419   .     A
C914   H930    1.106   .     S
C914   H929    1.113   .     S
C914   C915    1.521   .     S
C914   O958    1.404   .     S
C915   H931    1.111   .     S
C915   H932    1.111   .     S
C915   H933    1.109   .     S
C916   H934    1.107   .     S
C916   C917    1.522   .     S
C916   O950    1.404   .     S
C916   H935    1.115   .     S
C917   H937    1.110   .     S
C917   H939    1.111   .     S
C917   H938    1.111   .     S
C918   C920    1.385   .     A
C918   H946    1.076   .     S
C919   C921    1.386   .     A
C919   H926    1.077   .     S
C920   H925    1.084   .     S
C921   H936    1.084   .     S
C921   C335    1.389   1_556 S
C922   C1051   1.339   .     S
C922   H1119   1.088   .     S
C923   C602    1.339   1_655 S
C924   O956    1.301   .     A
H928   C1115   1.088   .     S
H944   C773    1.084   1_655 S
N947   O958    1.347   .     S
N947   N948    1.291   .     D
N947   Zn960   2.027   .     S
N948   O950    1.347   .     S
N948   Zn959   2.027   .     S
O949   Zn959   1.951   .     S
O949   C769    1.279   1_655 S
O951   Zn960   1.951   .     S
O952   Zn960   1.976   .     S
O953   Zn959   1.976   .     S
O954   Zn959   1.960   .     S
O954   C796    1.295   1_655 S
O955   Zn960   1.960   .     S
O956   Zn960   1.908   .     S
O957   Zn959   1.908   .     S
C961   O1016   1.292   .     A
C961   C986    1.402   .     S
C961   O1141   1.279   1_455 S
C962   C964    1.449   .     S
C962   O1021   1.300   .     A
C962   O1083   1.295   .     S
C963   C969    1.389   .     A
C963   C988    1.452   .     S
C963   C1095   1.399   1_455 S
C964   C968    1.399   .     A
C964   C970    1.386   .     A
C965   C974    1.403   .     A
C965   C1095   1.392   1_455 S
C965   H1136   1.084   1_455 S
C966   H1009   1.084   .     S
C966   C968    1.392   .     A
C966   C975    1.404   .     A
C967   H1007   1.082   .     S
C967   C1027   1.399   .     S
C967   C1029   1.392   .     S
C968   H1070   1.082   .     S
C969   H1005   1.076   .     S
C969   C971    1.394   .     A
C970   H1004   1.078   .     S
C970   C973    1.395   .     A
C971   C976    1.417   .     A
C971   C974    1.419   .     A
C972   O1017   1.292   .     A
C972   C987    1.402   .     S
C972   O1079   1.279   .     S
C973   C977    1.417   .     A
C973   C975    1.419   .     A
C974   C408    1.388   1_556 S
C976   C983    1.419   .     A
C976   C401    1.416   1_556 S
C977   C982    1.419   .     A
C978   H994    1.106   .     S
C978   H993    1.113   .     S
C978   C979    1.521   .     S
C978   O1022   1.404   .     S
C979   H995    1.111   .     S
C979   H996    1.111   .     S
C979   H997    1.109   .     S
C980   H998    1.107   .     S
C980   C981    1.522   .     S
C980   O1014   1.404   .     S
C980   H999    1.115   .     S
C981   H1001   1.110   .     S
C981   H1003   1.111   .     S
C981   H1002   1.111   .     S
C982   C984    1.385   .     A
C982   H1010   1.076   .     S
C983   C985    1.386   .     A
C983   H990    1.077   .     S
C984   H989    1.084   .     S
C985   H1000   1.084   .     S
C985   C399    1.389   1_556 S
C986   C731    1.339   1_465 S
C986   H607    1.088   1_565 S
C988   O1020   1.301   .     A
C988   O1146   1.295   1_455 S
H992   C603    1.088   1_565 S
H1006  C1096   1.082   1_455 S
H1008  C1029   1.084   .     S
N1011  O1022   1.347   .     S
N1011  N1012   1.291   .     D
N1011  Zn1024  2.027   .     S
N1012  O1014   1.347   .     S
N1012  Zn1023  2.027   .     S
O1013  Zn1023  1.951   .     S
O1013  C1025   1.279   .     S
O1015  Zn1024  1.951   .     S
O1015  C1100   1.279   1_455 S
O1016  Zn1024  1.976   .     S
O1017  Zn1023  1.976   .     S
O1018  Zn1023  1.960   .     S
O1018  C1052   1.295   .     S
O1019  Zn1024  1.960   .     S
O1019  C1090   1.295   1_455 S
O1020  Zn1024  1.908   .     S
O1021  Zn1023  1.908   .     S
C1025  O1080   1.292   .     A
C1025  C1050   1.402   .     S
C1026  C1028   1.449   .     S
C1026  O1085   1.300   .     A
C1026  O1147   1.295   .     S
C1027  C1033   1.389   .     A
C1027  C1052   1.452   .     S
C1028  C1032   1.399   .     A
C1028  C1034   1.386   .     A
C1029  C1038   1.403   .     A
C1030  H1073   1.084   .     S
C1030  C1032   1.392   .     A
C1030  C1039   1.404   .     A
C1031  H1071   1.082   .     S
C1031  C1091   1.399   .     S
C1031  C1093   1.392   .     S
C1032  H1134   1.082   .     S
C1033  H1069   1.076   .     S
C1033  C1035   1.394   .     A
C1034  H1068   1.078   .     S
C1034  C1037   1.395   .     A
C1035  C1040   1.417   .     A
C1035  C1038   1.419   .     A
C1036  O1081   1.292   .     A
C1036  C1051   1.402   .     S
C1036  O1143   1.279   .     S
C1037  C1041   1.417   .     A
C1037  C1039   1.419   .     A
C1038  C472    1.388   1_556 S
C1040  C1047   1.419   .     A
C1040  C465    1.416   1_556 S
C1041  C1046   1.419   .     A
C1042  H1058   1.106   .     S
C1042  H1057   1.113   .     S
C1042  C1043   1.521   .     S
C1042  O1086   1.404   .     S
C1043  H1059   1.111   .     S
C1043  H1060   1.111   .     S
C1043  H1061   1.109   .     S
C1044  H1062   1.107   .     S
C1044  C1045   1.522   .     S
C1044  O1078   1.404   .     S
C1044  H1063   1.115   .     S
C1045  H1065   1.110   .     S
C1045  H1067   1.111   .     S
C1045  H1066   1.111   .     S
C1046  C1048   1.385   .     A
C1046  H1074   1.076   .     S
C1047  C1049   1.386   .     A
C1047  H1054   1.077   .     S
C1048  H1053   1.084   .     S
C1049  H1064   1.084   .     S
C1049  C463    1.389   1_556 S
C1050  C603    1.339   1_565 S
C1050  H671    1.088   1_565 S
C1052  O1084   1.301   .     A
H1056  C667    1.088   1_565 S
H1072  C1093   1.084   .     S
N1075  O1086   1.347   .     S
N1075  N1076   1.291   .     D
N1075  Zn1088  2.027   .     S
N1076  O1078   1.347   .     S
N1076  Zn1087  2.027   .     S
O1077  Zn1087  1.951   .     S
O1077  C1089   1.279   .     S
O1079  Zn1088  1.951   .     S
O1080  Zn1088  1.976   .     S
O1081  Zn1087  1.976   .     S
O1082  Zn1087  1.960   .     S
O1082  C1116   1.295   .     S
O1083  Zn1088  1.960   .     S
O1084  Zn1088  1.908   .     S
O1085  Zn1087  1.908   .     S
C1089  O1144   1.292   .     A
C1089  C1114   1.402   .     S
C1090  C1092   1.449   .     S
C1090  O1149   1.300   .     A
C1090  O1019   1.295   1_655 S
C1091  C1097   1.389   .     A
C1091  C1116   1.452   .     S
C1092  C1096   1.399   .     A
C1092  C1098   1.386   .     A
C1093  C1102   1.403   .     A
C1094  H1137   1.084   .     S
C1094  C1096   1.392   .     A
C1094  C1103   1.404   .     A
C1095  H1135   1.082   .     S
C1095  C963    1.399   1_655 S
C1095  C965    1.392   1_655 S
C1096  H1006   1.082   1_655 S
C1097  H1133   1.076   .     S
C1097  C1099   1.394   .     A
C1098  H1132   1.078   .     S
C1098  C1101   1.395   .     A
C1099  C1104   1.417   .     A
C1099  C1102   1.419   .     A
C1100  O1145   1.292   .     A
C1100  C1115   1.402   .     S
C1100  O1015   1.279   1_655 S
C1101  C1105   1.417   .     A
C1101  C1103   1.419   .     A
C1102  C536    1.388   1_556 S
C1104  C1111   1.419   .     A
C1104  C529    1.416   1_556 S
C1105  C1110   1.419   .     A
C1106  H1122   1.106   .     S
C1106  H1121   1.113   .     S
C1106  C1107   1.521   .     S
C1106  O1150   1.404   .     S
C1107  H1123   1.111   .     S
C1107  H1124   1.111   .     S
C1107  H1125   1.109   .     S
C1108  H1126   1.107   .     S
C1108  C1109   1.522   .     S
C1108  O1142   1.404   .     S
C1108  H1127   1.115   .     S
C1109  H1129   1.110   .     S
C1109  H1131   1.111   .     S
C1109  H1130   1.111   .     S
C1110  C1112   1.385   .     A
C1110  H1138   1.076   .     S
C1111  C1113   1.386   .     A
C1111  H1118   1.077   .     S
C1112  H1117   1.084   .     S
C1113  H1128   1.084   .     S
C1113  C527    1.389   1_556 S
C1114  C667    1.339   1_565 S
C1114  H735    1.088   1_565 S
C1115  C794    1.339   1_655 S
C1116  O1148   1.301   .     A
H1120  C731    1.088   1_565 S
H1136  C965    1.084   1_655 S
N1139  O1150   1.347   .     S
N1139  N1140   1.291   .     D
N1139  Zn1152  2.027   .     S
N1140  O1142   1.347   .     S
N1140  Zn1151  2.027   .     S
O1141  Zn1151  1.951   .     S
O1141  C961    1.279   1_655 S
O1143  Zn1152  1.951   .     S
O1144  Zn1152  1.976   .     S
O1145  Zn1151  1.976   .     S
O1146  Zn1151  1.960   .     S
O1146  C988    1.295   1_655 S
O1147  Zn1152  1.960   .     S
O1148  Zn1152  1.908   .     S
O1149  Zn1151  1.908   .     S
