data_str_m3_o10_o18_pcu_sym.17
_audit_creation_date              2020-01-03
_audit_creation_method            'Materials Studio'
_symmetry_space_group_name_H-M    'P1'
_symmetry_Int_Tables_number       1
_symmetry_cell_setting            triclinic
loop_
_symmetry_equiv_pos_as_xyz
  x,y,z
_cell_length_a                    23.4988
_cell_length_b                    25.8207
_cell_length_c                    27.5159
_cell_angle_alpha                 93.6038
_cell_angle_beta                  93.0808
_cell_angle_gamma                 94.0241
loop_
_atom_site_label
_atom_site_type_symbol
_atom_site_fract_x
_atom_site_fract_y
_atom_site_fract_z
_atom_site_U_iso_or_equiv
_atom_site_adp_type
_atom_site_occupancy
C1     C     0.01485   0.26476   0.24881   0.00000  Uiso   1.00
C2     C     0.31237   0.16301   0.15893   0.00000  Uiso   1.00
C3     C     0.03324   0.18218   0.39295   0.00000  Uiso   1.00
C4     C     0.30278   0.16064   0.10632   0.00000  Uiso   1.00
C5     C     0.02633   0.23800   0.46576   0.00000  Uiso   1.00
C6     C     0.32197   0.12571   0.02602   0.00000  Uiso   1.00
C7     C     0.00420   0.21888   0.41960   0.00000  Uiso   1.00
C8     C     0.00470   0.13414   0.07545   0.00000  Uiso   1.00
C9     C     0.08232   0.16327   0.41294   0.00000  Uiso   1.00
C10    C     0.25463   0.18232   0.08742   0.00000  Uiso   1.00
C11    C     0.10888   0.18626   0.45620   0.00000  Uiso   1.00
C12    C     0.31845   0.06858   0.25106   0.00000  Uiso   1.00
C13    C     0.23765   0.17464   0.03805   0.00000  Uiso   1.00
C14    C     0.07911   0.22265   0.48389   0.00000  Uiso   1.00
C15    C     0.27084   0.14394   0.00754   0.00000  Uiso   1.00
C16    C     0.16434   0.17422   0.47217   0.00000  Uiso   1.00
C17    C     0.18605   0.19303   0.01938   0.00000  Uiso   1.00
C18    C     0.03713   0.00037   0.15665   0.00000  Uiso   1.00
C19    C     0.29575   0.00096   0.34310   0.00000  Uiso   1.00
C20    C     0.15540   0.22933   0.04635   0.00000  Uiso   1.00
C21    C     0.19936   0.14524   0.44192   0.00000  Uiso   1.00
C22    C     0.10297   0.24404   0.02861   0.00000  Uiso   1.00
C23    C     0.25190   0.13074   0.45939   0.00000  Uiso   1.00
C24    C     0.01986   0.31811   0.24065   0.00000  Uiso   1.00
C25    C     0.31332   0.01521   0.25897   0.00000  Uiso   1.00
C26    C     0.02117   0.17121   0.34103   0.00000  Uiso   1.00
H27    H     0.08106   0.27232   0.04999   0.00000  Uiso   1.00
H28    H     0.18814   0.13434   0.40398   0.00000  Uiso   1.00
H29    H     0.16244   0.12468   0.21384   0.00000  Uiso   1.00
H30    H     0.17090   0.20864   0.28617   0.00000  Uiso   1.00
H31    H     0.09865   0.31859   0.20956   0.00000  Uiso   1.00
H32    H     0.07018   0.01670   0.13336   0.00000  Uiso   1.00
H33    H     0.33289   0.02407   0.15380   0.00000  Uiso   1.00
H34    H     0.02434   0.29288   0.14298   0.00000  Uiso   1.00
H35    H     0.23423   0.01411   0.28949   0.00000  Uiso   1.00
H36    H     0.26283   0.31794   0.36649   0.00000  Uiso   1.00
H37    H     0.30764   0.04214   0.35612   0.00000  Uiso   1.00
H38    H     0.27723   0.10812   0.43535   0.00000  Uiso   1.00
H39    H     0.00054   0.31137   0.34658   0.00000  Uiso   1.00
H40    H     0.22875   0.20199   0.11280   0.00000  Uiso   1.00
H41    H     0.10032   0.13196   0.39256   0.00000  Uiso   1.00
H42    H     0.04276   0.11771   0.08986   0.00000  Uiso   1.00
H43    H     0.29912   0.23386   0.40420   0.00000  Uiso   1.00
H44    H     0.00351   0.26621   0.48634   0.00000  Uiso   1.00
H45    H     0.01492   0.10331   0.00266   0.00000  Uiso   1.00
H46    H     0.17186   0.24875   0.08057   0.00000  Uiso   1.00
N47    N     0.14695   0.15216   0.23740   0.00000  Uiso   1.00
N48    N     0.18638   0.18117   0.26261   0.00000  Uiso   1.00
N49    N     0.06011   0.00195   0.20665   0.00000  Uiso   1.00
N50    N     0.27309   0.33137   0.29297   0.00000  Uiso   1.00
O51    O     0.29719   0.24631   0.25310   0.00000  Uiso   1.00
O52    O     0.03614   0.08702   0.24691   0.00000  Uiso   1.00
O53    O     0.05822   0.23702   0.24502   0.00000  Uiso   1.00
O54    O     0.27512   0.09632   0.25499   0.00000  Uiso   1.00
O55    O     0.30328   0.17397   0.32247   0.00000  Uiso   1.00
O56    O     0.03005   0.15937   0.17753   0.00000  Uiso   1.00
O57    O     0.06431   0.16467   0.31439   0.00000  Uiso   1.00
O58    O     0.26902   0.16866   0.18561   0.00000  Uiso   1.00
Zn59   Zn    0.27033   0.17287   0.25540   0.00000  Uiso   1.00
Zn60   Zn    0.06300   0.16046   0.24461   0.00000  Uiso   1.00
C61    C     0.34819   0.26476   0.24881   0.00000  Uiso   1.00
C62    C     0.64570   0.16301   0.15893   0.00000  Uiso   1.00
C63    C     0.36658   0.18218   0.39295   0.00000  Uiso   1.00
C64    C     0.63611   0.16064   0.10632   0.00000  Uiso   1.00
C65    C     0.35967   0.23800   0.46576   0.00000  Uiso   1.00
C66    C     0.65531   0.12571   0.02602   0.00000  Uiso   1.00
C67    C     0.33754   0.21888   0.41960   0.00000  Uiso   1.00
C68    C     0.33804   0.13414   0.07545   0.00000  Uiso   1.00
C69    C     0.41566   0.16327   0.41294   0.00000  Uiso   1.00
C70    C     0.58797   0.18232   0.08742   0.00000  Uiso   1.00
C71    C     0.44222   0.18626   0.45620   0.00000  Uiso   1.00
C72    C     0.65178   0.06858   0.25106   0.00000  Uiso   1.00
C73    C     0.57098   0.17464   0.03805   0.00000  Uiso   1.00
C74    C     0.41244   0.22265   0.48389   0.00000  Uiso   1.00
C75    C     0.60417   0.14394   0.00754   0.00000  Uiso   1.00
C76    C     0.49767   0.17422   0.47217   0.00000  Uiso   1.00
C77    C     0.51938   0.19303   0.01938   0.00000  Uiso   1.00
C78    C     0.37046   0.00037   0.15665   0.00000  Uiso   1.00
C79    C     0.62908   0.00096   0.34310   0.00000  Uiso   1.00
C80    C     0.48873   0.22933   0.04635   0.00000  Uiso   1.00
C81    C     0.53270   0.14524   0.44192   0.00000  Uiso   1.00
C82    C     0.43630   0.24404   0.02861   0.00000  Uiso   1.00
C83    C     0.58523   0.13074   0.45939   0.00000  Uiso   1.00
C84    C     0.35319   0.31811   0.24065   0.00000  Uiso   1.00
C85    C     0.64666   0.01521   0.25897   0.00000  Uiso   1.00
C86    C     0.35450   0.17121   0.34103   0.00000  Uiso   1.00
H87    H     0.41439   0.27232   0.04999   0.00000  Uiso   1.00
H88    H     0.52148   0.13434   0.40398   0.00000  Uiso   1.00
H89    H     0.49577   0.12468   0.21384   0.00000  Uiso   1.00
H90    H     0.50423   0.20864   0.28617   0.00000  Uiso   1.00
H91    H     0.43199   0.31859   0.20956   0.00000  Uiso   1.00
H92    H     0.40351   0.01670   0.13336   0.00000  Uiso   1.00
H93    H     0.66622   0.02407   0.15380   0.00000  Uiso   1.00
H94    H     0.35767   0.29288   0.14298   0.00000  Uiso   1.00
H95    H     0.56757   0.01411   0.28949   0.00000  Uiso   1.00
H96    H     0.59616   0.31794   0.36649   0.00000  Uiso   1.00
H97    H     0.64097   0.04214   0.35612   0.00000  Uiso   1.00
H98    H     0.61057   0.10812   0.43535   0.00000  Uiso   1.00
H99    H     0.33387   0.31137   0.34658   0.00000  Uiso   1.00
H100   H     0.56209   0.20199   0.11280   0.00000  Uiso   1.00
H101   H     0.43365   0.13196   0.39256   0.00000  Uiso   1.00
H102   H     0.37610   0.11771   0.08986   0.00000  Uiso   1.00
H103   H     0.63246   0.23386   0.40420   0.00000  Uiso   1.00
H104   H     0.33685   0.26621   0.48634   0.00000  Uiso   1.00
H105   H     0.34825   0.10331   0.00266   0.00000  Uiso   1.00
H106   H     0.50520   0.24875   0.08057   0.00000  Uiso   1.00
N107   N     0.48029   0.15216   0.23740   0.00000  Uiso   1.00
N108   N     0.51971   0.18117   0.26261   0.00000  Uiso   1.00
N109   N     0.39344   0.00195   0.20665   0.00000  Uiso   1.00
N110   N     0.60642   0.33137   0.29297   0.00000  Uiso   1.00
O111   O     0.63052   0.24631   0.25310   0.00000  Uiso   1.00
O112   O     0.36948   0.08702   0.24691   0.00000  Uiso   1.00
O113   O     0.39155   0.23702   0.24502   0.00000  Uiso   1.00
O114   O     0.60845   0.09632   0.25499   0.00000  Uiso   1.00
O115   O     0.63662   0.17397   0.32247   0.00000  Uiso   1.00
O116   O     0.36338   0.15937   0.17753   0.00000  Uiso   1.00
O117   O     0.39764   0.16467   0.31439   0.00000  Uiso   1.00
O118   O     0.60236   0.16866   0.18561   0.00000  Uiso   1.00
Zn119  Zn    0.60366   0.17287   0.25540   0.00000  Uiso   1.00
Zn120  Zn    0.39634   0.16046   0.24461   0.00000  Uiso   1.00
C121   C     0.68152   0.26476   0.24881   0.00000  Uiso   1.00
C122   C     0.97904   0.16301   0.15893   0.00000  Uiso   1.00
C123   C     0.69991   0.18218   0.39295   0.00000  Uiso   1.00
C124   C     0.96945   0.16064   0.10632   0.00000  Uiso   1.00
C125   C     0.69300   0.23800   0.46576   0.00000  Uiso   1.00
C126   C     0.98864   0.12571   0.02602   0.00000  Uiso   1.00
C127   C     0.67087   0.21888   0.41960   0.00000  Uiso   1.00
C128   C     0.67137   0.13414   0.07545   0.00000  Uiso   1.00
C129   C     0.74899   0.16327   0.41294   0.00000  Uiso   1.00
C130   C     0.92130   0.18232   0.08742   0.00000  Uiso   1.00
C131   C     0.77555   0.18626   0.45620   0.00000  Uiso   1.00
C132   C     0.98512   0.06858   0.25106   0.00000  Uiso   1.00
C133   C     0.90431   0.17464   0.03805   0.00000  Uiso   1.00
C134   C     0.74577   0.22265   0.48389   0.00000  Uiso   1.00
C135   C     0.93750   0.14394   0.00754   0.00000  Uiso   1.00
C136   C     0.83100   0.17422   0.47217   0.00000  Uiso   1.00
C137   C     0.85272   0.19303   0.01938   0.00000  Uiso   1.00
C138   C     0.70379   0.00037   0.15665   0.00000  Uiso   1.00
C139   C     0.96242   0.00096   0.34310   0.00000  Uiso   1.00
C140   C     0.82206   0.22933   0.04635   0.00000  Uiso   1.00
C141   C     0.86603   0.14524   0.44192   0.00000  Uiso   1.00
C142   C     0.76963   0.24404   0.02861   0.00000  Uiso   1.00
C143   C     0.91856   0.13074   0.45939   0.00000  Uiso   1.00
C144   C     0.68652   0.31811   0.24065   0.00000  Uiso   1.00
C145   C     0.97999   0.01521   0.25897   0.00000  Uiso   1.00
C146   C     0.68784   0.17121   0.34103   0.00000  Uiso   1.00
H147   H     0.74773   0.27232   0.04999   0.00000  Uiso   1.00
H148   H     0.85481   0.13434   0.40398   0.00000  Uiso   1.00
H149   H     0.82910   0.12468   0.21384   0.00000  Uiso   1.00
H150   H     0.83756   0.20864   0.28617   0.00000  Uiso   1.00
H151   H     0.76532   0.31859   0.20956   0.00000  Uiso   1.00
H152   H     0.73684   0.01670   0.13336   0.00000  Uiso   1.00
H153   H     0.99955   0.02407   0.15380   0.00000  Uiso   1.00
H154   H     0.69100   0.29288   0.14298   0.00000  Uiso   1.00
H155   H     0.90090   0.01411   0.28949   0.00000  Uiso   1.00
H156   H     0.92950   0.31794   0.36649   0.00000  Uiso   1.00
H157   H     0.97430   0.04214   0.35612   0.00000  Uiso   1.00
H158   H     0.94390   0.10812   0.43535   0.00000  Uiso   1.00
H159   H     0.66721   0.31137   0.34658   0.00000  Uiso   1.00
H160   H     0.89542   0.20199   0.11280   0.00000  Uiso   1.00
H161   H     0.76698   0.13196   0.39256   0.00000  Uiso   1.00
H162   H     0.70943   0.11771   0.08986   0.00000  Uiso   1.00
H163   H     0.96579   0.23386   0.40420   0.00000  Uiso   1.00
H164   H     0.67018   0.26621   0.48634   0.00000  Uiso   1.00
H165   H     0.68158   0.10331   0.00266   0.00000  Uiso   1.00
H166   H     0.83853   0.24875   0.08057   0.00000  Uiso   1.00
N167   N     0.81362   0.15216   0.23740   0.00000  Uiso   1.00
N168   N     0.85305   0.18117   0.26261   0.00000  Uiso   1.00
N169   N     0.72678   0.00195   0.20665   0.00000  Uiso   1.00
N170   N     0.93976   0.33137   0.29297   0.00000  Uiso   1.00
O171   O     0.96386   0.24631   0.25310   0.00000  Uiso   1.00
O172   O     0.70281   0.08702   0.24691   0.00000  Uiso   1.00
O173   O     0.72488   0.23702   0.24502   0.00000  Uiso   1.00
O174   O     0.94178   0.09632   0.25499   0.00000  Uiso   1.00
O175   O     0.96995   0.17397   0.32247   0.00000  Uiso   1.00
O176   O     0.69672   0.15937   0.17753   0.00000  Uiso   1.00
O177   O     0.73098   0.16467   0.31439   0.00000  Uiso   1.00
O178   O     0.93569   0.16866   0.18561   0.00000  Uiso   1.00
Zn179  Zn    0.93700   0.17287   0.25540   0.00000  Uiso   1.00
Zn180  Zn    0.72967   0.16046   0.24461   0.00000  Uiso   1.00
C181   C     0.01485   0.59809   0.24881   0.00000  Uiso   1.00
C182   C     0.31237   0.49635   0.15893   0.00000  Uiso   1.00
C183   C     0.03324   0.51552   0.39295   0.00000  Uiso   1.00
C184   C     0.30278   0.49398   0.10632   0.00000  Uiso   1.00
C185   C     0.02633   0.57133   0.46576   0.00000  Uiso   1.00
C186   C     0.32197   0.45904   0.02602   0.00000  Uiso   1.00
C187   C     0.00420   0.55222   0.41960   0.00000  Uiso   1.00
C188   C     0.00470   0.46747   0.07545   0.00000  Uiso   1.00
C189   C     0.08232   0.49660   0.41294   0.00000  Uiso   1.00
C190   C     0.25463   0.51565   0.08742   0.00000  Uiso   1.00
C191   C     0.10888   0.51959   0.45620   0.00000  Uiso   1.00
C192   C     0.31845   0.40192   0.25106   0.00000  Uiso   1.00
C193   C     0.23765   0.50797   0.03805   0.00000  Uiso   1.00
C194   C     0.07911   0.55598   0.48389   0.00000  Uiso   1.00
C195   C     0.27084   0.47727   0.00754   0.00000  Uiso   1.00
C196   C     0.16434   0.50755   0.47217   0.00000  Uiso   1.00
C197   C     0.18605   0.52636   0.01938   0.00000  Uiso   1.00
C198   C     0.03713   0.33370   0.15665   0.00000  Uiso   1.00
C199   C     0.29575   0.33430   0.34310   0.00000  Uiso   1.00
C200   C     0.15540   0.56267   0.04635   0.00000  Uiso   1.00
C201   C     0.19936   0.47857   0.44192   0.00000  Uiso   1.00
C202   C     0.10297   0.57737   0.02861   0.00000  Uiso   1.00
C203   C     0.25190   0.46408   0.45939   0.00000  Uiso   1.00
C204   C     0.01986   0.65144   0.24065   0.00000  Uiso   1.00
C205   C     0.31332   0.34854   0.25897   0.00000  Uiso   1.00
C206   C     0.02117   0.50454   0.34103   0.00000  Uiso   1.00
H207   H     0.08106   0.60565   0.04999   0.00000  Uiso   1.00
H208   H     0.18814   0.46768   0.40398   0.00000  Uiso   1.00
H209   H     0.16244   0.45802   0.21384   0.00000  Uiso   1.00
H210   H     0.17090   0.54197   0.28617   0.00000  Uiso   1.00
H211   H     0.09865   0.65192   0.20956   0.00000  Uiso   1.00
H212   H     0.07018   0.35004   0.13336   0.00000  Uiso   1.00
H213   H     0.33289   0.35740   0.15380   0.00000  Uiso   1.00
H214   H     0.02434   0.62621   0.14298   0.00000  Uiso   1.00
H215   H     0.23423   0.34745   0.28949   0.00000  Uiso   1.00
H216   H     0.26283   0.65127   0.36649   0.00000  Uiso   1.00
H217   H     0.30764   0.37547   0.35612   0.00000  Uiso   1.00
H218   H     0.27723   0.44145   0.43535   0.00000  Uiso   1.00
H219   H     0.00054   0.64470   0.34658   0.00000  Uiso   1.00
H220   H     0.22875   0.53532   0.11280   0.00000  Uiso   1.00
H221   H     0.10032   0.46529   0.39256   0.00000  Uiso   1.00
H222   H     0.04276   0.45104   0.08986   0.00000  Uiso   1.00
H223   H     0.29912   0.56719   0.40420   0.00000  Uiso   1.00
H224   H     0.00351   0.59955   0.48634   0.00000  Uiso   1.00
H225   H     0.01492   0.43664   0.00266   0.00000  Uiso   1.00
H226   H     0.17186   0.58208   0.08057   0.00000  Uiso   1.00
N227   N     0.14695   0.48550   0.23740   0.00000  Uiso   1.00
N228   N     0.18638   0.51450   0.26261   0.00000  Uiso   1.00
N229   N     0.06011   0.33529   0.20665   0.00000  Uiso   1.00
N230   N     0.27309   0.66470   0.29297   0.00000  Uiso   1.00
O231   O     0.29719   0.57964   0.25310   0.00000  Uiso   1.00
O232   O     0.03614   0.42036   0.24691   0.00000  Uiso   1.00
O233   O     0.05822   0.57035   0.24502   0.00000  Uiso   1.00
O234   O     0.27512   0.42965   0.25499   0.00000  Uiso   1.00
O235   O     0.30328   0.50730   0.32247   0.00000  Uiso   1.00
O236   O     0.03005   0.49270   0.17753   0.00000  Uiso   1.00
O237   O     0.06431   0.49801   0.31439   0.00000  Uiso   1.00
O238   O     0.26902   0.50199   0.18561   0.00000  Uiso   1.00
Zn239  Zn    0.27033   0.50621   0.25540   0.00000  Uiso   1.00
Zn240  Zn    0.06300   0.49379   0.24461   0.00000  Uiso   1.00
C241   C     0.34819   0.59809   0.24881   0.00000  Uiso   1.00
C242   C     0.64570   0.49635   0.15893   0.00000  Uiso   1.00
C243   C     0.36658   0.51552   0.39295   0.00000  Uiso   1.00
C244   C     0.63611   0.49398   0.10632   0.00000  Uiso   1.00
C245   C     0.35967   0.57133   0.46576   0.00000  Uiso   1.00
C246   C     0.65531   0.45904   0.02602   0.00000  Uiso   1.00
C247   C     0.33754   0.55222   0.41960   0.00000  Uiso   1.00
C248   C     0.33804   0.46747   0.07545   0.00000  Uiso   1.00
C249   C     0.41566   0.49660   0.41294   0.00000  Uiso   1.00
C250   C     0.58797   0.51565   0.08742   0.00000  Uiso   1.00
C251   C     0.44222   0.51959   0.45620   0.00000  Uiso   1.00
C252   C     0.65178   0.40192   0.25106   0.00000  Uiso   1.00
C253   C     0.57098   0.50797   0.03805   0.00000  Uiso   1.00
C254   C     0.41244   0.55598   0.48389   0.00000  Uiso   1.00
C255   C     0.60417   0.47727   0.00754   0.00000  Uiso   1.00
C256   C     0.49767   0.50755   0.47217   0.00000  Uiso   1.00
C257   C     0.51938   0.52636   0.01938   0.00000  Uiso   1.00
C258   C     0.37046   0.33370   0.15665   0.00000  Uiso   1.00
C259   C     0.62908   0.33430   0.34310   0.00000  Uiso   1.00
C260   C     0.48873   0.56267   0.04635   0.00000  Uiso   1.00
C261   C     0.53270   0.47857   0.44192   0.00000  Uiso   1.00
C262   C     0.43630   0.57737   0.02861   0.00000  Uiso   1.00
C263   C     0.58523   0.46408   0.45939   0.00000  Uiso   1.00
C264   C     0.35319   0.65144   0.24065   0.00000  Uiso   1.00
C265   C     0.64666   0.34854   0.25897   0.00000  Uiso   1.00
C266   C     0.35450   0.50454   0.34103   0.00000  Uiso   1.00
H267   H     0.41439   0.60565   0.04999   0.00000  Uiso   1.00
H268   H     0.52148   0.46768   0.40398   0.00000  Uiso   1.00
H269   H     0.49577   0.45802   0.21384   0.00000  Uiso   1.00
H270   H     0.50423   0.54197   0.28617   0.00000  Uiso   1.00
H271   H     0.43199   0.65192   0.20956   0.00000  Uiso   1.00
H272   H     0.40351   0.35004   0.13336   0.00000  Uiso   1.00
H273   H     0.66622   0.35740   0.15380   0.00000  Uiso   1.00
H274   H     0.35767   0.62621   0.14298   0.00000  Uiso   1.00
H275   H     0.56757   0.34745   0.28949   0.00000  Uiso   1.00
H276   H     0.59616   0.65127   0.36649   0.00000  Uiso   1.00
H277   H     0.64097   0.37547   0.35612   0.00000  Uiso   1.00
H278   H     0.61057   0.44145   0.43535   0.00000  Uiso   1.00
H279   H     0.33387   0.64470   0.34658   0.00000  Uiso   1.00
H280   H     0.56209   0.53532   0.11280   0.00000  Uiso   1.00
H281   H     0.43365   0.46529   0.39256   0.00000  Uiso   1.00
H282   H     0.37610   0.45104   0.08986   0.00000  Uiso   1.00
H283   H     0.63246   0.56719   0.40420   0.00000  Uiso   1.00
H284   H     0.33685   0.59955   0.48634   0.00000  Uiso   1.00
H285   H     0.34825   0.43664   0.00266   0.00000  Uiso   1.00
H286   H     0.50520   0.58208   0.08057   0.00000  Uiso   1.00
N287   N     0.48029   0.48550   0.23740   0.00000  Uiso   1.00
N288   N     0.51971   0.51450   0.26261   0.00000  Uiso   1.00
N289   N     0.39344   0.33529   0.20665   0.00000  Uiso   1.00
N290   N     0.60642   0.66470   0.29297   0.00000  Uiso   1.00
O291   O     0.63052   0.57964   0.25310   0.00000  Uiso   1.00
O292   O     0.36948   0.42036   0.24691   0.00000  Uiso   1.00
O293   O     0.39155   0.57035   0.24502   0.00000  Uiso   1.00
O294   O     0.60845   0.42965   0.25499   0.00000  Uiso   1.00
O295   O     0.63662   0.50730   0.32247   0.00000  Uiso   1.00
O296   O     0.36338   0.49270   0.17753   0.00000  Uiso   1.00
O297   O     0.39764   0.49801   0.31439   0.00000  Uiso   1.00
O298   O     0.60236   0.50199   0.18561   0.00000  Uiso   1.00
Zn299  Zn    0.60366   0.50621   0.25540   0.00000  Uiso   1.00
Zn300  Zn    0.39634   0.49379   0.24461   0.00000  Uiso   1.00
C301   C     0.68152   0.59809   0.24881   0.00000  Uiso   1.00
C302   C     0.97904   0.49635   0.15893   0.00000  Uiso   1.00
C303   C     0.69991   0.51552   0.39295   0.00000  Uiso   1.00
C304   C     0.96945   0.49398   0.10632   0.00000  Uiso   1.00
C305   C     0.69300   0.57133   0.46576   0.00000  Uiso   1.00
C306   C     0.98864   0.45904   0.02602   0.00000  Uiso   1.00
C307   C     0.67087   0.55222   0.41960   0.00000  Uiso   1.00
C308   C     0.67137   0.46747   0.07545   0.00000  Uiso   1.00
C309   C     0.74899   0.49660   0.41294   0.00000  Uiso   1.00
C310   C     0.92130   0.51565   0.08742   0.00000  Uiso   1.00
C311   C     0.77555   0.51959   0.45620   0.00000  Uiso   1.00
C312   C     0.98512   0.40192   0.25106   0.00000  Uiso   1.00
C313   C     0.90431   0.50797   0.03805   0.00000  Uiso   1.00
C314   C     0.74577   0.55598   0.48389   0.00000  Uiso   1.00
C315   C     0.93750   0.47727   0.00754   0.00000  Uiso   1.00
C316   C     0.83100   0.50755   0.47217   0.00000  Uiso   1.00
C317   C     0.85272   0.52636   0.01938   0.00000  Uiso   1.00
C318   C     0.70379   0.33370   0.15665   0.00000  Uiso   1.00
C319   C     0.96242   0.33430   0.34310   0.00000  Uiso   1.00
C320   C     0.82206   0.56267   0.04635   0.00000  Uiso   1.00
C321   C     0.86603   0.47857   0.44192   0.00000  Uiso   1.00
C322   C     0.76963   0.57737   0.02861   0.00000  Uiso   1.00
C323   C     0.91856   0.46408   0.45939   0.00000  Uiso   1.00
C324   C     0.68652   0.65144   0.24065   0.00000  Uiso   1.00
C325   C     0.97999   0.34854   0.25897   0.00000  Uiso   1.00
C326   C     0.68784   0.50454   0.34103   0.00000  Uiso   1.00
H327   H     0.74773   0.60565   0.04999   0.00000  Uiso   1.00
H328   H     0.85481   0.46768   0.40398   0.00000  Uiso   1.00
H329   H     0.82910   0.45802   0.21384   0.00000  Uiso   1.00
H330   H     0.83756   0.54197   0.28617   0.00000  Uiso   1.00
H331   H     0.76532   0.65192   0.20956   0.00000  Uiso   1.00
H332   H     0.73684   0.35004   0.13336   0.00000  Uiso   1.00
H333   H     0.99955   0.35740   0.15380   0.00000  Uiso   1.00
H334   H     0.69100   0.62621   0.14298   0.00000  Uiso   1.00
H335   H     0.90090   0.34745   0.28949   0.00000  Uiso   1.00
H336   H     0.92950   0.65127   0.36649   0.00000  Uiso   1.00
H337   H     0.97430   0.37547   0.35612   0.00000  Uiso   1.00
H338   H     0.94390   0.44145   0.43535   0.00000  Uiso   1.00
H339   H     0.66721   0.64470   0.34658   0.00000  Uiso   1.00
H340   H     0.89542   0.53532   0.11280   0.00000  Uiso   1.00
H341   H     0.76698   0.46529   0.39256   0.00000  Uiso   1.00
H342   H     0.70943   0.45104   0.08986   0.00000  Uiso   1.00
H343   H     0.96579   0.56719   0.40420   0.00000  Uiso   1.00
H344   H     0.67018   0.59955   0.48634   0.00000  Uiso   1.00
H345   H     0.68158   0.43664   0.00266   0.00000  Uiso   1.00
H346   H     0.83853   0.58208   0.08057   0.00000  Uiso   1.00
N347   N     0.81362   0.48550   0.23740   0.00000  Uiso   1.00
N348   N     0.85305   0.51450   0.26261   0.00000  Uiso   1.00
N349   N     0.72678   0.33529   0.20665   0.00000  Uiso   1.00
N350   N     0.93976   0.66470   0.29297   0.00000  Uiso   1.00
O351   O     0.96386   0.57964   0.25310   0.00000  Uiso   1.00
O352   O     0.70281   0.42036   0.24691   0.00000  Uiso   1.00
O353   O     0.72488   0.57035   0.24502   0.00000  Uiso   1.00
O354   O     0.94178   0.42965   0.25499   0.00000  Uiso   1.00
O355   O     0.96995   0.50730   0.32247   0.00000  Uiso   1.00
O356   O     0.69672   0.49270   0.17753   0.00000  Uiso   1.00
O357   O     0.73098   0.49801   0.31439   0.00000  Uiso   1.00
O358   O     0.93569   0.50199   0.18561   0.00000  Uiso   1.00
Zn359  Zn    0.93700   0.50621   0.25540   0.00000  Uiso   1.00
Zn360  Zn    0.72967   0.49379   0.24461   0.00000  Uiso   1.00
C361   C     0.01485   0.93142   0.24881   0.00000  Uiso   1.00
C362   C     0.31237   0.82968   0.15893   0.00000  Uiso   1.00
C363   C     0.03324   0.84885   0.39295   0.00000  Uiso   1.00
C364   C     0.30278   0.82731   0.10632   0.00000  Uiso   1.00
C365   C     0.02633   0.90467   0.46576   0.00000  Uiso   1.00
C366   C     0.32197   0.79237   0.02602   0.00000  Uiso   1.00
C367   C     0.00420   0.88555   0.41960   0.00000  Uiso   1.00
C368   C     0.00470   0.80080   0.07545   0.00000  Uiso   1.00
C369   C     0.08232   0.82993   0.41294   0.00000  Uiso   1.00
C370   C     0.25463   0.84898   0.08742   0.00000  Uiso   1.00
C371   C     0.10888   0.85293   0.45620   0.00000  Uiso   1.00
C372   C     0.31845   0.73525   0.25106   0.00000  Uiso   1.00
C373   C     0.23765   0.84131   0.03805   0.00000  Uiso   1.00
C374   C     0.07911   0.88932   0.48389   0.00000  Uiso   1.00
C375   C     0.27084   0.81061   0.00754   0.00000  Uiso   1.00
C376   C     0.16434   0.84089   0.47217   0.00000  Uiso   1.00
C377   C     0.18605   0.85969   0.01938   0.00000  Uiso   1.00
C378   C     0.03713   0.66704   0.15665   0.00000  Uiso   1.00
C379   C     0.29575   0.66763   0.34310   0.00000  Uiso   1.00
C380   C     0.15540   0.89600   0.04635   0.00000  Uiso   1.00
C381   C     0.19936   0.81190   0.44192   0.00000  Uiso   1.00
C382   C     0.10297   0.91071   0.02861   0.00000  Uiso   1.00
C383   C     0.25190   0.79741   0.45939   0.00000  Uiso   1.00
C384   C     0.01986   0.98477   0.24065   0.00000  Uiso   1.00
C385   C     0.31332   0.68187   0.25897   0.00000  Uiso   1.00
C386   C     0.02117   0.83788   0.34103   0.00000  Uiso   1.00
H387   H     0.08106   0.93898   0.04999   0.00000  Uiso   1.00
H388   H     0.18814   0.80101   0.40398   0.00000  Uiso   1.00
H389   H     0.16244   0.79135   0.21384   0.00000  Uiso   1.00
H390   H     0.17090   0.87530   0.28617   0.00000  Uiso   1.00
H391   H     0.09865   0.98525   0.20956   0.00000  Uiso   1.00
H392   H     0.07018   0.68337   0.13336   0.00000  Uiso   1.00
H393   H     0.33289   0.69074   0.15380   0.00000  Uiso   1.00
H394   H     0.02434   0.95955   0.14298   0.00000  Uiso   1.00
H395   H     0.23423   0.68078   0.28949   0.00000  Uiso   1.00
H396   H     0.26283   0.98461   0.36649   0.00000  Uiso   1.00
H397   H     0.30764   0.70880   0.35612   0.00000  Uiso   1.00
H398   H     0.27723   0.77478   0.43535   0.00000  Uiso   1.00
H399   H     0.00054   0.97804   0.34658   0.00000  Uiso   1.00
H400   H     0.22875   0.86865   0.11280   0.00000  Uiso   1.00
H401   H     0.10032   0.79862   0.39256   0.00000  Uiso   1.00
H402   H     0.04276   0.78437   0.08986   0.00000  Uiso   1.00
H403   H     0.29912   0.90053   0.40420   0.00000  Uiso   1.00
H404   H     0.00351   0.93288   0.48634   0.00000  Uiso   1.00
H405   H     0.01492   0.76998   0.00266   0.00000  Uiso   1.00
H406   H     0.17186   0.91541   0.08057   0.00000  Uiso   1.00
N407   N     0.14695   0.81883   0.23740   0.00000  Uiso   1.00
N408   N     0.18638   0.84784   0.26261   0.00000  Uiso   1.00
N409   N     0.06011   0.66862   0.20665   0.00000  Uiso   1.00
N410   N     0.27309   0.99804   0.29297   0.00000  Uiso   1.00
O411   O     0.29719   0.91298   0.25310   0.00000  Uiso   1.00
O412   O     0.03614   0.75369   0.24691   0.00000  Uiso   1.00
O413   O     0.05822   0.90368   0.24502   0.00000  Uiso   1.00
O414   O     0.27512   0.76298   0.25499   0.00000  Uiso   1.00
O415   O     0.30328   0.84063   0.32247   0.00000  Uiso   1.00
O416   O     0.03005   0.82603   0.17753   0.00000  Uiso   1.00
O417   O     0.06431   0.83134   0.31439   0.00000  Uiso   1.00
O418   O     0.26902   0.83533   0.18561   0.00000  Uiso   1.00
Zn419  Zn    0.27033   0.83954   0.25540   0.00000  Uiso   1.00
Zn420  Zn    0.06300   0.82713   0.24461   0.00000  Uiso   1.00
C421   C     0.34819   0.93142   0.24881   0.00000  Uiso   1.00
C422   C     0.64570   0.82968   0.15893   0.00000  Uiso   1.00
C423   C     0.36658   0.84885   0.39295   0.00000  Uiso   1.00
C424   C     0.63611   0.82731   0.10632   0.00000  Uiso   1.00
C425   C     0.35967   0.90467   0.46576   0.00000  Uiso   1.00
C426   C     0.65531   0.79237   0.02602   0.00000  Uiso   1.00
C427   C     0.33754   0.88555   0.41960   0.00000  Uiso   1.00
C428   C     0.33804   0.80080   0.07545   0.00000  Uiso   1.00
C429   C     0.41566   0.82993   0.41294   0.00000  Uiso   1.00
C430   C     0.58797   0.84898   0.08742   0.00000  Uiso   1.00
C431   C     0.44222   0.85293   0.45620   0.00000  Uiso   1.00
C432   C     0.65178   0.73525   0.25106   0.00000  Uiso   1.00
C433   C     0.57098   0.84131   0.03805   0.00000  Uiso   1.00
C434   C     0.41244   0.88932   0.48389   0.00000  Uiso   1.00
C435   C     0.60417   0.81061   0.00754   0.00000  Uiso   1.00
C436   C     0.49767   0.84089   0.47217   0.00000  Uiso   1.00
C437   C     0.51938   0.85969   0.01938   0.00000  Uiso   1.00
C438   C     0.37046   0.66704   0.15665   0.00000  Uiso   1.00
C439   C     0.62908   0.66763   0.34310   0.00000  Uiso   1.00
C440   C     0.48873   0.89600   0.04635   0.00000  Uiso   1.00
C441   C     0.53270   0.81190   0.44192   0.00000  Uiso   1.00
C442   C     0.43630   0.91071   0.02861   0.00000  Uiso   1.00
C443   C     0.58523   0.79741   0.45939   0.00000  Uiso   1.00
C444   C     0.35319   0.98477   0.24065   0.00000  Uiso   1.00
C445   C     0.64666   0.68187   0.25897   0.00000  Uiso   1.00
C446   C     0.35450   0.83788   0.34103   0.00000  Uiso   1.00
H447   H     0.41439   0.93898   0.04999   0.00000  Uiso   1.00
H448   H     0.52148   0.80101   0.40398   0.00000  Uiso   1.00
H449   H     0.49577   0.79135   0.21384   0.00000  Uiso   1.00
H450   H     0.50423   0.87530   0.28617   0.00000  Uiso   1.00
H451   H     0.43199   0.98525   0.20956   0.00000  Uiso   1.00
H452   H     0.40351   0.68337   0.13336   0.00000  Uiso   1.00
H453   H     0.66622   0.69074   0.15380   0.00000  Uiso   1.00
H454   H     0.35767   0.95955   0.14298   0.00000  Uiso   1.00
H455   H     0.56757   0.68078   0.28949   0.00000  Uiso   1.00
H456   H     0.59616   0.98461   0.36649   0.00000  Uiso   1.00
H457   H     0.64097   0.70880   0.35612   0.00000  Uiso   1.00
H458   H     0.61057   0.77478   0.43535   0.00000  Uiso   1.00
H459   H     0.33387   0.97804   0.34658   0.00000  Uiso   1.00
H460   H     0.56209   0.86865   0.11280   0.00000  Uiso   1.00
H461   H     0.43365   0.79862   0.39256   0.00000  Uiso   1.00
H462   H     0.37610   0.78437   0.08986   0.00000  Uiso   1.00
H463   H     0.63246   0.90053   0.40420   0.00000  Uiso   1.00
H464   H     0.33685   0.93288   0.48634   0.00000  Uiso   1.00
H465   H     0.34825   0.76998   0.00266   0.00000  Uiso   1.00
H466   H     0.50520   0.91541   0.08057   0.00000  Uiso   1.00
N467   N     0.48029   0.81883   0.23740   0.00000  Uiso   1.00
N468   N     0.51971   0.84784   0.26261   0.00000  Uiso   1.00
N469   N     0.39344   0.66862   0.20665   0.00000  Uiso   1.00
N470   N     0.60642   0.99804   0.29297   0.00000  Uiso   1.00
O471   O     0.63052   0.91298   0.25310   0.00000  Uiso   1.00
O472   O     0.36948   0.75369   0.24691   0.00000  Uiso   1.00
O473   O     0.39155   0.90368   0.24502   0.00000  Uiso   1.00
O474   O     0.60845   0.76298   0.25499   0.00000  Uiso   1.00
O475   O     0.63662   0.84063   0.32247   0.00000  Uiso   1.00
O476   O     0.36338   0.82603   0.17753   0.00000  Uiso   1.00
O477   O     0.39764   0.83134   0.31439   0.00000  Uiso   1.00
O478   O     0.60236   0.83533   0.18561   0.00000  Uiso   1.00
Zn479  Zn    0.60366   0.83954   0.25540   0.00000  Uiso   1.00
Zn480  Zn    0.39634   0.82713   0.24461   0.00000  Uiso   1.00
C481   C     0.68152   0.93142   0.24881   0.00000  Uiso   1.00
C482   C     0.97904   0.82968   0.15893   0.00000  Uiso   1.00
C483   C     0.69991   0.84885   0.39295   0.00000  Uiso   1.00
C484   C     0.96945   0.82731   0.10632   0.00000  Uiso   1.00
C485   C     0.69300   0.90467   0.46576   0.00000  Uiso   1.00
C486   C     0.98864   0.79237   0.02602   0.00000  Uiso   1.00
C487   C     0.67087   0.88555   0.41960   0.00000  Uiso   1.00
C488   C     0.67137   0.80080   0.07545   0.00000  Uiso   1.00
C489   C     0.74899   0.82993   0.41294   0.00000  Uiso   1.00
C490   C     0.92130   0.84898   0.08742   0.00000  Uiso   1.00
C491   C     0.77555   0.85293   0.45620   0.00000  Uiso   1.00
C492   C     0.98512   0.73525   0.25106   0.00000  Uiso   1.00
C493   C     0.90431   0.84131   0.03805   0.00000  Uiso   1.00
C494   C     0.74577   0.88932   0.48389   0.00000  Uiso   1.00
C495   C     0.93750   0.81061   0.00754   0.00000  Uiso   1.00
C496   C     0.83100   0.84089   0.47217   0.00000  Uiso   1.00
C497   C     0.85272   0.85969   0.01938   0.00000  Uiso   1.00
C498   C     0.70379   0.66704   0.15665   0.00000  Uiso   1.00
C499   C     0.96242   0.66763   0.34310   0.00000  Uiso   1.00
C500   C     0.82206   0.89600   0.04635   0.00000  Uiso   1.00
C501   C     0.86603   0.81190   0.44192   0.00000  Uiso   1.00
C502   C     0.76963   0.91071   0.02861   0.00000  Uiso   1.00
C503   C     0.91856   0.79741   0.45939   0.00000  Uiso   1.00
C504   C     0.68652   0.98477   0.24065   0.00000  Uiso   1.00
C505   C     0.97999   0.68187   0.25897   0.00000  Uiso   1.00
C506   C     0.68784   0.83788   0.34103   0.00000  Uiso   1.00
H507   H     0.74773   0.93898   0.04999   0.00000  Uiso   1.00
H508   H     0.85481   0.80101   0.40398   0.00000  Uiso   1.00
H509   H     0.82910   0.79135   0.21384   0.00000  Uiso   1.00
H510   H     0.83756   0.87530   0.28617   0.00000  Uiso   1.00
H511   H     0.76532   0.98525   0.20956   0.00000  Uiso   1.00
H512   H     0.73684   0.68337   0.13336   0.00000  Uiso   1.00
H513   H     0.99955   0.69074   0.15380   0.00000  Uiso   1.00
H514   H     0.69100   0.95955   0.14298   0.00000  Uiso   1.00
H515   H     0.90090   0.68078   0.28949   0.00000  Uiso   1.00
H516   H     0.92950   0.98461   0.36649   0.00000  Uiso   1.00
H517   H     0.97430   0.70880   0.35612   0.00000  Uiso   1.00
H518   H     0.94390   0.77478   0.43535   0.00000  Uiso   1.00
H519   H     0.66721   0.97804   0.34658   0.00000  Uiso   1.00
H520   H     0.89542   0.86865   0.11280   0.00000  Uiso   1.00
H521   H     0.76698   0.79862   0.39256   0.00000  Uiso   1.00
H522   H     0.70943   0.78437   0.08986   0.00000  Uiso   1.00
H523   H     0.96579   0.90053   0.40420   0.00000  Uiso   1.00
H524   H     0.67018   0.93288   0.48634   0.00000  Uiso   1.00
H525   H     0.68158   0.76998   0.00266   0.00000  Uiso   1.00
H526   H     0.83853   0.91541   0.08057   0.00000  Uiso   1.00
N527   N     0.81362   0.81883   0.23740   0.00000  Uiso   1.00
N528   N     0.85305   0.84784   0.26261   0.00000  Uiso   1.00
N529   N     0.72678   0.66862   0.20665   0.00000  Uiso   1.00
N530   N     0.93976   0.99804   0.29297   0.00000  Uiso   1.00
O531   O     0.96386   0.91298   0.25310   0.00000  Uiso   1.00
O532   O     0.70281   0.75369   0.24691   0.00000  Uiso   1.00
O533   O     0.72488   0.90368   0.24502   0.00000  Uiso   1.00
O534   O     0.94178   0.76298   0.25499   0.00000  Uiso   1.00
O535   O     0.96995   0.84063   0.32247   0.00000  Uiso   1.00
O536   O     0.69672   0.82603   0.17753   0.00000  Uiso   1.00
O537   O     0.73098   0.83134   0.31439   0.00000  Uiso   1.00
O538   O     0.93569   0.83533   0.18561   0.00000  Uiso   1.00
Zn539  Zn    0.93700   0.83954   0.25540   0.00000  Uiso   1.00
Zn540  Zn    0.72967   0.82713   0.24461   0.00000  Uiso   1.00
C541   C     0.01485   0.26476   0.74881   0.00000  Uiso   1.00
C542   C     0.31237   0.16301   0.65893   0.00000  Uiso   1.00
C543   C     0.03324   0.18218   0.89295   0.00000  Uiso   1.00
C544   C     0.30278   0.16064   0.60632   0.00000  Uiso   1.00
C545   C     0.02633   0.23800   0.96576   0.00000  Uiso   1.00
C546   C     0.32197   0.12571   0.52602   0.00000  Uiso   1.00
C547   C     0.00420   0.21888   0.91960   0.00000  Uiso   1.00
C548   C     0.00470   0.13414   0.57545   0.00000  Uiso   1.00
C549   C     0.08232   0.16327   0.91294   0.00000  Uiso   1.00
C550   C     0.25463   0.18232   0.58742   0.00000  Uiso   1.00
C551   C     0.10888   0.18626   0.95620   0.00000  Uiso   1.00
C552   C     0.31845   0.06858   0.75106   0.00000  Uiso   1.00
C553   C     0.23765   0.17464   0.53805   0.00000  Uiso   1.00
C554   C     0.07911   0.22265   0.98389   0.00000  Uiso   1.00
C555   C     0.27084   0.14394   0.50754   0.00000  Uiso   1.00
C556   C     0.16434   0.17422   0.97217   0.00000  Uiso   1.00
C557   C     0.18605   0.19303   0.51938   0.00000  Uiso   1.00
C558   C     0.03713   0.00037   0.65665   0.00000  Uiso   1.00
C559   C     0.29575   0.00096   0.84310   0.00000  Uiso   1.00
C560   C     0.15540   0.22933   0.54635   0.00000  Uiso   1.00
C561   C     0.19936   0.14524   0.94192   0.00000  Uiso   1.00
C562   C     0.10297   0.24404   0.52861   0.00000  Uiso   1.00
C563   C     0.25190   0.13074   0.95939   0.00000  Uiso   1.00
C564   C     0.01986   0.31811   0.74065   0.00000  Uiso   1.00
C565   C     0.31332   0.01521   0.75897   0.00000  Uiso   1.00
C566   C     0.02117   0.17121   0.84103   0.00000  Uiso   1.00
H567   H     0.08106   0.27232   0.54999   0.00000  Uiso   1.00
H568   H     0.18814   0.13434   0.90398   0.00000  Uiso   1.00
H569   H     0.16244   0.12468   0.71384   0.00000  Uiso   1.00
H570   H     0.17090   0.20864   0.78617   0.00000  Uiso   1.00
H571   H     0.09865   0.31859   0.70956   0.00000  Uiso   1.00
H572   H     0.07018   0.01670   0.63336   0.00000  Uiso   1.00
H573   H     0.33289   0.02407   0.65380   0.00000  Uiso   1.00
H574   H     0.02434   0.29288   0.64298   0.00000  Uiso   1.00
H575   H     0.23423   0.01411   0.78949   0.00000  Uiso   1.00
H576   H     0.26283   0.31794   0.86649   0.00000  Uiso   1.00
H577   H     0.30764   0.04214   0.85612   0.00000  Uiso   1.00
H578   H     0.27723   0.10812   0.93535   0.00000  Uiso   1.00
H579   H     0.00054   0.31137   0.84658   0.00000  Uiso   1.00
H580   H     0.22875   0.20199   0.61280   0.00000  Uiso   1.00
H581   H     0.10032   0.13196   0.89256   0.00000  Uiso   1.00
H582   H     0.04276   0.11771   0.58986   0.00000  Uiso   1.00
H583   H     0.29912   0.23386   0.90420   0.00000  Uiso   1.00
H584   H     0.00351   0.26621   0.98634   0.00000  Uiso   1.00
H585   H     0.01492   0.10331   0.50266   0.00000  Uiso   1.00
H586   H     0.17186   0.24875   0.58057   0.00000  Uiso   1.00
N587   N     0.14695   0.15216   0.73740   0.00000  Uiso   1.00
N588   N     0.18638   0.18117   0.76261   0.00000  Uiso   1.00
N589   N     0.06011   0.00195   0.70665   0.00000  Uiso   1.00
N590   N     0.27309   0.33137   0.79297   0.00000  Uiso   1.00
O591   O     0.29719   0.24631   0.75310   0.00000  Uiso   1.00
O592   O     0.03614   0.08702   0.74691   0.00000  Uiso   1.00
O593   O     0.05822   0.23702   0.74502   0.00000  Uiso   1.00
O594   O     0.27512   0.09632   0.75499   0.00000  Uiso   1.00
O595   O     0.30328   0.17397   0.82247   0.00000  Uiso   1.00
O596   O     0.03005   0.15937   0.67753   0.00000  Uiso   1.00
O597   O     0.06431   0.16467   0.81439   0.00000  Uiso   1.00
O598   O     0.26902   0.16866   0.68561   0.00000  Uiso   1.00
Zn599  Zn    0.27033   0.17287   0.75540   0.00000  Uiso   1.00
Zn600  Zn    0.06300   0.16046   0.74461   0.00000  Uiso   1.00
C601   C     0.34819   0.26476   0.74881   0.00000  Uiso   1.00
C602   C     0.64570   0.16301   0.65893   0.00000  Uiso   1.00
C603   C     0.36658   0.18218   0.89295   0.00000  Uiso   1.00
C604   C     0.63611   0.16064   0.60632   0.00000  Uiso   1.00
C605   C     0.35967   0.23800   0.96576   0.00000  Uiso   1.00
C606   C     0.65531   0.12571   0.52602   0.00000  Uiso   1.00
C607   C     0.33754   0.21888   0.91960   0.00000  Uiso   1.00
C608   C     0.33804   0.13414   0.57545   0.00000  Uiso   1.00
C609   C     0.41566   0.16327   0.91294   0.00000  Uiso   1.00
C610   C     0.58797   0.18232   0.58742   0.00000  Uiso   1.00
C611   C     0.44222   0.18626   0.95620   0.00000  Uiso   1.00
C612   C     0.65178   0.06858   0.75106   0.00000  Uiso   1.00
C613   C     0.57098   0.17464   0.53805   0.00000  Uiso   1.00
C614   C     0.41244   0.22265   0.98389   0.00000  Uiso   1.00
C615   C     0.60417   0.14394   0.50754   0.00000  Uiso   1.00
C616   C     0.49767   0.17422   0.97217   0.00000  Uiso   1.00
C617   C     0.51938   0.19303   0.51938   0.00000  Uiso   1.00
C618   C     0.37046   0.00037   0.65665   0.00000  Uiso   1.00
C619   C     0.62908   0.00096   0.84310   0.00000  Uiso   1.00
C620   C     0.48873   0.22933   0.54635   0.00000  Uiso   1.00
C621   C     0.53270   0.14524   0.94192   0.00000  Uiso   1.00
C622   C     0.43630   0.24404   0.52861   0.00000  Uiso   1.00
C623   C     0.58523   0.13074   0.95939   0.00000  Uiso   1.00
C624   C     0.35319   0.31811   0.74065   0.00000  Uiso   1.00
C625   C     0.64666   0.01521   0.75897   0.00000  Uiso   1.00
C626   C     0.35450   0.17121   0.84103   0.00000  Uiso   1.00
H627   H     0.41439   0.27232   0.54999   0.00000  Uiso   1.00
H628   H     0.52148   0.13434   0.90398   0.00000  Uiso   1.00
H629   H     0.49577   0.12468   0.71384   0.00000  Uiso   1.00
H630   H     0.50423   0.20864   0.78617   0.00000  Uiso   1.00
H631   H     0.43199   0.31859   0.70956   0.00000  Uiso   1.00
H632   H     0.40351   0.01670   0.63336   0.00000  Uiso   1.00
H633   H     0.66622   0.02407   0.65380   0.00000  Uiso   1.00
H634   H     0.35767   0.29288   0.64298   0.00000  Uiso   1.00
H635   H     0.56757   0.01411   0.78949   0.00000  Uiso   1.00
H636   H     0.59616   0.31794   0.86649   0.00000  Uiso   1.00
H637   H     0.64097   0.04214   0.85612   0.00000  Uiso   1.00
H638   H     0.61057   0.10812   0.93535   0.00000  Uiso   1.00
H639   H     0.33387   0.31137   0.84658   0.00000  Uiso   1.00
H640   H     0.56209   0.20199   0.61280   0.00000  Uiso   1.00
H641   H     0.43365   0.13196   0.89256   0.00000  Uiso   1.00
H642   H     0.37610   0.11771   0.58986   0.00000  Uiso   1.00
H643   H     0.63246   0.23386   0.90420   0.00000  Uiso   1.00
H644   H     0.33685   0.26621   0.98634   0.00000  Uiso   1.00
H645   H     0.34825   0.10331   0.50266   0.00000  Uiso   1.00
H646   H     0.50520   0.24875   0.58057   0.00000  Uiso   1.00
N647   N     0.48029   0.15216   0.73740   0.00000  Uiso   1.00
N648   N     0.51971   0.18117   0.76261   0.00000  Uiso   1.00
N649   N     0.39344   0.00195   0.70665   0.00000  Uiso   1.00
N650   N     0.60642   0.33137   0.79297   0.00000  Uiso   1.00
O651   O     0.63052   0.24631   0.75310   0.00000  Uiso   1.00
O652   O     0.36948   0.08702   0.74691   0.00000  Uiso   1.00
O653   O     0.39155   0.23702   0.74502   0.00000  Uiso   1.00
O654   O     0.60845   0.09632   0.75499   0.00000  Uiso   1.00
O655   O     0.63662   0.17397   0.82247   0.00000  Uiso   1.00
O656   O     0.36338   0.15937   0.67753   0.00000  Uiso   1.00
O657   O     0.39764   0.16467   0.81439   0.00000  Uiso   1.00
O658   O     0.60236   0.16866   0.68561   0.00000  Uiso   1.00
Zn659  Zn    0.60366   0.17287   0.75540   0.00000  Uiso   1.00
Zn660  Zn    0.39634   0.16046   0.74461   0.00000  Uiso   1.00
C661   C     0.68152   0.26476   0.74881   0.00000  Uiso   1.00
C662   C     0.97904   0.16301   0.65893   0.00000  Uiso   1.00
C663   C     0.69991   0.18218   0.89295   0.00000  Uiso   1.00
C664   C     0.96945   0.16064   0.60632   0.00000  Uiso   1.00
C665   C     0.69300   0.23800   0.96576   0.00000  Uiso   1.00
C666   C     0.98864   0.12571   0.52602   0.00000  Uiso   1.00
C667   C     0.67087   0.21888   0.91960   0.00000  Uiso   1.00
C668   C     0.67137   0.13414   0.57545   0.00000  Uiso   1.00
C669   C     0.74899   0.16327   0.91294   0.00000  Uiso   1.00
C670   C     0.92130   0.18232   0.58742   0.00000  Uiso   1.00
C671   C     0.77555   0.18626   0.95620   0.00000  Uiso   1.00
C672   C     0.98512   0.06858   0.75106   0.00000  Uiso   1.00
C673   C     0.90431   0.17464   0.53805   0.00000  Uiso   1.00
C674   C     0.74577   0.22265   0.98389   0.00000  Uiso   1.00
C675   C     0.93750   0.14394   0.50754   0.00000  Uiso   1.00
C676   C     0.83100   0.17422   0.97217   0.00000  Uiso   1.00
C677   C     0.85272   0.19303   0.51938   0.00000  Uiso   1.00
C678   C     0.70379   0.00037   0.65665   0.00000  Uiso   1.00
C679   C     0.96242   0.00096   0.84310   0.00000  Uiso   1.00
C680   C     0.82206   0.22933   0.54635   0.00000  Uiso   1.00
C681   C     0.86603   0.14524   0.94192   0.00000  Uiso   1.00
C682   C     0.76963   0.24404   0.52861   0.00000  Uiso   1.00
C683   C     0.91856   0.13074   0.95939   0.00000  Uiso   1.00
C684   C     0.68652   0.31811   0.74065   0.00000  Uiso   1.00
C685   C     0.97999   0.01521   0.75897   0.00000  Uiso   1.00
C686   C     0.68784   0.17121   0.84103   0.00000  Uiso   1.00
H687   H     0.74773   0.27232   0.54999   0.00000  Uiso   1.00
H688   H     0.85481   0.13434   0.90398   0.00000  Uiso   1.00
H689   H     0.82910   0.12468   0.71384   0.00000  Uiso   1.00
H690   H     0.83756   0.20864   0.78617   0.00000  Uiso   1.00
H691   H     0.76532   0.31859   0.70956   0.00000  Uiso   1.00
H692   H     0.73684   0.01670   0.63336   0.00000  Uiso   1.00
H693   H     0.99955   0.02407   0.65380   0.00000  Uiso   1.00
H694   H     0.69100   0.29288   0.64298   0.00000  Uiso   1.00
H695   H     0.90090   0.01411   0.78949   0.00000  Uiso   1.00
H696   H     0.92950   0.31794   0.86649   0.00000  Uiso   1.00
H697   H     0.97430   0.04214   0.85612   0.00000  Uiso   1.00
H698   H     0.94390   0.10812   0.93535   0.00000  Uiso   1.00
H699   H     0.66721   0.31137   0.84658   0.00000  Uiso   1.00
H700   H     0.89542   0.20199   0.61280   0.00000  Uiso   1.00
H701   H     0.76698   0.13196   0.89256   0.00000  Uiso   1.00
H702   H     0.70943   0.11771   0.58986   0.00000  Uiso   1.00
H703   H     0.96579   0.23386   0.90420   0.00000  Uiso   1.00
H704   H     0.67018   0.26621   0.98634   0.00000  Uiso   1.00
H705   H     0.68158   0.10331   0.50266   0.00000  Uiso   1.00
H706   H     0.83853   0.24875   0.58057   0.00000  Uiso   1.00
N707   N     0.81362   0.15216   0.73740   0.00000  Uiso   1.00
N708   N     0.85305   0.18117   0.76261   0.00000  Uiso   1.00
N709   N     0.72678   0.00195   0.70665   0.00000  Uiso   1.00
N710   N     0.93976   0.33137   0.79297   0.00000  Uiso   1.00
O711   O     0.96386   0.24631   0.75310   0.00000  Uiso   1.00
O712   O     0.70281   0.08702   0.74691   0.00000  Uiso   1.00
O713   O     0.72488   0.23702   0.74502   0.00000  Uiso   1.00
O714   O     0.94178   0.09632   0.75499   0.00000  Uiso   1.00
O715   O     0.96995   0.17397   0.82247   0.00000  Uiso   1.00
O716   O     0.69672   0.15937   0.67753   0.00000  Uiso   1.00
O717   O     0.73098   0.16467   0.81439   0.00000  Uiso   1.00
O718   O     0.93569   0.16866   0.68561   0.00000  Uiso   1.00
Zn719  Zn    0.93700   0.17287   0.75540   0.00000  Uiso   1.00
Zn720  Zn    0.72967   0.16046   0.74461   0.00000  Uiso   1.00
C721   C     0.01485   0.59809   0.74881   0.00000  Uiso   1.00
C722   C     0.31237   0.49635   0.65893   0.00000  Uiso   1.00
C723   C     0.03324   0.51552   0.89295   0.00000  Uiso   1.00
C724   C     0.30278   0.49398   0.60632   0.00000  Uiso   1.00
C725   C     0.02633   0.57133   0.96576   0.00000  Uiso   1.00
C726   C     0.32197   0.45904   0.52602   0.00000  Uiso   1.00
C727   C     0.00420   0.55222   0.91960   0.00000  Uiso   1.00
C728   C     0.00470   0.46747   0.57545   0.00000  Uiso   1.00
C729   C     0.08232   0.49660   0.91294   0.00000  Uiso   1.00
C730   C     0.25463   0.51565   0.58742   0.00000  Uiso   1.00
C731   C     0.10888   0.51959   0.95620   0.00000  Uiso   1.00
C732   C     0.31845   0.40192   0.75106   0.00000  Uiso   1.00
C733   C     0.23765   0.50797   0.53805   0.00000  Uiso   1.00
C734   C     0.07911   0.55598   0.98389   0.00000  Uiso   1.00
C735   C     0.27084   0.47727   0.50754   0.00000  Uiso   1.00
C736   C     0.16434   0.50755   0.97217   0.00000  Uiso   1.00
C737   C     0.18605   0.52636   0.51938   0.00000  Uiso   1.00
C738   C     0.03713   0.33370   0.65665   0.00000  Uiso   1.00
C739   C     0.29575   0.33430   0.84310   0.00000  Uiso   1.00
C740   C     0.15540   0.56267   0.54635   0.00000  Uiso   1.00
C741   C     0.19936   0.47857   0.94192   0.00000  Uiso   1.00
C742   C     0.10297   0.57737   0.52861   0.00000  Uiso   1.00
C743   C     0.25190   0.46408   0.95939   0.00000  Uiso   1.00
C744   C     0.01986   0.65144   0.74065   0.00000  Uiso   1.00
C745   C     0.31332   0.34854   0.75897   0.00000  Uiso   1.00
C746   C     0.02117   0.50454   0.84103   0.00000  Uiso   1.00
H747   H     0.08106   0.60565   0.54999   0.00000  Uiso   1.00
H748   H     0.18814   0.46768   0.90398   0.00000  Uiso   1.00
H749   H     0.16244   0.45802   0.71384   0.00000  Uiso   1.00
H750   H     0.17090   0.54197   0.78617   0.00000  Uiso   1.00
H751   H     0.09865   0.65192   0.70956   0.00000  Uiso   1.00
H752   H     0.07018   0.35004   0.63336   0.00000  Uiso   1.00
H753   H     0.33289   0.35740   0.65380   0.00000  Uiso   1.00
H754   H     0.02434   0.62621   0.64298   0.00000  Uiso   1.00
H755   H     0.23423   0.34745   0.78949   0.00000  Uiso   1.00
H756   H     0.26283   0.65127   0.86649   0.00000  Uiso   1.00
H757   H     0.30764   0.37547   0.85612   0.00000  Uiso   1.00
H758   H     0.27723   0.44145   0.93535   0.00000  Uiso   1.00
H759   H     0.00054   0.64470   0.84658   0.00000  Uiso   1.00
H760   H     0.22875   0.53532   0.61280   0.00000  Uiso   1.00
H761   H     0.10032   0.46529   0.89256   0.00000  Uiso   1.00
H762   H     0.04276   0.45104   0.58986   0.00000  Uiso   1.00
H763   H     0.29912   0.56719   0.90420   0.00000  Uiso   1.00
H764   H     0.00351   0.59955   0.98634   0.00000  Uiso   1.00
H765   H     0.01492   0.43664   0.50266   0.00000  Uiso   1.00
H766   H     0.17186   0.58208   0.58057   0.00000  Uiso   1.00
N767   N     0.14695   0.48550   0.73740   0.00000  Uiso   1.00
N768   N     0.18638   0.51450   0.76261   0.00000  Uiso   1.00
N769   N     0.06011   0.33529   0.70665   0.00000  Uiso   1.00
N770   N     0.27309   0.66470   0.79297   0.00000  Uiso   1.00
O771   O     0.29719   0.57964   0.75310   0.00000  Uiso   1.00
O772   O     0.03614   0.42036   0.74691   0.00000  Uiso   1.00
O773   O     0.05822   0.57035   0.74502   0.00000  Uiso   1.00
O774   O     0.27512   0.42965   0.75499   0.00000  Uiso   1.00
O775   O     0.30328   0.50730   0.82247   0.00000  Uiso   1.00
O776   O     0.03005   0.49270   0.67753   0.00000  Uiso   1.00
O777   O     0.06431   0.49801   0.81439   0.00000  Uiso   1.00
O778   O     0.26902   0.50199   0.68561   0.00000  Uiso   1.00
Zn779  Zn    0.27033   0.50621   0.75540   0.00000  Uiso   1.00
Zn780  Zn    0.06300   0.49379   0.74461   0.00000  Uiso   1.00
C781   C     0.34819   0.59809   0.74881   0.00000  Uiso   1.00
C782   C     0.64570   0.49635   0.65893   0.00000  Uiso   1.00
C783   C     0.36658   0.51552   0.89295   0.00000  Uiso   1.00
C784   C     0.63611   0.49398   0.60632   0.00000  Uiso   1.00
C785   C     0.35967   0.57133   0.96576   0.00000  Uiso   1.00
C786   C     0.65531   0.45904   0.52602   0.00000  Uiso   1.00
C787   C     0.33754   0.55222   0.91960   0.00000  Uiso   1.00
C788   C     0.33804   0.46747   0.57545   0.00000  Uiso   1.00
C789   C     0.41566   0.49660   0.91294   0.00000  Uiso   1.00
C790   C     0.58797   0.51565   0.58742   0.00000  Uiso   1.00
C791   C     0.44222   0.51959   0.95620   0.00000  Uiso   1.00
C792   C     0.65178   0.40192   0.75106   0.00000  Uiso   1.00
C793   C     0.57098   0.50797   0.53805   0.00000  Uiso   1.00
C794   C     0.41244   0.55598   0.98389   0.00000  Uiso   1.00
C795   C     0.60417   0.47727   0.50754   0.00000  Uiso   1.00
C796   C     0.49767   0.50755   0.97217   0.00000  Uiso   1.00
C797   C     0.51938   0.52636   0.51938   0.00000  Uiso   1.00
C798   C     0.37046   0.33370   0.65665   0.00000  Uiso   1.00
C799   C     0.62908   0.33430   0.84310   0.00000  Uiso   1.00
C800   C     0.48873   0.56267   0.54635   0.00000  Uiso   1.00
C801   C     0.53270   0.47857   0.94192   0.00000  Uiso   1.00
C802   C     0.43630   0.57737   0.52861   0.00000  Uiso   1.00
C803   C     0.58523   0.46408   0.95939   0.00000  Uiso   1.00
C804   C     0.35319   0.65144   0.74065   0.00000  Uiso   1.00
C805   C     0.64666   0.34854   0.75897   0.00000  Uiso   1.00
C806   C     0.35450   0.50454   0.84103   0.00000  Uiso   1.00
H807   H     0.41439   0.60565   0.54999   0.00000  Uiso   1.00
H808   H     0.52148   0.46768   0.90398   0.00000  Uiso   1.00
H809   H     0.49577   0.45802   0.71384   0.00000  Uiso   1.00
H810   H     0.50423   0.54197   0.78617   0.00000  Uiso   1.00
H811   H     0.43199   0.65192   0.70956   0.00000  Uiso   1.00
H812   H     0.40351   0.35004   0.63336   0.00000  Uiso   1.00
H813   H     0.66622   0.35740   0.65380   0.00000  Uiso   1.00
H814   H     0.35767   0.62621   0.64298   0.00000  Uiso   1.00
H815   H     0.56757   0.34745   0.78949   0.00000  Uiso   1.00
H816   H     0.59616   0.65127   0.86649   0.00000  Uiso   1.00
H817   H     0.64097   0.37547   0.85612   0.00000  Uiso   1.00
H818   H     0.61057   0.44145   0.93535   0.00000  Uiso   1.00
H819   H     0.33387   0.64470   0.84658   0.00000  Uiso   1.00
H820   H     0.56209   0.53532   0.61280   0.00000  Uiso   1.00
H821   H     0.43365   0.46529   0.89256   0.00000  Uiso   1.00
H822   H     0.37610   0.45104   0.58986   0.00000  Uiso   1.00
H823   H     0.63246   0.56719   0.90420   0.00000  Uiso   1.00
H824   H     0.33685   0.59955   0.98634   0.00000  Uiso   1.00
H825   H     0.34825   0.43664   0.50266   0.00000  Uiso   1.00
H826   H     0.50520   0.58208   0.58057   0.00000  Uiso   1.00
N827   N     0.48029   0.48550   0.73740   0.00000  Uiso   1.00
N828   N     0.51971   0.51450   0.76261   0.00000  Uiso   1.00
N829   N     0.39344   0.33529   0.70665   0.00000  Uiso   1.00
N830   N     0.60642   0.66470   0.79297   0.00000  Uiso   1.00
O831   O     0.63052   0.57964   0.75310   0.00000  Uiso   1.00
O832   O     0.36948   0.42036   0.74691   0.00000  Uiso   1.00
O833   O     0.39155   0.57035   0.74502   0.00000  Uiso   1.00
O834   O     0.60845   0.42965   0.75499   0.00000  Uiso   1.00
O835   O     0.63662   0.50730   0.82247   0.00000  Uiso   1.00
O836   O     0.36338   0.49270   0.67753   0.00000  Uiso   1.00
O837   O     0.39764   0.49801   0.81439   0.00000  Uiso   1.00
O838   O     0.60236   0.50199   0.68561   0.00000  Uiso   1.00
Zn839  Zn    0.60366   0.50621   0.75540   0.00000  Uiso   1.00
Zn840  Zn    0.39634   0.49379   0.74461   0.00000  Uiso   1.00
C841   C     0.68152   0.59809   0.74881   0.00000  Uiso   1.00
C842   C     0.97904   0.49635   0.65893   0.00000  Uiso   1.00
C843   C     0.69991   0.51552   0.89295   0.00000  Uiso   1.00
C844   C     0.96945   0.49398   0.60632   0.00000  Uiso   1.00
C845   C     0.69300   0.57133   0.96576   0.00000  Uiso   1.00
C846   C     0.98864   0.45904   0.52602   0.00000  Uiso   1.00
C847   C     0.67087   0.55222   0.91960   0.00000  Uiso   1.00
C848   C     0.67137   0.46747   0.57545   0.00000  Uiso   1.00
C849   C     0.74899   0.49660   0.91294   0.00000  Uiso   1.00
C850   C     0.92130   0.51565   0.58742   0.00000  Uiso   1.00
C851   C     0.77555   0.51959   0.95620   0.00000  Uiso   1.00
C852   C     0.98512   0.40192   0.75106   0.00000  Uiso   1.00
C853   C     0.90431   0.50797   0.53805   0.00000  Uiso   1.00
C854   C     0.74577   0.55598   0.98389   0.00000  Uiso   1.00
C855   C     0.93750   0.47727   0.50754   0.00000  Uiso   1.00
C856   C     0.83100   0.50755   0.97217   0.00000  Uiso   1.00
C857   C     0.85272   0.52636   0.51938   0.00000  Uiso   1.00
C858   C     0.70379   0.33370   0.65665   0.00000  Uiso   1.00
C859   C     0.96242   0.33430   0.84310   0.00000  Uiso   1.00
C860   C     0.82206   0.56267   0.54635   0.00000  Uiso   1.00
C861   C     0.86603   0.47857   0.94192   0.00000  Uiso   1.00
C862   C     0.76963   0.57737   0.52861   0.00000  Uiso   1.00
C863   C     0.91856   0.46408   0.95939   0.00000  Uiso   1.00
C864   C     0.68652   0.65144   0.74065   0.00000  Uiso   1.00
C865   C     0.97999   0.34854   0.75897   0.00000  Uiso   1.00
C866   C     0.68784   0.50454   0.84103   0.00000  Uiso   1.00
H867   H     0.74773   0.60565   0.54999   0.00000  Uiso   1.00
H868   H     0.85481   0.46768   0.90398   0.00000  Uiso   1.00
H869   H     0.82910   0.45802   0.71384   0.00000  Uiso   1.00
H870   H     0.83756   0.54197   0.78617   0.00000  Uiso   1.00
H871   H     0.76532   0.65192   0.70956   0.00000  Uiso   1.00
H872   H     0.73684   0.35004   0.63336   0.00000  Uiso   1.00
H873   H     0.99955   0.35740   0.65380   0.00000  Uiso   1.00
H874   H     0.69100   0.62621   0.64298   0.00000  Uiso   1.00
H875   H     0.90090   0.34745   0.78949   0.00000  Uiso   1.00
H876   H     0.92950   0.65127   0.86649   0.00000  Uiso   1.00
H877   H     0.97430   0.37547   0.85612   0.00000  Uiso   1.00
H878   H     0.94390   0.44145   0.93535   0.00000  Uiso   1.00
H879   H     0.66721   0.64470   0.84658   0.00000  Uiso   1.00
H880   H     0.89542   0.53532   0.61280   0.00000  Uiso   1.00
H881   H     0.76698   0.46529   0.89256   0.00000  Uiso   1.00
H882   H     0.70943   0.45104   0.58986   0.00000  Uiso   1.00
H883   H     0.96579   0.56719   0.90420   0.00000  Uiso   1.00
H884   H     0.67018   0.59955   0.98634   0.00000  Uiso   1.00
H885   H     0.68158   0.43664   0.50266   0.00000  Uiso   1.00
H886   H     0.83853   0.58208   0.58057   0.00000  Uiso   1.00
N887   N     0.81362   0.48550   0.73740   0.00000  Uiso   1.00
N888   N     0.85305   0.51450   0.76261   0.00000  Uiso   1.00
N889   N     0.72678   0.33529   0.70665   0.00000  Uiso   1.00
N890   N     0.93976   0.66470   0.79297   0.00000  Uiso   1.00
O891   O     0.96386   0.57964   0.75310   0.00000  Uiso   1.00
O892   O     0.70281   0.42036   0.74691   0.00000  Uiso   1.00
O893   O     0.72488   0.57035   0.74502   0.00000  Uiso   1.00
O894   O     0.94178   0.42965   0.75499   0.00000  Uiso   1.00
O895   O     0.96995   0.50730   0.82247   0.00000  Uiso   1.00
O896   O     0.69672   0.49270   0.67753   0.00000  Uiso   1.00
O897   O     0.73098   0.49801   0.81439   0.00000  Uiso   1.00
O898   O     0.93569   0.50199   0.68561   0.00000  Uiso   1.00
Zn899  Zn    0.93700   0.50621   0.75540   0.00000  Uiso   1.00
Zn900  Zn    0.72967   0.49379   0.74461   0.00000  Uiso   1.00
C901   C     0.01485   0.93142   0.74881   0.00000  Uiso   1.00
C902   C     0.31237   0.82968   0.65893   0.00000  Uiso   1.00
C903   C     0.03324   0.84885   0.89295   0.00000  Uiso   1.00
C904   C     0.30278   0.82731   0.60632   0.00000  Uiso   1.00
C905   C     0.02633   0.90467   0.96576   0.00000  Uiso   1.00
C906   C     0.32197   0.79237   0.52602   0.00000  Uiso   1.00
C907   C     0.00420   0.88555   0.91960   0.00000  Uiso   1.00
C908   C     0.00470   0.80080   0.57545   0.00000  Uiso   1.00
C909   C     0.08232   0.82993   0.91294   0.00000  Uiso   1.00
C910   C     0.25463   0.84898   0.58742   0.00000  Uiso   1.00
C911   C     0.10888   0.85293   0.95620   0.00000  Uiso   1.00
C912   C     0.31845   0.73525   0.75106   0.00000  Uiso   1.00
C913   C     0.23765   0.84131   0.53805   0.00000  Uiso   1.00
C914   C     0.07911   0.88932   0.98389   0.00000  Uiso   1.00
C915   C     0.27084   0.81061   0.50754   0.00000  Uiso   1.00
C916   C     0.16434   0.84089   0.97217   0.00000  Uiso   1.00
C917   C     0.18605   0.85969   0.51938   0.00000  Uiso   1.00
C918   C     0.03713   0.66704   0.65665   0.00000  Uiso   1.00
C919   C     0.29575   0.66763   0.84310   0.00000  Uiso   1.00
C920   C     0.15540   0.89600   0.54635   0.00000  Uiso   1.00
C921   C     0.19936   0.81190   0.94192   0.00000  Uiso   1.00
C922   C     0.10297   0.91071   0.52861   0.00000  Uiso   1.00
C923   C     0.25190   0.79741   0.95939   0.00000  Uiso   1.00
C924   C     0.01986   0.98477   0.74065   0.00000  Uiso   1.00
C925   C     0.31332   0.68187   0.75897   0.00000  Uiso   1.00
C926   C     0.02117   0.83788   0.84103   0.00000  Uiso   1.00
H927   H     0.08106   0.93898   0.54999   0.00000  Uiso   1.00
H928   H     0.18814   0.80101   0.90398   0.00000  Uiso   1.00
H929   H     0.16244   0.79135   0.71384   0.00000  Uiso   1.00
H930   H     0.17090   0.87530   0.78617   0.00000  Uiso   1.00
H931   H     0.09865   0.98525   0.70956   0.00000  Uiso   1.00
H932   H     0.07018   0.68337   0.63336   0.00000  Uiso   1.00
H933   H     0.33289   0.69074   0.65380   0.00000  Uiso   1.00
H934   H     0.02434   0.95955   0.64298   0.00000  Uiso   1.00
H935   H     0.23423   0.68078   0.78949   0.00000  Uiso   1.00
H936   H     0.26283   0.98461   0.86649   0.00000  Uiso   1.00
H937   H     0.30764   0.70880   0.85612   0.00000  Uiso   1.00
H938   H     0.27723   0.77478   0.93535   0.00000  Uiso   1.00
H939   H     0.00054   0.97804   0.84658   0.00000  Uiso   1.00
H940   H     0.22875   0.86865   0.61280   0.00000  Uiso   1.00
H941   H     0.10032   0.79862   0.89256   0.00000  Uiso   1.00
H942   H     0.04276   0.78437   0.58986   0.00000  Uiso   1.00
H943   H     0.29912   0.90053   0.90420   0.00000  Uiso   1.00
H944   H     0.00351   0.93288   0.98634   0.00000  Uiso   1.00
H945   H     0.01492   0.76998   0.50266   0.00000  Uiso   1.00
H946   H     0.17186   0.91541   0.58057   0.00000  Uiso   1.00
N947   N     0.14695   0.81883   0.73740   0.00000  Uiso   1.00
N948   N     0.18638   0.84784   0.76261   0.00000  Uiso   1.00
N949   N     0.06011   0.66862   0.70665   0.00000  Uiso   1.00
N950   N     0.27309   0.99804   0.79297   0.00000  Uiso   1.00
O951   O     0.29719   0.91298   0.75310   0.00000  Uiso   1.00
O952   O     0.03614   0.75369   0.74691   0.00000  Uiso   1.00
O953   O     0.05822   0.90368   0.74502   0.00000  Uiso   1.00
O954   O     0.27512   0.76298   0.75499   0.00000  Uiso   1.00
O955   O     0.30328   0.84063   0.82247   0.00000  Uiso   1.00
O956   O     0.03005   0.82603   0.67753   0.00000  Uiso   1.00
O957   O     0.06431   0.83134   0.81439   0.00000  Uiso   1.00
O958   O     0.26902   0.83533   0.68561   0.00000  Uiso   1.00
Zn959  Zn    0.27033   0.83954   0.75540   0.00000  Uiso   1.00
Zn960  Zn    0.06300   0.82713   0.74461   0.00000  Uiso   1.00
C961   C     0.34819   0.93142   0.74881   0.00000  Uiso   1.00
C962   C     0.64570   0.82968   0.65893   0.00000  Uiso   1.00
C963   C     0.36658   0.84885   0.89295   0.00000  Uiso   1.00
C964   C     0.63611   0.82731   0.60632   0.00000  Uiso   1.00
C965   C     0.35967   0.90467   0.96576   0.00000  Uiso   1.00
C966   C     0.65531   0.79237   0.52602   0.00000  Uiso   1.00
C967   C     0.33754   0.88555   0.91960   0.00000  Uiso   1.00
C968   C     0.33804   0.80080   0.57545   0.00000  Uiso   1.00
C969   C     0.41566   0.82993   0.91294   0.00000  Uiso   1.00
C970   C     0.58797   0.84898   0.58742   0.00000  Uiso   1.00
C971   C     0.44222   0.85293   0.95620   0.00000  Uiso   1.00
C972   C     0.65178   0.73525   0.75106   0.00000  Uiso   1.00
C973   C     0.57098   0.84131   0.53805   0.00000  Uiso   1.00
C974   C     0.41244   0.88932   0.98389   0.00000  Uiso   1.00
C975   C     0.60417   0.81061   0.50754   0.00000  Uiso   1.00
C976   C     0.49767   0.84089   0.97217   0.00000  Uiso   1.00
C977   C     0.51938   0.85969   0.51938   0.00000  Uiso   1.00
C978   C     0.37046   0.66704   0.65665   0.00000  Uiso   1.00
C979   C     0.62908   0.66763   0.84310   0.00000  Uiso   1.00
C980   C     0.48873   0.89600   0.54635   0.00000  Uiso   1.00
C981   C     0.53270   0.81190   0.94192   0.00000  Uiso   1.00
C982   C     0.43630   0.91071   0.52861   0.00000  Uiso   1.00
C983   C     0.58523   0.79741   0.95939   0.00000  Uiso   1.00
C984   C     0.35319   0.98477   0.74065   0.00000  Uiso   1.00
C985   C     0.64666   0.68187   0.75897   0.00000  Uiso   1.00
C986   C     0.35450   0.83788   0.84103   0.00000  Uiso   1.00
H987   H     0.41439   0.93898   0.54999   0.00000  Uiso   1.00
H988   H     0.52148   0.80101   0.90398   0.00000  Uiso   1.00
H989   H     0.49577   0.79135   0.71384   0.00000  Uiso   1.00
H990   H     0.50423   0.87530   0.78617   0.00000  Uiso   1.00
H991   H     0.43199   0.98525   0.70956   0.00000  Uiso   1.00
H992   H     0.40351   0.68337   0.63336   0.00000  Uiso   1.00
H993   H     0.66622   0.69074   0.65380   0.00000  Uiso   1.00
H994   H     0.35767   0.95955   0.64298   0.00000  Uiso   1.00
H995   H     0.56757   0.68078   0.78949   0.00000  Uiso   1.00
H996   H     0.59616   0.98461   0.86649   0.00000  Uiso   1.00
H997   H     0.64097   0.70880   0.85612   0.00000  Uiso   1.00
H998   H     0.61057   0.77478   0.93535   0.00000  Uiso   1.00
H999   H     0.33387   0.97804   0.84658   0.00000  Uiso   1.00
H1000  H     0.56209   0.86865   0.61280   0.00000  Uiso   1.00
H1001  H     0.43365   0.79862   0.89256   0.00000  Uiso   1.00
H1002  H     0.37610   0.78437   0.58986   0.00000  Uiso   1.00
H1003  H     0.63246   0.90053   0.90420   0.00000  Uiso   1.00
H1004  H     0.33685   0.93288   0.98634   0.00000  Uiso   1.00
H1005  H     0.34825   0.76998   0.50266   0.00000  Uiso   1.00
H1006  H     0.50520   0.91541   0.58057   0.00000  Uiso   1.00
N1007  N     0.48029   0.81883   0.73740   0.00000  Uiso   1.00
N1008  N     0.51971   0.84784   0.76261   0.00000  Uiso   1.00
N1009  N     0.39344   0.66862   0.70665   0.00000  Uiso   1.00
N1010  N     0.60642   0.99804   0.79297   0.00000  Uiso   1.00
O1011  O     0.63052   0.91298   0.75310   0.00000  Uiso   1.00
O1012  O     0.36948   0.75369   0.74691   0.00000  Uiso   1.00
O1013  O     0.39155   0.90368   0.74502   0.00000  Uiso   1.00
O1014  O     0.60845   0.76298   0.75499   0.00000  Uiso   1.00
O1015  O     0.63662   0.84063   0.82247   0.00000  Uiso   1.00
O1016  O     0.36338   0.82603   0.67753   0.00000  Uiso   1.00
O1017  O     0.39764   0.83134   0.81439   0.00000  Uiso   1.00
O1018  O     0.60236   0.83533   0.68561   0.00000  Uiso   1.00
Zn1019 Zn    0.60366   0.83954   0.75540   0.00000  Uiso   1.00
Zn1020 Zn    0.39634   0.82713   0.74461   0.00000  Uiso   1.00
C1021  C     0.68152   0.93142   0.74881   0.00000  Uiso   1.00
C1022  C     0.97904   0.82968   0.65893   0.00000  Uiso   1.00
C1023  C     0.69991   0.84885   0.89295   0.00000  Uiso   1.00
C1024  C     0.96945   0.82731   0.60632   0.00000  Uiso   1.00
C1025  C     0.69300   0.90467   0.96576   0.00000  Uiso   1.00
C1026  C     0.98864   0.79237   0.52602   0.00000  Uiso   1.00
C1027  C     0.67087   0.88555   0.91960   0.00000  Uiso   1.00
C1028  C     0.67137   0.80080   0.57545   0.00000  Uiso   1.00
C1029  C     0.74899   0.82993   0.91294   0.00000  Uiso   1.00
C1030  C     0.92130   0.84898   0.58742   0.00000  Uiso   1.00
C1031  C     0.77555   0.85293   0.95620   0.00000  Uiso   1.00
C1032  C     0.98512   0.73525   0.75106   0.00000  Uiso   1.00
C1033  C     0.90431   0.84131   0.53805   0.00000  Uiso   1.00
C1034  C     0.74577   0.88932   0.98389   0.00000  Uiso   1.00
C1035  C     0.93750   0.81061   0.50754   0.00000  Uiso   1.00
C1036  C     0.83100   0.84089   0.97217   0.00000  Uiso   1.00
C1037  C     0.85272   0.85969   0.51938   0.00000  Uiso   1.00
C1038  C     0.70379   0.66704   0.65665   0.00000  Uiso   1.00
C1039  C     0.96242   0.66763   0.84310   0.00000  Uiso   1.00
C1040  C     0.82206   0.89600   0.54635   0.00000  Uiso   1.00
C1041  C     0.86603   0.81190   0.94192   0.00000  Uiso   1.00
C1042  C     0.76963   0.91071   0.52861   0.00000  Uiso   1.00
C1043  C     0.91856   0.79741   0.95939   0.00000  Uiso   1.00
C1044  C     0.68652   0.98477   0.74065   0.00000  Uiso   1.00
C1045  C     0.97999   0.68187   0.75897   0.00000  Uiso   1.00
C1046  C     0.68784   0.83788   0.84103   0.00000  Uiso   1.00
H1047  H     0.74773   0.93898   0.54999   0.00000  Uiso   1.00
H1048  H     0.85481   0.80101   0.90398   0.00000  Uiso   1.00
H1049  H     0.82910   0.79135   0.71384   0.00000  Uiso   1.00
H1050  H     0.83756   0.87530   0.78617   0.00000  Uiso   1.00
H1051  H     0.76532   0.98525   0.70956   0.00000  Uiso   1.00
H1052  H     0.73684   0.68337   0.63336   0.00000  Uiso   1.00
H1053  H     0.99955   0.69074   0.65380   0.00000  Uiso   1.00
H1054  H     0.69100   0.95955   0.64298   0.00000  Uiso   1.00
H1055  H     0.90090   0.68078   0.78949   0.00000  Uiso   1.00
H1056  H     0.92950   0.98461   0.86649   0.00000  Uiso   1.00
H1057  H     0.97430   0.70880   0.85612   0.00000  Uiso   1.00
H1058  H     0.94390   0.77478   0.93535   0.00000  Uiso   1.00
H1059  H     0.66721   0.97804   0.84658   0.00000  Uiso   1.00
H1060  H     0.89542   0.86865   0.61280   0.00000  Uiso   1.00
H1061  H     0.76698   0.79862   0.89256   0.00000  Uiso   1.00
H1062  H     0.70943   0.78437   0.58986   0.00000  Uiso   1.00
H1063  H     0.96579   0.90053   0.90420   0.00000  Uiso   1.00
H1064  H     0.67018   0.93288   0.98634   0.00000  Uiso   1.00
H1065  H     0.68158   0.76998   0.50266   0.00000  Uiso   1.00
H1066  H     0.83853   0.91541   0.58057   0.00000  Uiso   1.00
N1067  N     0.81362   0.81883   0.73740   0.00000  Uiso   1.00
N1068  N     0.85305   0.84784   0.76261   0.00000  Uiso   1.00
N1069  N     0.72678   0.66862   0.70665   0.00000  Uiso   1.00
N1070  N     0.93976   0.99804   0.79297   0.00000  Uiso   1.00
O1071  O     0.96386   0.91298   0.75310   0.00000  Uiso   1.00
O1072  O     0.70281   0.75369   0.74691   0.00000  Uiso   1.00
O1073  O     0.72488   0.90368   0.74502   0.00000  Uiso   1.00
O1074  O     0.94178   0.76298   0.75499   0.00000  Uiso   1.00
O1075  O     0.96995   0.84063   0.82247   0.00000  Uiso   1.00
O1076  O     0.69672   0.82603   0.67753   0.00000  Uiso   1.00
O1077  O     0.73098   0.83134   0.81439   0.00000  Uiso   1.00
O1078  O     0.93569   0.83533   0.68561   0.00000  Uiso   1.00
Zn1079 Zn    0.93700   0.83954   0.75540   0.00000  Uiso   1.00
Zn1080 Zn    0.72967   0.82713   0.74461   0.00000  Uiso   1.00
loop_
_geom_bond_atom_site_label_1
_geom_bond_atom_site_label_2
_geom_bond_distance
_geom_bond_site_symmetry_2
_ccdc_geom_bond_type
C1     C24     1.407   .     S
C1     O53     1.291   .     A
C1     O171    1.272   1_455 S
C2     C4      1.450   .     S
C2     O58     1.298   .     A
C2     O116    1.290   .     S
C3     C9      1.384   .     A
C3     C7      1.399   .     A
C3     C26     1.448   .     S
C4     C10     1.388   .     A
C4     C68     1.399   .     S
C5     C14     1.404   .     A
C5     C7      1.393   .     A
C5     H44     1.084   .     S
C6     C15     1.403   .     A
C6     C68     1.391   .     S
C6     H105    1.084   .     S
C7     H163    1.083   1_455 S
C8     H42     1.083   .     S
C8     C124    1.399   1_455 S
C8     C126    1.391   1_455 S
C9     C11     1.392   .     A
C9     H41     1.079   .     S
C10    H40     1.077   .     S
C10    C13     1.393   .     A
C11    C16     1.414   .     A
C11    C14     1.419   .     A
C12    C25     1.407   .     S
C12    O54     1.291   .     A
C12    O112    1.272   .     S
C13    C17     1.416   .     A
C13    C15     1.419   .     A
C14    C562    1.389   .     S
C15    C563    1.389   1_554 S
C16    C21     1.418   .     A
C16    C557    1.414   .     S
C17    C20     1.419   .     A
C17    C556    1.414   1_554 S
C18    H32     1.111   .     S
C18    N49     1.448   .     S
C18    H153    1.111   1_455 S
C18    H394    1.112   1_545 S
C19    H37     1.112   .     S
C19    H396    1.110   1_545 S
C19    H459    1.111   1_545 S
C19    N410    1.447   1_545 S
C20    H46     1.078   .     S
C20    C22     1.387   .     A
C21    C23     1.385   .     A
C21    H28     1.078   .     S
C22    H27     1.084   .     S
C22    C554    1.389   1_554 S
C23    H38     1.084   .     S
C23    C555    1.389   .     S
C24    C325    1.361   1_455 S
C24    N229    1.434   .     S
C25    C444    1.361   1_545 S
C25    N410    1.433   1_545 S
C26    O57     1.297   .     A
C26    O175    1.290   1_455 S
H29    N47     1.029   .     S
H30    N48     1.029   .     S
H31    N229    1.032   .     S
H33    C78     1.111   .     S
H34    C198    1.112   .     S
H35    N410    1.032   1_545 S
H36    C199    1.110   .     S
H39    C319    1.111   1_455 S
H43    C67     1.083   .     S
H45    C126    1.084   1_455 S
N47    N48     1.292   .     D
N47    Zn60    2.018   .     S
N48    Zn59    2.018   .     S
N49    C384    1.434   1_545 S
N49    H391    1.032   1_545 S
N50    C205    1.433   .     S
N50    H215    1.032   .     S
N50    C199    1.447   .     S
O51    Zn59    1.962   .     S
O51    C61     1.272   .     S
O52    Zn60    1.962   .     S
O52    C132    1.272   1_455 S
O53    Zn60    1.987   .     S
O54    Zn59    1.987   .     S
O55    Zn59    1.960   .     S
O55    C86     1.290   .     S
O56    Zn60    1.960   .     S
O56    C122    1.290   1_455 S
O57    Zn60    1.915   .     S
O58    Zn59    1.915   .     S
C61    C84     1.407   .     S
C61    O113    1.291   .     A
C62    C64     1.450   .     S
C62    O118    1.298   .     A
C62    O176    1.290   .     S
C63    C69     1.384   .     A
C63    C67     1.399   .     A
C63    C86     1.448   .     S
C64    C70     1.388   .     A
C64    C128    1.399   .     S
C65    C74     1.404   .     A
C65    C67     1.393   .     A
C65    H104    1.084   .     S
C66    C75     1.403   .     A
C66    C128    1.391   .     S
C66    H165    1.084   .     S
C68    H102    1.083   .     S
C69    C71     1.392   .     A
C69    H101    1.079   .     S
C70    H100    1.077   .     S
C70    C73     1.393   .     A
C71    C76     1.414   .     A
C71    C74     1.419   .     A
C72    C85     1.407   .     S
C72    O114    1.291   .     A
C72    O172    1.272   .     S
C73    C77     1.416   .     A
C73    C75     1.419   .     A
C74    C622    1.389   .     S
C75    C623    1.389   1_554 S
C76    C81     1.418   .     A
C76    C617    1.414   .     S
C77    C80     1.419   .     A
C77    C616    1.414   1_554 S
C78    H92     1.111   .     S
C78    N109    1.448   .     S
C78    H454    1.112   1_545 S
C79    H97     1.112   .     S
C79    H456    1.110   1_545 S
C79    H519    1.111   1_545 S
C79    N470    1.447   1_545 S
C80    H106    1.078   .     S
C80    C82     1.387   .     A
C81    C83     1.385   .     A
C81    H88     1.078   .     S
C82    H87     1.084   .     S
C82    C614    1.389   1_554 S
C83    H98     1.084   .     S
C83    C615    1.389   .     S
C84    C205    1.361   .     S
C84    N289    1.434   .     S
C85    C504    1.361   1_545 S
C85    N470    1.433   1_545 S
C86    O117    1.297   .     A
H89    N107    1.029   .     S
H90    N108    1.029   .     S
H91    N289    1.032   .     S
H93    C138    1.111   .     S
H94    C258    1.112   .     S
H95    N470    1.032   1_545 S
H96    C259    1.110   .     S
H99    C199    1.111   .     S
H103   C127    1.083   .     S
N107   N108    1.292   .     D
N107   Zn120   2.018   .     S
N108   Zn119   2.018   .     S
N109   C444    1.434   1_545 S
N109   H451    1.032   1_545 S
N110   C265    1.433   .     S
N110   H275    1.032   .     S
N110   C259    1.447   .     S
O111   Zn119   1.962   .     S
O111   C121    1.272   .     S
O112   Zn120   1.962   .     S
O113   Zn120   1.987   .     S
O114   Zn119   1.987   .     S
O115   Zn119   1.960   .     S
O115   C146    1.290   .     S
O116   Zn120   1.960   .     S
O117   Zn120   1.915   .     S
O118   Zn119   1.915   .     S
C121   C144    1.407   .     S
C121   O173    1.291   .     A
C122   C124    1.450   .     S
C122   O178    1.298   .     A
C122   O56     1.290   1_655 S
C123   C129    1.384   .     A
C123   C127    1.399   .     A
C123   C146    1.448   .     S
C124   C130    1.388   .     A
C124   C8      1.399   1_655 S
C125   C134    1.404   .     A
C125   C127    1.393   .     A
C125   H164    1.084   .     S
C126   C135    1.403   .     A
C126   C8      1.391   1_655 S
C126   H45     1.084   1_655 S
C128   H162    1.083   .     S
C129   C131    1.392   .     A
C129   H161    1.079   .     S
C130   H160    1.077   .     S
C130   C133    1.393   .     A
C131   C136    1.414   .     A
C131   C134    1.419   .     A
C132   C145    1.407   .     S
C132   O174    1.291   .     A
C132   O52     1.272   1_655 S
C133   C137    1.416   .     A
C133   C135    1.419   .     A
C134   C682    1.389   .     S
C135   C683    1.389   1_554 S
C136   C141    1.418   .     A
C136   C677    1.414   .     S
C137   C140    1.419   .     A
C137   C676    1.414   1_554 S
C138   H152    1.111   .     S
C138   N169    1.448   .     S
C138   H514    1.112   1_545 S
C139   H157    1.112   .     S
C139   H516    1.110   1_545 S
C139   H399    1.111   1_645 S
C139   N530    1.447   1_545 S
C140   H166    1.078   .     S
C140   C142    1.387   .     A
C141   C143    1.385   .     A
C141   H148    1.078   .     S
C142   H147    1.084   .     S
C142   C674    1.389   1_554 S
C143   H158    1.084   .     S
C143   C675    1.389   .     S
C144   C265    1.361   .     S
C144   N349    1.434   .     S
C145   C384    1.361   1_645 S
C145   N530    1.433   1_545 S
C146   O177    1.297   .     A
H149   N167    1.029   .     S
H150   N168    1.029   .     S
H151   N349    1.032   .     S
H153   C18     1.111   1_655 S
H154   C318    1.112   .     S
H155   N530    1.032   1_545 S
H156   C319    1.110   .     S
H159   C259    1.111   .     S
H163   C7      1.083   1_655 S
N167   N168    1.292   .     D
N167   Zn180   2.018   .     S
N168   Zn179   2.018   .     S
N169   C504    1.434   1_545 S
N169   H511    1.032   1_545 S
N170   C325    1.433   .     S
N170   H335    1.032   .     S
N170   C319    1.447   .     S
O171   Zn179   1.962   .     S
O171   C1      1.272   1_655 S
O172   Zn180   1.962   .     S
O173   Zn180   1.987   .     S
O174   Zn179   1.987   .     S
O175   Zn179   1.960   .     S
O175   C26     1.290   1_655 S
O176   Zn180   1.960   .     S
O177   Zn180   1.915   .     S
O178   Zn179   1.915   .     S
C181   C204    1.407   .     S
C181   O233    1.291   .     A
C181   O351    1.272   1_455 S
C182   C184    1.450   .     S
C182   O238    1.298   .     A
C182   O296    1.290   .     S
C183   C189    1.384   .     A
C183   C187    1.399   .     A
C183   C206    1.448   .     S
C184   C190    1.388   .     A
C184   C248    1.399   .     S
C185   C194    1.404   .     A
C185   C187    1.393   .     A
C185   H224    1.084   .     S
C186   C195    1.403   .     A
C186   C248    1.391   .     S
C186   H285    1.084   .     S
C187   H343    1.083   1_455 S
C188   H222    1.083   .     S
C188   C304    1.399   1_455 S
C188   C306    1.391   1_455 S
C189   C191    1.392   .     A
C189   H221    1.079   .     S
C190   H220    1.077   .     S
C190   C193    1.393   .     A
C191   C196    1.414   .     A
C191   C194    1.419   .     A
C192   C205    1.407   .     S
C192   O234    1.291   .     A
C192   O292    1.272   .     S
C193   C197    1.416   .     A
C193   C195    1.419   .     A
C194   C742    1.389   .     S
C195   C743    1.389   1_554 S
C196   C201    1.418   .     A
C196   C737    1.414   .     S
C197   C200    1.419   .     A
C197   C736    1.414   1_554 S
C198   H212    1.111   .     S
C198   N229    1.448   .     S
C198   H333    1.111   1_455 S
C199   H217    1.112   .     S
C200   H226    1.078   .     S
C200   C202    1.387   .     A
C201   C203    1.385   .     A
C201   H208    1.078   .     S
C202   H207    1.084   .     S
C202   C734    1.389   1_554 S
C203   H218    1.084   .     S
C203   C735    1.389   .     S
C204   C505    1.361   1_455 S
C204   N409    1.434   .     S
C206   O237    1.297   .     A
C206   O355    1.290   1_455 S
H209   N227    1.029   .     S
H210   N228    1.029   .     S
H211   N409    1.032   .     S
H213   C258    1.111   .     S
H214   C378    1.112   .     S
H216   C379    1.110   .     S
H219   C499    1.111   1_455 S
H223   C247    1.083   .     S
H225   C306    1.084   1_455 S
N227   N228    1.292   .     D
N227   Zn240   2.018   .     S
N228   Zn239   2.018   .     S
N230   C385    1.433   .     S
N230   H395    1.032   .     S
N230   C379    1.447   .     S
O231   Zn239   1.962   .     S
O231   C241    1.272   .     S
O232   Zn240   1.962   .     S
O232   C312    1.272   1_455 S
O233   Zn240   1.987   .     S
O234   Zn239   1.987   .     S
O235   Zn239   1.960   .     S
O235   C266    1.290   .     S
O236   Zn240   1.960   .     S
O236   C302    1.290   1_455 S
O237   Zn240   1.915   .     S
O238   Zn239   1.915   .     S
C241   C264    1.407   .     S
C241   O293    1.291   .     A
C242   C244    1.450   .     S
C242   O298    1.298   .     A
C242   O356    1.290   .     S
C243   C249    1.384   .     A
C243   C247    1.399   .     A
C243   C266    1.448   .     S
C244   C250    1.388   .     A
C244   C308    1.399   .     S
C245   C254    1.404   .     A
C245   C247    1.393   .     A
C245   H284    1.084   .     S
C246   C255    1.403   .     A
C246   C308    1.391   .     S
C246   H345    1.084   .     S
C248   H282    1.083   .     S
C249   C251    1.392   .     A
C249   H281    1.079   .     S
C250   H280    1.077   .     S
C250   C253    1.393   .     A
C251   C256    1.414   .     A
C251   C254    1.419   .     A
C252   C265    1.407   .     S
C252   O294    1.291   .     A
C252   O352    1.272   .     S
C253   C257    1.416   .     A
C253   C255    1.419   .     A
C254   C802    1.389   .     S
C255   C803    1.389   1_554 S
C256   C261    1.418   .     A
C256   C797    1.414   .     S
C257   C260    1.419   .     A
C257   C796    1.414   1_554 S
C258   H272    1.111   .     S
C258   N289    1.448   .     S
C259   H277    1.112   .     S
C260   H286    1.078   .     S
C260   C262    1.387   .     A
C261   C263    1.385   .     A
C261   H268    1.078   .     S
C262   H267    1.084   .     S
C262   C794    1.389   1_554 S
C263   H278    1.084   .     S
C263   C795    1.389   .     S
C264   C385    1.361   .     S
C264   N469    1.434   .     S
C266   O297    1.297   .     A
H269   N287    1.029   .     S
H270   N288    1.029   .     S
H271   N469    1.032   .     S
H273   C318    1.111   .     S
H274   C438    1.112   .     S
H276   C439    1.110   .     S
H279   C379    1.111   .     S
H283   C307    1.083   .     S
N287   N288    1.292   .     D
N287   Zn300   2.018   .     S
N288   Zn299   2.018   .     S
N290   C445    1.433   .     S
N290   H455    1.032   .     S
N290   C439    1.447   .     S
O291   Zn299   1.962   .     S
O291   C301    1.272   .     S
O292   Zn300   1.962   .     S
O293   Zn300   1.987   .     S
O294   Zn299   1.987   .     S
O295   Zn299   1.960   .     S
O295   C326    1.290   .     S
O296   Zn300   1.960   .     S
O297   Zn300   1.915   .     S
O298   Zn299   1.915   .     S
C301   C324    1.407   .     S
C301   O353    1.291   .     A
C302   C304    1.450   .     S
C302   O358    1.298   .     A
C302   O236    1.290   1_655 S
C303   C309    1.384   .     A
C303   C307    1.399   .     A
C303   C326    1.448   .     S
C304   C310    1.388   .     A
C304   C188    1.399   1_655 S
C305   C314    1.404   .     A
C305   C307    1.393   .     A
C305   H344    1.084   .     S
C306   C315    1.403   .     A
C306   C188    1.391   1_655 S
C306   H225    1.084   1_655 S
C308   H342    1.083   .     S
C309   C311    1.392   .     A
C309   H341    1.079   .     S
C310   H340    1.077   .     S
C310   C313    1.393   .     A
C311   C316    1.414   .     A
C311   C314    1.419   .     A
C312   C325    1.407   .     S
C312   O354    1.291   .     A
C312   O232    1.272   1_655 S
C313   C317    1.416   .     A
C313   C315    1.419   .     A
C314   C862    1.389   .     S
C315   C863    1.389   1_554 S
C316   C321    1.418   .     A
C316   C857    1.414   .     S
C317   C320    1.419   .     A
C317   C856    1.414   1_554 S
C318   H332    1.111   .     S
C318   N349    1.448   .     S
C319   H337    1.112   .     S
C319   H39     1.111   1_655 S
C320   H346    1.078   .     S
C320   C322    1.387   .     A
C321   C323    1.385   .     A
C321   H328    1.078   .     S
C322   H327    1.084   .     S
C322   C854    1.389   1_554 S
C323   H338    1.084   .     S
C323   C855    1.389   .     S
C324   C445    1.361   .     S
C324   N529    1.434   .     S
C325   C24     1.361   1_655 S
C326   O357    1.297   .     A
H329   N347    1.029   .     S
H330   N348    1.029   .     S
H331   N529    1.032   .     S
H333   C198    1.111   1_655 S
H334   C498    1.112   .     S
H336   C499    1.110   .     S
H339   C439    1.111   .     S
H343   C187    1.083   1_655 S
N347   N348    1.292   .     D
N347   Zn360   2.018   .     S
N348   Zn359   2.018   .     S
N350   C505    1.433   .     S
N350   H515    1.032   .     S
N350   C499    1.447   .     S
O351   Zn359   1.962   .     S
O351   C181    1.272   1_655 S
O352   Zn360   1.962   .     S
O353   Zn360   1.987   .     S
O354   Zn359   1.987   .     S
O355   Zn359   1.960   .     S
O355   C206    1.290   1_655 S
O356   Zn360   1.960   .     S
O357   Zn360   1.915   .     S
O358   Zn359   1.915   .     S
C361   C384    1.407   .     S
C361   O413    1.291   .     A
C361   O531    1.272   1_455 S
C362   C364    1.450   .     S
C362   O418    1.298   .     A
C362   O476    1.290   .     S
C363   C369    1.384   .     A
C363   C367    1.399   .     A
C363   C386    1.448   .     S
C364   C370    1.388   .     A
C364   C428    1.399   .     S
C365   C374    1.404   .     A
C365   C367    1.393   .     A
C365   H404    1.084   .     S
C366   C375    1.403   .     A
C366   C428    1.391   .     S
C366   H465    1.084   .     S
C367   H523    1.083   1_455 S
C368   H402    1.083   .     S
C368   C484    1.399   1_455 S
C368   C486    1.391   1_455 S
C369   C371    1.392   .     A
C369   H401    1.079   .     S
C370   H400    1.077   .     S
C370   C373    1.393   .     A
C371   C376    1.414   .     A
C371   C374    1.419   .     A
C372   C385    1.407   .     S
C372   O414    1.291   .     A
C372   O472    1.272   .     S
C373   C377    1.416   .     A
C373   C375    1.419   .     A
C374   C922    1.389   .     S
C375   C923    1.389   1_554 S
C376   C381    1.418   .     A
C376   C917    1.414   .     S
C377   C380    1.419   .     A
C377   C916    1.414   1_554 S
C378   H392    1.111   .     S
C378   N409    1.448   .     S
C378   H513    1.111   1_455 S
C379   H397    1.112   .     S
C380   H406    1.078   .     S
C380   C382    1.387   .     A
C381   C383    1.385   .     A
C381   H388    1.078   .     S
C382   H387    1.084   .     S
C382   C914    1.389   1_554 S
C383   H398    1.084   .     S
C383   C915    1.389   .     S
C384   C145    1.361   1_465 S
C384   N49     1.434   1_565 S
C386   O417    1.297   .     A
C386   O535    1.290   1_455 S
H389   N407    1.029   .     S
H390   N408    1.029   .     S
H391   N49     1.032   1_565 S
H393   C438    1.111   .     S
H394   C18     1.112   1_565 S
H396   C19     1.110   1_565 S
H399   C139    1.111   1_465 S
H403   C427    1.083   .     S
H405   C486    1.084   1_455 S
N407   N408    1.292   .     D
N407   Zn420   2.018   .     S
N408   Zn419   2.018   .     S
N410   C25     1.433   1_565 S
N410   H35     1.032   1_565 S
N410   C19     1.447   1_565 S
O411   Zn419   1.962   .     S
O411   C421    1.272   .     S
O412   Zn420   1.962   .     S
O412   C492    1.272   1_455 S
O413   Zn420   1.987   .     S
O414   Zn419   1.987   .     S
O415   Zn419   1.960   .     S
O415   C446    1.290   .     S
O416   Zn420   1.960   .     S
O416   C482    1.290   1_455 S
O417   Zn420   1.915   .     S
O418   Zn419   1.915   .     S
C421   C444    1.407   .     S
C421   O473    1.291   .     A
C422   C424    1.450   .     S
C422   O478    1.298   .     A
C422   O536    1.290   .     S
C423   C429    1.384   .     A
C423   C427    1.399   .     A
C423   C446    1.448   .     S
C424   C430    1.388   .     A
C424   C488    1.399   .     S
C425   C434    1.404   .     A
C425   C427    1.393   .     A
C425   H464    1.084   .     S
C426   C435    1.403   .     A
C426   C488    1.391   .     S
C426   H525    1.084   .     S
C428   H462    1.083   .     S
C429   C431    1.392   .     A
C429   H461    1.079   .     S
C430   H460    1.077   .     S
C430   C433    1.393   .     A
C431   C436    1.414   .     A
C431   C434    1.419   .     A
C432   C445    1.407   .     S
C432   O474    1.291   .     A
C432   O532    1.272   .     S
C433   C437    1.416   .     A
C433   C435    1.419   .     A
C434   C982    1.389   .     S
C435   C983    1.389   1_554 S
C436   C441    1.418   .     A
C436   C977    1.414   .     S
C437   C440    1.419   .     A
C437   C976    1.414   1_554 S
C438   H452    1.111   .     S
C438   N469    1.448   .     S
C439   H457    1.112   .     S
C440   H466    1.078   .     S
C440   C442    1.387   .     A
C441   C443    1.385   .     A
C441   H448    1.078   .     S
C442   H447    1.084   .     S
C442   C974    1.389   1_554 S
C443   H458    1.084   .     S
C443   C975    1.389   .     S
C444   C25     1.361   1_565 S
C444   N109    1.434   1_565 S
C446   O477    1.297   .     A
H449   N467    1.029   .     S
H450   N468    1.029   .     S
H451   N109    1.032   1_565 S
H453   C498    1.111   .     S
H454   C78     1.112   1_565 S
H456   C79     1.110   1_565 S
H459   C19     1.111   1_565 S
H463   C487    1.083   .     S
N467   N468    1.292   .     D
N467   Zn480   2.018   .     S
N468   Zn479   2.018   .     S
N470   C85     1.433   1_565 S
N470   H95     1.032   1_565 S
N470   C79     1.447   1_565 S
O471   Zn479   1.962   .     S
O471   C481    1.272   .     S
O472   Zn480   1.962   .     S
O473   Zn480   1.987   .     S
O474   Zn479   1.987   .     S
O475   Zn479   1.960   .     S
O475   C506    1.290   .     S
O476   Zn480   1.960   .     S
O477   Zn480   1.915   .     S
O478   Zn479   1.915   .     S
C481   C504    1.407   .     S
C481   O533    1.291   .     A
C482   C484    1.450   .     S
C482   O538    1.298   .     A
C482   O416    1.290   1_655 S
C483   C489    1.384   .     A
C483   C487    1.399   .     A
C483   C506    1.448   .     S
C484   C490    1.388   .     A
C484   C368    1.399   1_655 S
C485   C494    1.404   .     A
C485   C487    1.393   .     A
C485   H524    1.084   .     S
C486   C495    1.403   .     A
C486   C368    1.391   1_655 S
C486   H405    1.084   1_655 S
C488   H522    1.083   .     S
C489   C491    1.392   .     A
C489   H521    1.079   .     S
C490   H520    1.077   .     S
C490   C493    1.393   .     A
C491   C496    1.414   .     A
C491   C494    1.419   .     A
C492   C505    1.407   .     S
C492   O534    1.291   .     A
C492   O412    1.272   1_655 S
C493   C497    1.416   .     A
C493   C495    1.419   .     A
C494   C1042   1.389   .     S
C495   C1043   1.389   1_554 S
C496   C501    1.418   .     A
C496   C1037   1.414   .     S
C497   C500    1.419   .     A
C497   C1036   1.414   1_554 S
C498   H512    1.111   .     S
C498   N529    1.448   .     S
C499   H517    1.112   .     S
C499   H219    1.111   1_655 S
C500   H526    1.078   .     S
C500   C502    1.387   .     A
C501   C503    1.385   .     A
C501   H508    1.078   .     S
C502   H507    1.084   .     S
C502   C1034   1.389   1_554 S
C503   H518    1.084   .     S
C503   C1035   1.389   .     S
C504   C85     1.361   1_565 S
C504   N169    1.434   1_565 S
C505   C204    1.361   1_655 S
C506   O537    1.297   .     A
H509   N527    1.029   .     S
H510   N528    1.029   .     S
H511   N169    1.032   1_565 S
H513   C378    1.111   1_655 S
H514   C138    1.112   1_565 S
H516   C139    1.110   1_565 S
H519   C79     1.111   1_565 S
H523   C367    1.083   1_655 S
N527   N528    1.292   .     D
N527   Zn540   2.018   .     S
N528   Zn539   2.018   .     S
N530   C145    1.433   1_565 S
N530   H155    1.032   1_565 S
N530   C139    1.447   1_565 S
O531   Zn539   1.962   .     S
O531   C361    1.272   1_655 S
O532   Zn540   1.962   .     S
O533   Zn540   1.987   .     S
O534   Zn539   1.987   .     S
O535   Zn539   1.960   .     S
O535   C386    1.290   1_655 S
O536   Zn540   1.960   .     S
O537   Zn540   1.915   .     S
O538   Zn539   1.915   .     S
C541   C564    1.407   .     S
C541   O593    1.291   .     A
C541   O711    1.272   1_455 S
C542   C544    1.450   .     S
C542   O598    1.298   .     A
C542   O656    1.290   .     S
C543   C549    1.384   .     A
C543   C547    1.399   .     A
C543   C566    1.448   .     S
C544   C550    1.388   .     A
C544   C608    1.399   .     S
C545   C554    1.404   .     A
C545   C547    1.393   .     A
C545   H584    1.084   .     S
C546   C555    1.403   .     A
C546   C608    1.391   .     S
C546   H645    1.084   .     S
C547   H703    1.083   1_455 S
C548   H582    1.083   .     S
C548   C664    1.399   1_455 S
C548   C666    1.391   1_455 S
C549   C551    1.392   .     A
C549   H581    1.079   .     S
C550   H580    1.077   .     S
C550   C553    1.393   .     A
C551   C556    1.414   .     A
C551   C554    1.419   .     A
C552   C565    1.407   .     S
C552   O594    1.291   .     A
C552   O652    1.272   .     S
C553   C557    1.416   .     A
C553   C555    1.419   .     A
C554   C22     1.389   1_556 S
C556   C561    1.418   .     A
C556   C17     1.414   1_556 S
C557   C560    1.419   .     A
C558   H572    1.111   .     S
C558   N589    1.448   .     S
C558   H693    1.111   1_455 S
C558   H934    1.112   1_545 S
C559   H577    1.112   .     S
C559   H936    1.110   1_545 S
C559   H999    1.111   1_545 S
C559   N950    1.447   1_545 S
C560   H586    1.078   .     S
C560   C562    1.387   .     A
C561   C563    1.385   .     A
C561   H568    1.078   .     S
C562   H567    1.084   .     S
C563   H578    1.084   .     S
C563   C15     1.389   1_556 S
C564   C865    1.361   1_455 S
C564   N769    1.434   .     S
C565   C984    1.361   1_545 S
C565   N950    1.433   1_545 S
C566   O597    1.297   .     A
C566   O715    1.290   1_455 S
H569   N587    1.029   .     S
H570   N588    1.029   .     S
H571   N769    1.032   .     S
H573   C618    1.111   .     S
H574   C738    1.112   .     S
H575   N950    1.032   1_545 S
H576   C739    1.110   .     S
H579   C859    1.111   1_455 S
H583   C607    1.083   .     S
H585   C666    1.084   1_455 S
N587   N588    1.292   .     D
N587   Zn600   2.018   .     S
N588   Zn599   2.018   .     S
N589   C924    1.434   1_545 S
N589   H931    1.032   1_545 S
N590   C745    1.433   .     S
N590   H755    1.032   .     S
N590   C739    1.447   .     S
O591   Zn599   1.962   .     S
O591   C601    1.272   .     S
O592   Zn600   1.962   .     S
O592   C672    1.272   1_455 S
O593   Zn600   1.987   .     S
O594   Zn599   1.987   .     S
O595   Zn599   1.960   .     S
O595   C626    1.290   .     S
O596   Zn600   1.960   .     S
O596   C662    1.290   1_455 S
O597   Zn600   1.915   .     S
O598   Zn599   1.915   .     S
C601   C624    1.407   .     S
C601   O653    1.291   .     A
C602   C604    1.450   .     S
C602   O658    1.298   .     A
C602   O716    1.290   .     S
C603   C609    1.384   .     A
C603   C607    1.399   .     A
C603   C626    1.448   .     S
C604   C610    1.388   .     A
C604   C668    1.399   .     S
C605   C614    1.404   .     A
C605   C607    1.393   .     A
C605   H644    1.084   .     S
C606   C615    1.403   .     A
C606   C668    1.391   .     S
C606   H705    1.084   .     S
C608   H642    1.083   .     S
C609   C611    1.392   .     A
C609   H641    1.079   .     S
C610   H640    1.077   .     S
C610   C613    1.393   .     A
C611   C616    1.414   .     A
C611   C614    1.419   .     A
C612   C625    1.407   .     S
C612   O654    1.291   .     A
C612   O712    1.272   .     S
C613   C617    1.416   .     A
C613   C615    1.419   .     A
C614   C82     1.389   1_556 S
C616   C621    1.418   .     A
C616   C77     1.414   1_556 S
C617   C620    1.419   .     A
C618   H632    1.111   .     S
C618   N649    1.448   .     S
C618   H994    1.112   1_545 S
C619   H637    1.112   .     S
C619   H996    1.110   1_545 S
C619   H1059   1.111   1_545 S
C619   N1010   1.447   1_545 S
C620   H646    1.078   .     S
C620   C622    1.387   .     A
C621   C623    1.385   .     A
C621   H628    1.078   .     S
C622   H627    1.084   .     S
C623   H638    1.084   .     S
C623   C75     1.389   1_556 S
C624   C745    1.361   .     S
C624   N829    1.434   .     S
C625   C1044   1.361   1_545 S
C625   N1010   1.433   1_545 S
C626   O657    1.297   .     A
H629   N647    1.029   .     S
H630   N648    1.029   .     S
H631   N829    1.032   .     S
H633   C678    1.111   .     S
H634   C798    1.112   .     S
H635   N1010   1.032   1_545 S
H636   C799    1.110   .     S
H639   C739    1.111   .     S
H643   C667    1.083   .     S
N647   N648    1.292   .     D
N647   Zn660   2.018   .     S
N648   Zn659   2.018   .     S
N649   C984    1.434   1_545 S
N649   H991    1.032   1_545 S
N650   C805    1.433   .     S
N650   H815    1.032   .     S
N650   C799    1.447   .     S
O651   Zn659   1.962   .     S
O651   C661    1.272   .     S
O652   Zn660   1.962   .     S
O653   Zn660   1.987   .     S
O654   Zn659   1.987   .     S
O655   Zn659   1.960   .     S
O655   C686    1.290   .     S
O656   Zn660   1.960   .     S
O657   Zn660   1.915   .     S
O658   Zn659   1.915   .     S
C661   C684    1.407   .     S
C661   O713    1.291   .     A
C662   C664    1.450   .     S
C662   O718    1.298   .     A
C662   O596    1.290   1_655 S
C663   C669    1.384   .     A
C663   C667    1.399   .     A
C663   C686    1.448   .     S
C664   C670    1.388   .     A
C664   C548    1.399   1_655 S
C665   C674    1.404   .     A
C665   C667    1.393   .     A
C665   H704    1.084   .     S
C666   C675    1.403   .     A
C666   C548    1.391   1_655 S
C666   H585    1.084   1_655 S
C668   H702    1.083   .     S
C669   C671    1.392   .     A
C669   H701    1.079   .     S
C670   H700    1.077   .     S
C670   C673    1.393   .     A
C671   C676    1.414   .     A
C671   C674    1.419   .     A
C672   C685    1.407   .     S
C672   O714    1.291   .     A
C672   O592    1.272   1_655 S
C673   C677    1.416   .     A
C673   C675    1.419   .     A
C674   C142    1.389   1_556 S
C676   C681    1.418   .     A
C676   C137    1.414   1_556 S
C677   C680    1.419   .     A
C678   H692    1.111   .     S
C678   N709    1.448   .     S
C678   H1054   1.112   1_545 S
C679   H697    1.112   .     S
C679   H1056   1.110   1_545 S
C679   H939    1.111   1_645 S
C679   N1070   1.447   1_545 S
C680   H706    1.078   .     S
C680   C682    1.387   .     A
C681   C683    1.385   .     A
C681   H688    1.078   .     S
C682   H687    1.084   .     S
C683   H698    1.084   .     S
C683   C135    1.389   1_556 S
C684   C805    1.361   .     S
C684   N889    1.434   .     S
C685   C924    1.361   1_645 S
C685   N1070   1.433   1_545 S
C686   O717    1.297   .     A
H689   N707    1.029   .     S
H690   N708    1.029   .     S
H691   N889    1.032   .     S
H693   C558    1.111   1_655 S
H694   C858    1.112   .     S
H695   N1070   1.032   1_545 S
H696   C859    1.110   .     S
H699   C799    1.111   .     S
H703   C547    1.083   1_655 S
N707   N708    1.292   .     D
N707   Zn720   2.018   .     S
N708   Zn719   2.018   .     S
N709   C1044   1.434   1_545 S
N709   H1051   1.032   1_545 S
N710   C865    1.433   .     S
N710   H875    1.032   .     S
N710   C859    1.447   .     S
O711   Zn719   1.962   .     S
O711   C541    1.272   1_655 S
O712   Zn720   1.962   .     S
O713   Zn720   1.987   .     S
O714   Zn719   1.987   .     S
O715   Zn719   1.960   .     S
O715   C566    1.290   1_655 S
O716   Zn720   1.960   .     S
O717   Zn720   1.915   .     S
O718   Zn719   1.915   .     S
C721   C744    1.407   .     S
C721   O773    1.291   .     A
C721   O891    1.272   1_455 S
C722   C724    1.450   .     S
C722   O778    1.298   .     A
C722   O836    1.290   .     S
C723   C729    1.384   .     A
C723   C727    1.399   .     A
C723   C746    1.448   .     S
C724   C730    1.388   .     A
C724   C788    1.399   .     S
C725   C734    1.404   .     A
C725   C727    1.393   .     A
C725   H764    1.084   .     S
C726   C735    1.403   .     A
C726   C788    1.391   .     S
C726   H825    1.084   .     S
C727   H883    1.083   1_455 S
C728   H762    1.083   .     S
C728   C844    1.399   1_455 S
C728   C846    1.391   1_455 S
C729   C731    1.392   .     A
C729   H761    1.079   .     S
C730   H760    1.077   .     S
C730   C733    1.393   .     A
C731   C736    1.414   .     A
C731   C734    1.419   .     A
C732   C745    1.407   .     S
C732   O774    1.291   .     A
C732   O832    1.272   .     S
C733   C737    1.416   .     A
C733   C735    1.419   .     A
C734   C202    1.389   1_556 S
C736   C741    1.418   .     A
C736   C197    1.414   1_556 S
C737   C740    1.419   .     A
C738   H752    1.111   .     S
C738   N769    1.448   .     S
C738   H873    1.111   1_455 S
C739   H757    1.112   .     S
C740   H766    1.078   .     S
C740   C742    1.387   .     A
C741   C743    1.385   .     A
C741   H748    1.078   .     S
C742   H747    1.084   .     S
C743   H758    1.084   .     S
C743   C195    1.389   1_556 S
C744   C1045   1.361   1_455 S
C744   N949    1.434   .     S
C746   O777    1.297   .     A
C746   O895    1.290   1_455 S
H749   N767    1.029   .     S
H750   N768    1.029   .     S
H751   N949    1.032   .     S
H753   C798    1.111   .     S
H754   C918    1.112   .     S
H756   C919    1.110   .     S
H759   C1039   1.111   1_455 S
H763   C787    1.083   .     S
H765   C846    1.084   1_455 S
N767   N768    1.292   .     D
N767   Zn780   2.018   .     S
N768   Zn779   2.018   .     S
N770   C925    1.433   .     S
N770   H935    1.032   .     S
N770   C919    1.447   .     S
O771   Zn779   1.962   .     S
O771   C781    1.272   .     S
O772   Zn780   1.962   .     S
O772   C852    1.272   1_455 S
O773   Zn780   1.987   .     S
O774   Zn779   1.987   .     S
O775   Zn779   1.960   .     S
O775   C806    1.290   .     S
O776   Zn780   1.960   .     S
O776   C842    1.290   1_455 S
O777   Zn780   1.915   .     S
O778   Zn779   1.915   .     S
C781   C804    1.407   .     S
C781   O833    1.291   .     A
C782   C784    1.450   .     S
C782   O838    1.298   .     A
C782   O896    1.290   .     S
C783   C789    1.384   .     A
C783   C787    1.399   .     A
C783   C806    1.448   .     S
C784   C790    1.388   .     A
C784   C848    1.399   .     S
C785   C794    1.404   .     A
C785   C787    1.393   .     A
C785   H824    1.084   .     S
C786   C795    1.403   .     A
C786   C848    1.391   .     S
C786   H885    1.084   .     S
C788   H822    1.083   .     S
C789   C791    1.392   .     A
C789   H821    1.079   .     S
C790   H820    1.077   .     S
C790   C793    1.393   .     A
C791   C796    1.414   .     A
C791   C794    1.419   .     A
C792   C805    1.407   .     S
C792   O834    1.291   .     A
C792   O892    1.272   .     S
C793   C797    1.416   .     A
C793   C795    1.419   .     A
C794   C262    1.389   1_556 S
C796   C801    1.418   .     A
C796   C257    1.414   1_556 S
C797   C800    1.419   .     A
C798   H812    1.111   .     S
C798   N829    1.448   .     S
C799   H817    1.112   .     S
C800   H826    1.078   .     S
C800   C802    1.387   .     A
C801   C803    1.385   .     A
C801   H808    1.078   .     S
C802   H807    1.084   .     S
C803   H818    1.084   .     S
C803   C255    1.389   1_556 S
C804   C925    1.361   .     S
C804   N1009   1.434   .     S
C806   O837    1.297   .     A
H809   N827    1.029   .     S
H810   N828    1.029   .     S
H811   N1009   1.032   .     S
H813   C858    1.111   .     S
H814   C978    1.112   .     S
H816   C979    1.110   .     S
H819   C919    1.111   .     S
H823   C847    1.083   .     S
N827   N828    1.292   .     D
N827   Zn840   2.018   .     S
N828   Zn839   2.018   .     S
N830   C985    1.433   .     S
N830   H995    1.032   .     S
N830   C979    1.447   .     S
O831   Zn839   1.962   .     S
O831   C841    1.272   .     S
O832   Zn840   1.962   .     S
O833   Zn840   1.987   .     S
O834   Zn839   1.987   .     S
O835   Zn839   1.960   .     S
O835   C866    1.290   .     S
O836   Zn840   1.960   .     S
O837   Zn840   1.915   .     S
O838   Zn839   1.915   .     S
C841   C864    1.407   .     S
C841   O893    1.291   .     A
C842   C844    1.450   .     S
C842   O898    1.298   .     A
C842   O776    1.290   1_655 S
C843   C849    1.384   .     A
C843   C847    1.399   .     A
C843   C866    1.448   .     S
C844   C850    1.388   .     A
C844   C728    1.399   1_655 S
C845   C854    1.404   .     A
C845   C847    1.393   .     A
C845   H884    1.084   .     S
C846   C855    1.403   .     A
C846   C728    1.391   1_655 S
C846   H765    1.084   1_655 S
C848   H882    1.083   .     S
C849   C851    1.392   .     A
C849   H881    1.079   .     S
C850   H880    1.077   .     S
C850   C853    1.393   .     A
C851   C856    1.414   .     A
C851   C854    1.419   .     A
C852   C865    1.407   .     S
C852   O894    1.291   .     A
C852   O772    1.272   1_655 S
C853   C857    1.416   .     A
C853   C855    1.419   .     A
C854   C322    1.389   1_556 S
C856   C861    1.418   .     A
C856   C317    1.414   1_556 S
C857   C860    1.419   .     A
C858   H872    1.111   .     S
C858   N889    1.448   .     S
C859   H877    1.112   .     S
C859   H579    1.111   1_655 S
C860   H886    1.078   .     S
C860   C862    1.387   .     A
C861   C863    1.385   .     A
C861   H868    1.078   .     S
C862   H867    1.084   .     S
C863   H878    1.084   .     S
C863   C315    1.389   1_556 S
C864   C985    1.361   .     S
C864   N1069   1.434   .     S
C865   C564    1.361   1_655 S
C866   O897    1.297   .     A
H869   N887    1.029   .     S
H870   N888    1.029   .     S
H871   N1069   1.032   .     S
H873   C738    1.111   1_655 S
H874   C1038   1.112   .     S
H876   C1039   1.110   .     S
H879   C979    1.111   .     S
H883   C727    1.083   1_655 S
N887   N888    1.292   .     D
N887   Zn900   2.018   .     S
N888   Zn899   2.018   .     S
N890   C1045   1.433   .     S
N890   H1055   1.032   .     S
N890   C1039   1.447   .     S
O891   Zn899   1.962   .     S
O891   C721    1.272   1_655 S
O892   Zn900   1.962   .     S
O893   Zn900   1.987   .     S
O894   Zn899   1.987   .     S
O895   Zn899   1.960   .     S
O895   C746    1.290   1_655 S
O896   Zn900   1.960   .     S
O897   Zn900   1.915   .     S
O898   Zn899   1.915   .     S
C901   C924    1.407   .     S
C901   O953    1.291   .     A
C901   O1071   1.272   1_455 S
C902   C904    1.450   .     S
C902   O958    1.298   .     A
C902   O1016   1.290   .     S
C903   C909    1.384   .     A
C903   C907    1.399   .     A
C903   C926    1.448   .     S
C904   C910    1.388   .     A
C904   C968    1.399   .     S
C905   C914    1.404   .     A
C905   C907    1.393   .     A
C905   H944    1.084   .     S
C906   C915    1.403   .     A
C906   C968    1.391   .     S
C906   H1005   1.084   .     S
C907   H1063   1.083   1_455 S
C908   H942    1.083   .     S
C908   C1024   1.399   1_455 S
C908   C1026   1.391   1_455 S
C909   C911    1.392   .     A
C909   H941    1.079   .     S
C910   H940    1.077   .     S
C910   C913    1.393   .     A
C911   C916    1.414   .     A
C911   C914    1.419   .     A
C912   C925    1.407   .     S
C912   O954    1.291   .     A
C912   O1012   1.272   .     S
C913   C917    1.416   .     A
C913   C915    1.419   .     A
C914   C382    1.389   1_556 S
C916   C921    1.418   .     A
C916   C377    1.414   1_556 S
C917   C920    1.419   .     A
C918   H932    1.111   .     S
C918   N949    1.448   .     S
C918   H1053   1.111   1_455 S
C919   H937    1.112   .     S
C920   H946    1.078   .     S
C920   C922    1.387   .     A
C921   C923    1.385   .     A
C921   H928    1.078   .     S
C922   H927    1.084   .     S
C923   H938    1.084   .     S
C923   C375    1.389   1_556 S
C924   C685    1.361   1_465 S
C924   N589    1.434   1_565 S
C926   O957    1.297   .     A
C926   O1075   1.290   1_455 S
H929   N947    1.029   .     S
H930   N948    1.029   .     S
H931   N589    1.032   1_565 S
H933   C978    1.111   .     S
H934   C558    1.112   1_565 S
H936   C559    1.110   1_565 S
H939   C679    1.111   1_465 S
H943   C967    1.083   .     S
H945   C1026   1.084   1_455 S
N947   N948    1.292   .     D
N947   Zn960   2.018   .     S
N948   Zn959   2.018   .     S
N950   C565    1.433   1_565 S
N950   H575    1.032   1_565 S
N950   C559    1.447   1_565 S
O951   Zn959   1.962   .     S
O951   C961    1.272   .     S
O952   Zn960   1.962   .     S
O952   C1032   1.272   1_455 S
O953   Zn960   1.987   .     S
O954   Zn959   1.987   .     S
O955   Zn959   1.960   .     S
O955   C986    1.290   .     S
O956   Zn960   1.960   .     S
O956   C1022   1.290   1_455 S
O957   Zn960   1.915   .     S
O958   Zn959   1.915   .     S
C961   C984    1.407   .     S
C961   O1013   1.291   .     A
C962   C964    1.450   .     S
C962   O1018   1.298   .     A
C962   O1076   1.290   .     S
C963   C969    1.384   .     A
C963   C967    1.399   .     A
C963   C986    1.448   .     S
C964   C970    1.388   .     A
C964   C1028   1.399   .     S
C965   C974    1.404   .     A
C965   C967    1.393   .     A
C965   H1004   1.084   .     S
C966   C975    1.403   .     A
C966   C1028   1.391   .     S
C966   H1065   1.084   .     S
C968   H1002   1.083   .     S
C969   C971    1.392   .     A
C969   H1001   1.079   .     S
C970   H1000   1.077   .     S
C970   C973    1.393   .     A
C971   C976    1.414   .     A
C971   C974    1.419   .     A
C972   C985    1.407   .     S
C972   O1014   1.291   .     A
C972   O1072   1.272   .     S
C973   C977    1.416   .     A
C973   C975    1.419   .     A
C974   C442    1.389   1_556 S
C976   C981    1.418   .     A
C976   C437    1.414   1_556 S
C977   C980    1.419   .     A
C978   H992    1.111   .     S
C978   N1009   1.448   .     S
C979   H997    1.112   .     S
C980   H1006   1.078   .     S
C980   C982    1.387   .     A
C981   C983    1.385   .     A
C981   H988    1.078   .     S
C982   H987    1.084   .     S
C983   H998    1.084   .     S
C983   C435    1.389   1_556 S
C984   C565    1.361   1_565 S
C984   N649    1.434   1_565 S
C986   O1017   1.297   .     A
H989   N1007   1.029   .     S
H990   N1008   1.029   .     S
H991   N649    1.032   1_565 S
H993   C1038   1.111   .     S
H994   C618    1.112   1_565 S
H996   C619    1.110   1_565 S
H999   C559    1.111   1_565 S
H1003  C1027   1.083   .     S
N1007  N1008   1.292   .     D
N1007  Zn1020  2.018   .     S
N1008  Zn1019  2.018   .     S
N1010  C625    1.433   1_565 S
N1010  H635    1.032   1_565 S
N1010  C619    1.447   1_565 S
O1011  Zn1019  1.962   .     S
O1011  C1021   1.272   .     S
O1012  Zn1020  1.962   .     S
O1013  Zn1020  1.987   .     S
O1014  Zn1019  1.987   .     S
O1015  Zn1019  1.960   .     S
O1015  C1046   1.290   .     S
O1016  Zn1020  1.960   .     S
O1017  Zn1020  1.915   .     S
O1018  Zn1019  1.915   .     S
C1021  C1044   1.407   .     S
C1021  O1073   1.291   .     A
C1022  C1024   1.450   .     S
C1022  O1078   1.298   .     A
C1022  O956    1.290   1_655 S
C1023  C1029   1.384   .     A
C1023  C1027   1.399   .     A
C1023  C1046   1.448   .     S
C1024  C1030   1.388   .     A
C1024  C908    1.399   1_655 S
C1025  C1034   1.404   .     A
C1025  C1027   1.393   .     A
C1025  H1064   1.084   .     S
C1026  C1035   1.403   .     A
C1026  C908    1.391   1_655 S
C1026  H945    1.084   1_655 S
C1028  H1062   1.083   .     S
C1029  C1031   1.392   .     A
C1029  H1061   1.079   .     S
C1030  H1060   1.077   .     S
C1030  C1033   1.393   .     A
C1031  C1036   1.414   .     A
C1031  C1034   1.419   .     A
C1032  C1045   1.407   .     S
C1032  O1074   1.291   .     A
C1032  O952    1.272   1_655 S
C1033  C1037   1.416   .     A
C1033  C1035   1.419   .     A
C1034  C502    1.389   1_556 S
C1036  C1041   1.418   .     A
C1036  C497    1.414   1_556 S
C1037  C1040   1.419   .     A
C1038  H1052   1.111   .     S
C1038  N1069   1.448   .     S
C1039  H1057   1.112   .     S
C1039  H759    1.111   1_655 S
C1040  H1066   1.078   .     S
C1040  C1042   1.387   .     A
C1041  C1043   1.385   .     A
C1041  H1048   1.078   .     S
C1042  H1047   1.084   .     S
C1043  H1058   1.084   .     S
C1043  C495    1.389   1_556 S
C1044  C625    1.361   1_565 S
C1044  N709    1.434   1_565 S
C1045  C744    1.361   1_655 S
C1046  O1077   1.297   .     A
H1049  N1067   1.029   .     S
H1050  N1068   1.029   .     S
H1051  N709    1.032   1_565 S
H1053  C918    1.111   1_655 S
H1054  C678    1.112   1_565 S
H1056  C679    1.110   1_565 S
H1059  C619    1.111   1_565 S
H1063  C907    1.083   1_655 S
N1067  N1068   1.292   .     D
N1067  Zn1080  2.018   .     S
N1068  Zn1079  2.018   .     S
N1070  C685    1.433   1_565 S
N1070  H695    1.032   1_565 S
N1070  C679    1.447   1_565 S
O1071  Zn1079  1.962   .     S
O1071  C901    1.272   1_655 S
O1072  Zn1080  1.962   .     S
O1073  Zn1080  1.987   .     S
O1074  Zn1079  1.987   .     S
O1075  Zn1079  1.960   .     S
O1075  C926    1.290   1_655 S
O1076  Zn1080  1.960   .     S
O1077  Zn1080  1.915   .     S
O1078  Zn1079  1.915   .     S
