data_str_m3_o1_o16_pcu_sym.11
_audit_creation_date              2020-01-03
_audit_creation_method            'Materials Studio'
_symmetry_space_group_name_H-M    'P1'
_symmetry_Int_Tables_number       1
_symmetry_cell_setting            triclinic
loop_
_symmetry_equiv_pos_as_xyz
  x,y,z
_cell_length_a                    29.6628
_cell_length_b                    32.1823
_cell_length_c                    25.9080
_cell_angle_alpha                 90.5232
_cell_angle_beta                  72.1056
_cell_angle_gamma                 90.4468
loop_
_atom_site_label
_atom_site_type_symbol
_atom_site_fract_x
_atom_site_fract_y
_atom_site_fract_z
_atom_site_U_iso_or_equiv
_atom_site_adp_type
_atom_site_occupancy
C1     C     0.16676   0.24669   0.25037   0.00000  Uiso   1.00
C2     C     0.12923   0.13826   0.40399   0.00000  Uiso   1.00
C3     C     0.20286   0.31287   0.26414   0.00000  Uiso   1.00
C4     C     0.14182   0.15717   0.34945   0.00000  Uiso   1.00
C5     C     0.20245   0.02207   0.26386   0.00000  Uiso   1.00
C6     C     0.16635   0.04261   0.25045   0.00000  Uiso   1.00
C7     C     0.13039   0.02091   0.23739   0.00000  Uiso   1.00
C8     C     0.13073   0.31164   0.23744   0.00000  Uiso   1.00
C9     C     0.16695   0.29094   0.25071   0.00000  Uiso   1.00
C10    C     0.31915   0.14364   0.21282   0.00000  Uiso   1.00
C11    C     0.03369   0.14378   0.21277   0.00000  Uiso   1.00
C12    C     0.15136   0.13390   0.48599   0.00000  Uiso   1.00
C13    C     0.01454   0.18901   0.28759   0.00000  Uiso   1.00
C14    C     0.30028   0.18959   0.28767   0.00000  Uiso   1.00
C15    C     0.16655   0.08670   0.24991   0.00000  Uiso   1.00
C16    C     0.19253   0.16877   0.14767   0.00000  Uiso   1.00
C17    C     0.26942   0.16208   0.00111   0.00000  Uiso   1.00
C18    C     0.20814   0.16925   0.08806   0.00000  Uiso   1.00
C19    C     0.08266   0.12609   0.43193   0.00000  Uiso   1.00
C20    C     0.07074   0.11703   0.48752   0.00000  Uiso   1.00
C21    C     0.10408   0.12185   0.01534   0.00000  Uiso   1.00
C22    C     0.16459   0.13218   0.42932   0.00000  Uiso   1.00
C23    C     0.18626   0.14711   0.00970   0.00000  Uiso   1.00
C24    C     0.23489   0.14711   0.47827   0.00000  Uiso   1.00
C25    C     0.24755   0.13287   0.42436   0.00000  Uiso   1.00
C26    C     0.21233   0.12353   0.40041   0.00000  Uiso   1.00
C27    C     0.17375   0.16558   0.06111   0.00000  Uiso   1.00
C28    C     0.25655   0.16892   0.05776   0.00000  Uiso   1.00
F29    F     0.30648   0.12032   0.17566   0.00000  Uiso   1.00
F30    F     0.29365   0.12875   0.39443   0.00000  Uiso   1.00
F31    F     0.23794   0.29361   0.27810   0.00000  Uiso   1.00
H32    H     0.23026   0.03879   0.27443   0.00000  Uiso   1.00
H33    H     0.13115   0.20695   0.10430   0.00000  Uiso   1.00
H34    H     0.02403   0.10299   0.42631   0.00000  Uiso   1.00
H35    H     0.11897   0.10070   0.07794   0.00000  Uiso   1.00
H36    H     0.25734   0.09773   0.33671   0.00000  Uiso   1.00
H37    H     0.10247   0.03673   0.22659   0.00000  Uiso   1.00
H38    H     0.10296   0.29503   0.22665   0.00000  Uiso   1.00
H39    H     0.05959   0.12541   0.18299   0.00000  Uiso   1.00
H40    H     0.02511   0.20699   0.31750   0.00000  Uiso   1.00
H41    H     0.03546   0.10605   0.00931   0.00000  Uiso   1.00
H42    H     0.32041   0.16316   0.06239   0.00000  Uiso   1.00
H43    H     0.24161   0.21895   0.31605   0.00000  Uiso   1.00
H44    H     0.32909   0.19235   0.48518   0.00000  Uiso   1.00
N45    N     0.04760   0.16668   0.25002   0.00000  Uiso   1.00
N46    N     0.28573   0.16665   0.25001   0.00000  Uiso   1.00
O47    O     0.12846   0.22775   0.25001   0.00000  Uiso   1.00
O48    O     0.26983   0.21372   0.32695   0.00000  Uiso   1.00
O49    O     0.31437   0.17106   0.46754   0.00000  Uiso   1.00
O50    O     0.12883   0.18192   0.08263   0.00000  Uiso   1.00
O51    O     0.05088   0.11968   0.40346   0.00000  Uiso   1.00
O52    O     0.09046   0.10977   0.06891   0.00000  Uiso   1.00
O53    O     0.22286   0.10298   0.35104   0.00000  Uiso   1.00
O54    O     0.20490   0.22774   0.25001   0.00000  Uiso   1.00
O55    O     0.10947   0.16666   0.32681   0.00000  Uiso   1.00
O56    O     0.18591   0.16665   0.32681   0.00000  Uiso   1.00
O57    O     0.12843   0.10559   0.25000   0.00000  Uiso   1.00
O58    O     0.20488   0.10558   0.25000   0.00000  Uiso   1.00
O59    O     0.14742   0.16668   0.17319   0.00000  Uiso   1.00
O60    O     0.22387   0.16667   0.17319   0.00000  Uiso   1.00
O61    O     0.29018   0.17605   0.08379   0.00000  Uiso   1.00
Zn62   Zn    0.11562   0.16667   0.25000   0.00000  Uiso   1.00
Zn63   Zn    0.21771   0.16666   0.25000   0.00000  Uiso   1.00
C64    C     0.50010   0.24669   0.25037   0.00000  Uiso   1.00
C65    C     0.46256   0.13826   0.40399   0.00000  Uiso   1.00
C66    C     0.53619   0.31287   0.26414   0.00000  Uiso   1.00
C67    C     0.47516   0.15717   0.34945   0.00000  Uiso   1.00
C68    C     0.53579   0.02207   0.26386   0.00000  Uiso   1.00
C69    C     0.49968   0.04261   0.25045   0.00000  Uiso   1.00
C70    C     0.46372   0.02091   0.23739   0.00000  Uiso   1.00
C71    C     0.46406   0.31164   0.23744   0.00000  Uiso   1.00
C72    C     0.50028   0.29094   0.25071   0.00000  Uiso   1.00
C73    C     0.65248   0.14364   0.21282   0.00000  Uiso   1.00
C74    C     0.36702   0.14378   0.21277   0.00000  Uiso   1.00
C75    C     0.48470   0.13390   0.48599   0.00000  Uiso   1.00
C76    C     0.34787   0.18901   0.28759   0.00000  Uiso   1.00
C77    C     0.63362   0.18959   0.28767   0.00000  Uiso   1.00
C78    C     0.49988   0.08670   0.24991   0.00000  Uiso   1.00
C79    C     0.52587   0.16877   0.14767   0.00000  Uiso   1.00
C80    C     0.60275   0.16208   0.00111   0.00000  Uiso   1.00
C81    C     0.54147   0.16925   0.08806   0.00000  Uiso   1.00
C82    C     0.41599   0.12609   0.43193   0.00000  Uiso   1.00
C83    C     0.40407   0.11703   0.48752   0.00000  Uiso   1.00
C84    C     0.43741   0.12185   0.01534   0.00000  Uiso   1.00
C85    C     0.49793   0.13218   0.42932   0.00000  Uiso   1.00
C86    C     0.51960   0.14711   0.00970   0.00000  Uiso   1.00
C87    C     0.56822   0.14711   0.47827   0.00000  Uiso   1.00
C88    C     0.58088   0.13287   0.42436   0.00000  Uiso   1.00
C89    C     0.54566   0.12353   0.40041   0.00000  Uiso   1.00
C90    C     0.50708   0.16558   0.06111   0.00000  Uiso   1.00
C91    C     0.58989   0.16892   0.05776   0.00000  Uiso   1.00
F92    F     0.63982   0.12032   0.17566   0.00000  Uiso   1.00
F93    F     0.62698   0.12875   0.39443   0.00000  Uiso   1.00
F94    F     0.57127   0.29361   0.27810   0.00000  Uiso   1.00
H95    H     0.56359   0.03879   0.27443   0.00000  Uiso   1.00
H96    H     0.46449   0.20695   0.10430   0.00000  Uiso   1.00
H97    H     0.35736   0.10299   0.42631   0.00000  Uiso   1.00
H98    H     0.45230   0.10070   0.07794   0.00000  Uiso   1.00
H99    H     0.59068   0.09773   0.33671   0.00000  Uiso   1.00
H100   H     0.43581   0.03673   0.22659   0.00000  Uiso   1.00
H101   H     0.43629   0.29503   0.22665   0.00000  Uiso   1.00
H102   H     0.39293   0.12541   0.18299   0.00000  Uiso   1.00
H103   H     0.35844   0.20699   0.31750   0.00000  Uiso   1.00
H104   H     0.36880   0.10605   0.00931   0.00000  Uiso   1.00
H105   H     0.65375   0.16316   0.06239   0.00000  Uiso   1.00
H106   H     0.57494   0.21895   0.31605   0.00000  Uiso   1.00
H107   H     0.66243   0.19235   0.48518   0.00000  Uiso   1.00
N108   N     0.38093   0.16668   0.25002   0.00000  Uiso   1.00
N109   N     0.61906   0.16665   0.25001   0.00000  Uiso   1.00
O110   O     0.46179   0.22775   0.25001   0.00000  Uiso   1.00
O111   O     0.60317   0.21372   0.32695   0.00000  Uiso   1.00
O112   O     0.64770   0.17106   0.46754   0.00000  Uiso   1.00
O113   O     0.46217   0.18192   0.08263   0.00000  Uiso   1.00
O114   O     0.38421   0.11968   0.40346   0.00000  Uiso   1.00
O115   O     0.42380   0.10977   0.06891   0.00000  Uiso   1.00
O116   O     0.55619   0.10298   0.35104   0.00000  Uiso   1.00
O117   O     0.53823   0.22774   0.25001   0.00000  Uiso   1.00
O118   O     0.44280   0.16666   0.32681   0.00000  Uiso   1.00
O119   O     0.51924   0.16665   0.32681   0.00000  Uiso   1.00
O120   O     0.46177   0.10559   0.25000   0.00000  Uiso   1.00
O121   O     0.53821   0.10558   0.25000   0.00000  Uiso   1.00
O122   O     0.48076   0.16668   0.17319   0.00000  Uiso   1.00
O123   O     0.55720   0.16667   0.17319   0.00000  Uiso   1.00
O124   O     0.62351   0.17605   0.08379   0.00000  Uiso   1.00
Zn125  Zn    0.44896   0.16667   0.25000   0.00000  Uiso   1.00
Zn126  Zn    0.55104   0.16666   0.25000   0.00000  Uiso   1.00
C127   C     0.83343   0.24669   0.25037   0.00000  Uiso   1.00
C128   C     0.79590   0.13826   0.40399   0.00000  Uiso   1.00
C129   C     0.86953   0.31287   0.26414   0.00000  Uiso   1.00
C130   C     0.80849   0.15717   0.34945   0.00000  Uiso   1.00
C131   C     0.86912   0.02207   0.26386   0.00000  Uiso   1.00
C132   C     0.83301   0.04261   0.25045   0.00000  Uiso   1.00
C133   C     0.79706   0.02091   0.23739   0.00000  Uiso   1.00
C134   C     0.79739   0.31164   0.23744   0.00000  Uiso   1.00
C135   C     0.83361   0.29094   0.25071   0.00000  Uiso   1.00
C136   C     0.98582   0.14364   0.21282   0.00000  Uiso   1.00
C137   C     0.70036   0.14378   0.21277   0.00000  Uiso   1.00
C138   C     0.81803   0.13390   0.48599   0.00000  Uiso   1.00
C139   C     0.68120   0.18901   0.28759   0.00000  Uiso   1.00
C140   C     0.96695   0.18959   0.28767   0.00000  Uiso   1.00
C141   C     0.83322   0.08670   0.24991   0.00000  Uiso   1.00
C142   C     0.85920   0.16877   0.14767   0.00000  Uiso   1.00
C143   C     0.93608   0.16208   0.00111   0.00000  Uiso   1.00
C144   C     0.87480   0.16925   0.08806   0.00000  Uiso   1.00
C145   C     0.74933   0.12609   0.43193   0.00000  Uiso   1.00
C146   C     0.73740   0.11703   0.48752   0.00000  Uiso   1.00
C147   C     0.77075   0.12185   0.01534   0.00000  Uiso   1.00
C148   C     0.83126   0.13218   0.42932   0.00000  Uiso   1.00
C149   C     0.85293   0.14711   0.00970   0.00000  Uiso   1.00
C150   C     0.90156   0.14711   0.47827   0.00000  Uiso   1.00
C151   C     0.91422   0.13287   0.42436   0.00000  Uiso   1.00
C152   C     0.87900   0.12353   0.40041   0.00000  Uiso   1.00
C153   C     0.84042   0.16558   0.06111   0.00000  Uiso   1.00
C154   C     0.92322   0.16892   0.05776   0.00000  Uiso   1.00
F155   F     0.97315   0.12032   0.17566   0.00000  Uiso   1.00
F156   F     0.96031   0.12875   0.39443   0.00000  Uiso   1.00
F157   F     0.90460   0.29361   0.27810   0.00000  Uiso   1.00
H158   H     0.89692   0.03879   0.27443   0.00000  Uiso   1.00
H159   H     0.79782   0.20695   0.10430   0.00000  Uiso   1.00
H160   H     0.69069   0.10299   0.42631   0.00000  Uiso   1.00
H161   H     0.78564   0.10070   0.07794   0.00000  Uiso   1.00
H162   H     0.92401   0.09773   0.33671   0.00000  Uiso   1.00
H163   H     0.76914   0.03673   0.22659   0.00000  Uiso   1.00
H164   H     0.76963   0.29503   0.22665   0.00000  Uiso   1.00
H165   H     0.72626   0.12541   0.18299   0.00000  Uiso   1.00
H166   H     0.69177   0.20699   0.31750   0.00000  Uiso   1.00
H167   H     0.70213   0.10605   0.00931   0.00000  Uiso   1.00
H168   H     0.98708   0.16316   0.06239   0.00000  Uiso   1.00
H169   H     0.90827   0.21895   0.31605   0.00000  Uiso   1.00
H170   H     0.99576   0.19235   0.48518   0.00000  Uiso   1.00
N171   N     0.71426   0.16668   0.25002   0.00000  Uiso   1.00
N172   N     0.95239   0.16665   0.25001   0.00000  Uiso   1.00
O173   O     0.79512   0.22775   0.25001   0.00000  Uiso   1.00
O174   O     0.93650   0.21372   0.32695   0.00000  Uiso   1.00
O175   O     0.98103   0.17106   0.46754   0.00000  Uiso   1.00
O176   O     0.79550   0.18192   0.08263   0.00000  Uiso   1.00
O177   O     0.71754   0.11968   0.40346   0.00000  Uiso   1.00
O178   O     0.75713   0.10977   0.06891   0.00000  Uiso   1.00
O179   O     0.88953   0.10298   0.35104   0.00000  Uiso   1.00
O180   O     0.87157   0.22774   0.25001   0.00000  Uiso   1.00
O181   O     0.77613   0.16666   0.32681   0.00000  Uiso   1.00
O182   O     0.85258   0.16665   0.32681   0.00000  Uiso   1.00
O183   O     0.79510   0.10559   0.25000   0.00000  Uiso   1.00
O184   O     0.87154   0.10558   0.25000   0.00000  Uiso   1.00
O185   O     0.81409   0.16668   0.17319   0.00000  Uiso   1.00
O186   O     0.89053   0.16667   0.17319   0.00000  Uiso   1.00
O187   O     0.95684   0.17605   0.08379   0.00000  Uiso   1.00
Zn188  Zn    0.78229   0.16667   0.25000   0.00000  Uiso   1.00
Zn189  Zn    0.88438   0.16666   0.25000   0.00000  Uiso   1.00
C190   C     0.16676   0.58003   0.25037   0.00000  Uiso   1.00
C191   C     0.12923   0.47159   0.40399   0.00000  Uiso   1.00
C192   C     0.20286   0.64621   0.26414   0.00000  Uiso   1.00
C193   C     0.14182   0.49051   0.34945   0.00000  Uiso   1.00
C194   C     0.20245   0.35540   0.26386   0.00000  Uiso   1.00
C195   C     0.16635   0.37594   0.25045   0.00000  Uiso   1.00
C196   C     0.13039   0.35424   0.23739   0.00000  Uiso   1.00
C197   C     0.13073   0.64498   0.23744   0.00000  Uiso   1.00
C198   C     0.16695   0.62427   0.25071   0.00000  Uiso   1.00
C199   C     0.31915   0.47698   0.21282   0.00000  Uiso   1.00
C200   C     0.03369   0.47711   0.21277   0.00000  Uiso   1.00
C201   C     0.15136   0.46724   0.48599   0.00000  Uiso   1.00
C202   C     0.01454   0.52235   0.28759   0.00000  Uiso   1.00
C203   C     0.30028   0.52292   0.28767   0.00000  Uiso   1.00
C204   C     0.16655   0.42003   0.24991   0.00000  Uiso   1.00
C205   C     0.19253   0.50210   0.14767   0.00000  Uiso   1.00
C206   C     0.26942   0.49541   0.00111   0.00000  Uiso   1.00
C207   C     0.20814   0.50259   0.08806   0.00000  Uiso   1.00
C208   C     0.08266   0.45943   0.43193   0.00000  Uiso   1.00
C209   C     0.07074   0.45036   0.48752   0.00000  Uiso   1.00
C210   C     0.10408   0.45518   0.01534   0.00000  Uiso   1.00
C211   C     0.16459   0.46551   0.42932   0.00000  Uiso   1.00
C212   C     0.18626   0.48044   0.00970   0.00000  Uiso   1.00
C213   C     0.23489   0.48044   0.47827   0.00000  Uiso   1.00
C214   C     0.24755   0.46620   0.42436   0.00000  Uiso   1.00
C215   C     0.21233   0.45686   0.40041   0.00000  Uiso   1.00
C216   C     0.17375   0.49892   0.06111   0.00000  Uiso   1.00
C217   C     0.25655   0.50226   0.05776   0.00000  Uiso   1.00
F218   F     0.30648   0.45365   0.17566   0.00000  Uiso   1.00
F219   F     0.29365   0.46209   0.39443   0.00000  Uiso   1.00
F220   F     0.23794   0.62694   0.27810   0.00000  Uiso   1.00
H221   H     0.23026   0.37213   0.27443   0.00000  Uiso   1.00
H222   H     0.13115   0.54028   0.10430   0.00000  Uiso   1.00
H223   H     0.02403   0.43632   0.42631   0.00000  Uiso   1.00
H224   H     0.11897   0.43404   0.07794   0.00000  Uiso   1.00
H225   H     0.25734   0.43106   0.33671   0.00000  Uiso   1.00
H226   H     0.10247   0.37006   0.22659   0.00000  Uiso   1.00
H227   H     0.10296   0.62837   0.22665   0.00000  Uiso   1.00
H228   H     0.05959   0.45874   0.18299   0.00000  Uiso   1.00
H229   H     0.02511   0.54032   0.31750   0.00000  Uiso   1.00
H230   H     0.03546   0.43938   0.00931   0.00000  Uiso   1.00
H231   H     0.32041   0.49649   0.06239   0.00000  Uiso   1.00
H232   H     0.24161   0.55228   0.31605   0.00000  Uiso   1.00
H233   H     0.32909   0.52569   0.48518   0.00000  Uiso   1.00
N234   N     0.04760   0.50001   0.25002   0.00000  Uiso   1.00
N235   N     0.28573   0.49998   0.25001   0.00000  Uiso   1.00
O236   O     0.12846   0.56108   0.25001   0.00000  Uiso   1.00
O237   O     0.26983   0.54705   0.32695   0.00000  Uiso   1.00
O238   O     0.31437   0.50440   0.46754   0.00000  Uiso   1.00
O239   O     0.12883   0.51525   0.08263   0.00000  Uiso   1.00
O240   O     0.05088   0.45301   0.40346   0.00000  Uiso   1.00
O241   O     0.09046   0.44310   0.06891   0.00000  Uiso   1.00
O242   O     0.22286   0.43632   0.35104   0.00000  Uiso   1.00
O243   O     0.20490   0.56107   0.25001   0.00000  Uiso   1.00
O244   O     0.10947   0.50000   0.32681   0.00000  Uiso   1.00
O245   O     0.18591   0.49999   0.32681   0.00000  Uiso   1.00
O246   O     0.12843   0.43893   0.25000   0.00000  Uiso   1.00
O247   O     0.20488   0.43892   0.25000   0.00000  Uiso   1.00
O248   O     0.14742   0.50001   0.17319   0.00000  Uiso   1.00
O249   O     0.22387   0.50000   0.17319   0.00000  Uiso   1.00
O250   O     0.29018   0.50938   0.08379   0.00000  Uiso   1.00
Zn251  Zn    0.11562   0.50001   0.25000   0.00000  Uiso   1.00
Zn252  Zn    0.21771   0.49999   0.25000   0.00000  Uiso   1.00
C253   C     0.50010   0.58003   0.25037   0.00000  Uiso   1.00
C254   C     0.46256   0.47159   0.40399   0.00000  Uiso   1.00
C255   C     0.53619   0.64621   0.26414   0.00000  Uiso   1.00
C256   C     0.47516   0.49051   0.34945   0.00000  Uiso   1.00
C257   C     0.53579   0.35540   0.26386   0.00000  Uiso   1.00
C258   C     0.49968   0.37594   0.25045   0.00000  Uiso   1.00
C259   C     0.46372   0.35424   0.23739   0.00000  Uiso   1.00
C260   C     0.46406   0.64498   0.23744   0.00000  Uiso   1.00
C261   C     0.50028   0.62427   0.25071   0.00000  Uiso   1.00
C262   C     0.65248   0.47698   0.21282   0.00000  Uiso   1.00
C263   C     0.36702   0.47711   0.21277   0.00000  Uiso   1.00
C264   C     0.48470   0.46724   0.48599   0.00000  Uiso   1.00
C265   C     0.34787   0.52235   0.28759   0.00000  Uiso   1.00
C266   C     0.63362   0.52292   0.28767   0.00000  Uiso   1.00
C267   C     0.49988   0.42003   0.24991   0.00000  Uiso   1.00
C268   C     0.52587   0.50210   0.14767   0.00000  Uiso   1.00
C269   C     0.60275   0.49541   0.00111   0.00000  Uiso   1.00
C270   C     0.54147   0.50259   0.08806   0.00000  Uiso   1.00
C271   C     0.41599   0.45943   0.43193   0.00000  Uiso   1.00
C272   C     0.40407   0.45036   0.48752   0.00000  Uiso   1.00
C273   C     0.43741   0.45518   0.01534   0.00000  Uiso   1.00
C274   C     0.49793   0.46551   0.42932   0.00000  Uiso   1.00
C275   C     0.51960   0.48044   0.00970   0.00000  Uiso   1.00
C276   C     0.56822   0.48044   0.47827   0.00000  Uiso   1.00
C277   C     0.58088   0.46620   0.42436   0.00000  Uiso   1.00
C278   C     0.54566   0.45686   0.40041   0.00000  Uiso   1.00
C279   C     0.50708   0.49892   0.06111   0.00000  Uiso   1.00
C280   C     0.58989   0.50226   0.05776   0.00000  Uiso   1.00
F281   F     0.63982   0.45365   0.17566   0.00000  Uiso   1.00
F282   F     0.62698   0.46209   0.39443   0.00000  Uiso   1.00
F283   F     0.57127   0.62694   0.27810   0.00000  Uiso   1.00
H284   H     0.56359   0.37213   0.27443   0.00000  Uiso   1.00
H285   H     0.46449   0.54028   0.10430   0.00000  Uiso   1.00
H286   H     0.35736   0.43632   0.42631   0.00000  Uiso   1.00
H287   H     0.45230   0.43404   0.07794   0.00000  Uiso   1.00
H288   H     0.59068   0.43106   0.33671   0.00000  Uiso   1.00
H289   H     0.43581   0.37006   0.22659   0.00000  Uiso   1.00
H290   H     0.43629   0.62837   0.22665   0.00000  Uiso   1.00
H291   H     0.39293   0.45874   0.18299   0.00000  Uiso   1.00
H292   H     0.35844   0.54032   0.31750   0.00000  Uiso   1.00
H293   H     0.36880   0.43938   0.00931   0.00000  Uiso   1.00
H294   H     0.65375   0.49649   0.06239   0.00000  Uiso   1.00
H295   H     0.57494   0.55228   0.31605   0.00000  Uiso   1.00
H296   H     0.66243   0.52569   0.48518   0.00000  Uiso   1.00
N297   N     0.38093   0.50001   0.25002   0.00000  Uiso   1.00
N298   N     0.61906   0.49998   0.25001   0.00000  Uiso   1.00
O299   O     0.46179   0.56108   0.25001   0.00000  Uiso   1.00
O300   O     0.60317   0.54705   0.32695   0.00000  Uiso   1.00
O301   O     0.64770   0.50440   0.46754   0.00000  Uiso   1.00
O302   O     0.46217   0.51525   0.08263   0.00000  Uiso   1.00
O303   O     0.38421   0.45301   0.40346   0.00000  Uiso   1.00
O304   O     0.42380   0.44310   0.06891   0.00000  Uiso   1.00
O305   O     0.55619   0.43632   0.35104   0.00000  Uiso   1.00
O306   O     0.53823   0.56107   0.25001   0.00000  Uiso   1.00
O307   O     0.44280   0.50000   0.32681   0.00000  Uiso   1.00
O308   O     0.51924   0.49999   0.32681   0.00000  Uiso   1.00
O309   O     0.46177   0.43893   0.25000   0.00000  Uiso   1.00
O310   O     0.53821   0.43892   0.25000   0.00000  Uiso   1.00
O311   O     0.48076   0.50001   0.17319   0.00000  Uiso   1.00
O312   O     0.55720   0.50000   0.17319   0.00000  Uiso   1.00
O313   O     0.62351   0.50938   0.08379   0.00000  Uiso   1.00
Zn314  Zn    0.44896   0.50001   0.25000   0.00000  Uiso   1.00
Zn315  Zn    0.55104   0.49999   0.25000   0.00000  Uiso   1.00
C316   C     0.83343   0.58003   0.25037   0.00000  Uiso   1.00
C317   C     0.79590   0.47159   0.40399   0.00000  Uiso   1.00
C318   C     0.86953   0.64621   0.26414   0.00000  Uiso   1.00
C319   C     0.80849   0.49051   0.34945   0.00000  Uiso   1.00
C320   C     0.86912   0.35540   0.26386   0.00000  Uiso   1.00
C321   C     0.83301   0.37594   0.25045   0.00000  Uiso   1.00
C322   C     0.79706   0.35424   0.23739   0.00000  Uiso   1.00
C323   C     0.79739   0.64498   0.23744   0.00000  Uiso   1.00
C324   C     0.83361   0.62427   0.25071   0.00000  Uiso   1.00
C325   C     0.98582   0.47698   0.21282   0.00000  Uiso   1.00
C326   C     0.70036   0.47711   0.21277   0.00000  Uiso   1.00
C327   C     0.81803   0.46724   0.48599   0.00000  Uiso   1.00
C328   C     0.68120   0.52235   0.28759   0.00000  Uiso   1.00
C329   C     0.96695   0.52292   0.28767   0.00000  Uiso   1.00
C330   C     0.83322   0.42003   0.24991   0.00000  Uiso   1.00
C331   C     0.85920   0.50210   0.14767   0.00000  Uiso   1.00
C332   C     0.93608   0.49541   0.00111   0.00000  Uiso   1.00
C333   C     0.87480   0.50259   0.08806   0.00000  Uiso   1.00
C334   C     0.74933   0.45943   0.43193   0.00000  Uiso   1.00
C335   C     0.73740   0.45036   0.48752   0.00000  Uiso   1.00
C336   C     0.77075   0.45518   0.01534   0.00000  Uiso   1.00
C337   C     0.83126   0.46551   0.42932   0.00000  Uiso   1.00
C338   C     0.85293   0.48044   0.00970   0.00000  Uiso   1.00
C339   C     0.90156   0.48044   0.47827   0.00000  Uiso   1.00
C340   C     0.91422   0.46620   0.42436   0.00000  Uiso   1.00
C341   C     0.87900   0.45686   0.40041   0.00000  Uiso   1.00
C342   C     0.84042   0.49892   0.06111   0.00000  Uiso   1.00
C343   C     0.92322   0.50226   0.05776   0.00000  Uiso   1.00
F344   F     0.97315   0.45365   0.17566   0.00000  Uiso   1.00
F345   F     0.96031   0.46209   0.39443   0.00000  Uiso   1.00
F346   F     0.90460   0.62694   0.27810   0.00000  Uiso   1.00
H347   H     0.89692   0.37213   0.27443   0.00000  Uiso   1.00
H348   H     0.79782   0.54028   0.10430   0.00000  Uiso   1.00
H349   H     0.69069   0.43632   0.42631   0.00000  Uiso   1.00
H350   H     0.78564   0.43404   0.07794   0.00000  Uiso   1.00
H351   H     0.92401   0.43106   0.33671   0.00000  Uiso   1.00
H352   H     0.76914   0.37006   0.22659   0.00000  Uiso   1.00
H353   H     0.76963   0.62837   0.22665   0.00000  Uiso   1.00
H354   H     0.72626   0.45874   0.18299   0.00000  Uiso   1.00
H355   H     0.69177   0.54032   0.31750   0.00000  Uiso   1.00
H356   H     0.70213   0.43938   0.00931   0.00000  Uiso   1.00
H357   H     0.98708   0.49649   0.06239   0.00000  Uiso   1.00
H358   H     0.90827   0.55228   0.31605   0.00000  Uiso   1.00
H359   H     0.99576   0.52569   0.48518   0.00000  Uiso   1.00
N360   N     0.71426   0.50001   0.25002   0.00000  Uiso   1.00
N361   N     0.95239   0.49998   0.25001   0.00000  Uiso   1.00
O362   O     0.79512   0.56108   0.25001   0.00000  Uiso   1.00
O363   O     0.93650   0.54705   0.32695   0.00000  Uiso   1.00
O364   O     0.98103   0.50440   0.46754   0.00000  Uiso   1.00
O365   O     0.79550   0.51525   0.08263   0.00000  Uiso   1.00
O366   O     0.71754   0.45301   0.40346   0.00000  Uiso   1.00
O367   O     0.75713   0.44310   0.06891   0.00000  Uiso   1.00
O368   O     0.88953   0.43632   0.35104   0.00000  Uiso   1.00
O369   O     0.87157   0.56107   0.25001   0.00000  Uiso   1.00
O370   O     0.77613   0.50000   0.32681   0.00000  Uiso   1.00
O371   O     0.85258   0.49999   0.32681   0.00000  Uiso   1.00
O372   O     0.79510   0.43893   0.25000   0.00000  Uiso   1.00
O373   O     0.87154   0.43892   0.25000   0.00000  Uiso   1.00
O374   O     0.81409   0.50001   0.17319   0.00000  Uiso   1.00
O375   O     0.89053   0.50000   0.17319   0.00000  Uiso   1.00
O376   O     0.95684   0.50938   0.08379   0.00000  Uiso   1.00
Zn377  Zn    0.78229   0.50001   0.25000   0.00000  Uiso   1.00
Zn378  Zn    0.88438   0.49999   0.25000   0.00000  Uiso   1.00
C379   C     0.16676   0.91336   0.25037   0.00000  Uiso   1.00
C380   C     0.12923   0.80493   0.40399   0.00000  Uiso   1.00
C381   C     0.20286   0.97954   0.26414   0.00000  Uiso   1.00
C382   C     0.14182   0.82384   0.34945   0.00000  Uiso   1.00
C383   C     0.20245   0.68874   0.26386   0.00000  Uiso   1.00
C384   C     0.16635   0.70928   0.25045   0.00000  Uiso   1.00
C385   C     0.13039   0.68757   0.23739   0.00000  Uiso   1.00
C386   C     0.13073   0.97831   0.23744   0.00000  Uiso   1.00
C387   C     0.16695   0.95761   0.25071   0.00000  Uiso   1.00
C388   C     0.31915   0.81031   0.21282   0.00000  Uiso   1.00
C389   C     0.03369   0.81045   0.21277   0.00000  Uiso   1.00
C390   C     0.15136   0.80057   0.48599   0.00000  Uiso   1.00
C391   C     0.01454   0.85568   0.28759   0.00000  Uiso   1.00
C392   C     0.30028   0.85625   0.28767   0.00000  Uiso   1.00
C393   C     0.16655   0.75337   0.24991   0.00000  Uiso   1.00
C394   C     0.19253   0.83543   0.14767   0.00000  Uiso   1.00
C395   C     0.26942   0.82874   0.00111   0.00000  Uiso   1.00
C396   C     0.20814   0.83592   0.08806   0.00000  Uiso   1.00
C397   C     0.08266   0.79276   0.43193   0.00000  Uiso   1.00
C398   C     0.07074   0.78369   0.48752   0.00000  Uiso   1.00
C399   C     0.10408   0.78852   0.01534   0.00000  Uiso   1.00
C400   C     0.16459   0.79884   0.42932   0.00000  Uiso   1.00
C401   C     0.18626   0.81378   0.00970   0.00000  Uiso   1.00
C402   C     0.23489   0.81378   0.47827   0.00000  Uiso   1.00
C403   C     0.24755   0.79954   0.42436   0.00000  Uiso   1.00
C404   C     0.21233   0.79019   0.40041   0.00000  Uiso   1.00
C405   C     0.17375   0.83225   0.06111   0.00000  Uiso   1.00
C406   C     0.25655   0.83559   0.05776   0.00000  Uiso   1.00
F407   F     0.30648   0.78699   0.17566   0.00000  Uiso   1.00
F408   F     0.29365   0.79542   0.39443   0.00000  Uiso   1.00
F409   F     0.23794   0.96027   0.27810   0.00000  Uiso   1.00
H410   H     0.23026   0.70546   0.27443   0.00000  Uiso   1.00
H411   H     0.13115   0.87362   0.10430   0.00000  Uiso   1.00
H412   H     0.02403   0.76965   0.42631   0.00000  Uiso   1.00
H413   H     0.11897   0.76737   0.07794   0.00000  Uiso   1.00
H414   H     0.25734   0.76440   0.33671   0.00000  Uiso   1.00
H415   H     0.10247   0.70339   0.22659   0.00000  Uiso   1.00
H416   H     0.10296   0.96170   0.22665   0.00000  Uiso   1.00
H417   H     0.05959   0.79207   0.18299   0.00000  Uiso   1.00
H418   H     0.02511   0.87365   0.31750   0.00000  Uiso   1.00
H419   H     0.03546   0.77271   0.00931   0.00000  Uiso   1.00
H420   H     0.32041   0.82983   0.06239   0.00000  Uiso   1.00
H421   H     0.24161   0.88561   0.31605   0.00000  Uiso   1.00
H422   H     0.32909   0.85902   0.48518   0.00000  Uiso   1.00
N423   N     0.04760   0.83334   0.25002   0.00000  Uiso   1.00
N424   N     0.28573   0.83331   0.25001   0.00000  Uiso   1.00
O425   O     0.12846   0.89442   0.25001   0.00000  Uiso   1.00
O426   O     0.26983   0.88038   0.32695   0.00000  Uiso   1.00
O427   O     0.31437   0.83773   0.46754   0.00000  Uiso   1.00
O428   O     0.12883   0.84858   0.08263   0.00000  Uiso   1.00
O429   O     0.05088   0.78635   0.40346   0.00000  Uiso   1.00
O430   O     0.09046   0.77643   0.06891   0.00000  Uiso   1.00
O431   O     0.22286   0.76965   0.35104   0.00000  Uiso   1.00
O432   O     0.20490   0.89441   0.25001   0.00000  Uiso   1.00
O433   O     0.10947   0.83333   0.32681   0.00000  Uiso   1.00
O434   O     0.18591   0.83332   0.32681   0.00000  Uiso   1.00
O435   O     0.12843   0.77226   0.25000   0.00000  Uiso   1.00
O436   O     0.20488   0.77225   0.25000   0.00000  Uiso   1.00
O437   O     0.14742   0.83335   0.17319   0.00000  Uiso   1.00
O438   O     0.22387   0.83334   0.17319   0.00000  Uiso   1.00
O439   O     0.29018   0.84272   0.08379   0.00000  Uiso   1.00
Zn440  Zn    0.11562   0.83334   0.25000   0.00000  Uiso   1.00
Zn441  Zn    0.21771   0.83333   0.25000   0.00000  Uiso   1.00
C442   C     0.50010   0.91336   0.25037   0.00000  Uiso   1.00
C443   C     0.46256   0.80493   0.40399   0.00000  Uiso   1.00
C444   C     0.53619   0.97954   0.26414   0.00000  Uiso   1.00
C445   C     0.47516   0.82384   0.34945   0.00000  Uiso   1.00
C446   C     0.53579   0.68874   0.26386   0.00000  Uiso   1.00
C447   C     0.49968   0.70928   0.25045   0.00000  Uiso   1.00
C448   C     0.46372   0.68757   0.23739   0.00000  Uiso   1.00
C449   C     0.46406   0.97831   0.23744   0.00000  Uiso   1.00
C450   C     0.50028   0.95761   0.25071   0.00000  Uiso   1.00
C451   C     0.65248   0.81031   0.21282   0.00000  Uiso   1.00
C452   C     0.36702   0.81045   0.21277   0.00000  Uiso   1.00
C453   C     0.48470   0.80057   0.48599   0.00000  Uiso   1.00
C454   C     0.34787   0.85568   0.28759   0.00000  Uiso   1.00
C455   C     0.63362   0.85625   0.28767   0.00000  Uiso   1.00
C456   C     0.49988   0.75337   0.24991   0.00000  Uiso   1.00
C457   C     0.52587   0.83543   0.14767   0.00000  Uiso   1.00
C458   C     0.60275   0.82874   0.00111   0.00000  Uiso   1.00
C459   C     0.54147   0.83592   0.08806   0.00000  Uiso   1.00
C460   C     0.41599   0.79276   0.43193   0.00000  Uiso   1.00
C461   C     0.40407   0.78369   0.48752   0.00000  Uiso   1.00
C462   C     0.43741   0.78852   0.01534   0.00000  Uiso   1.00
C463   C     0.49793   0.79884   0.42932   0.00000  Uiso   1.00
C464   C     0.51960   0.81378   0.00970   0.00000  Uiso   1.00
C465   C     0.56822   0.81378   0.47827   0.00000  Uiso   1.00
C466   C     0.58088   0.79954   0.42436   0.00000  Uiso   1.00
C467   C     0.54566   0.79019   0.40041   0.00000  Uiso   1.00
C468   C     0.50708   0.83225   0.06111   0.00000  Uiso   1.00
C469   C     0.58989   0.83559   0.05776   0.00000  Uiso   1.00
F470   F     0.63982   0.78699   0.17566   0.00000  Uiso   1.00
F471   F     0.62698   0.79542   0.39443   0.00000  Uiso   1.00
F472   F     0.57127   0.96027   0.27810   0.00000  Uiso   1.00
H473   H     0.56359   0.70546   0.27443   0.00000  Uiso   1.00
H474   H     0.46449   0.87362   0.10430   0.00000  Uiso   1.00
H475   H     0.35736   0.76965   0.42631   0.00000  Uiso   1.00
H476   H     0.45230   0.76737   0.07794   0.00000  Uiso   1.00
H477   H     0.59068   0.76440   0.33671   0.00000  Uiso   1.00
H478   H     0.43581   0.70339   0.22659   0.00000  Uiso   1.00
H479   H     0.43629   0.96170   0.22665   0.00000  Uiso   1.00
H480   H     0.39293   0.79207   0.18299   0.00000  Uiso   1.00
H481   H     0.35844   0.87365   0.31750   0.00000  Uiso   1.00
H482   H     0.36880   0.77271   0.00931   0.00000  Uiso   1.00
H483   H     0.65375   0.82983   0.06239   0.00000  Uiso   1.00
H484   H     0.57494   0.88561   0.31605   0.00000  Uiso   1.00
H485   H     0.66243   0.85902   0.48518   0.00000  Uiso   1.00
N486   N     0.38093   0.83334   0.25002   0.00000  Uiso   1.00
N487   N     0.61906   0.83331   0.25001   0.00000  Uiso   1.00
O488   O     0.46179   0.89442   0.25001   0.00000  Uiso   1.00
O489   O     0.60317   0.88038   0.32695   0.00000  Uiso   1.00
O490   O     0.64770   0.83773   0.46754   0.00000  Uiso   1.00
O491   O     0.46217   0.84858   0.08263   0.00000  Uiso   1.00
O492   O     0.38421   0.78635   0.40346   0.00000  Uiso   1.00
O493   O     0.42380   0.77643   0.06891   0.00000  Uiso   1.00
O494   O     0.55619   0.76965   0.35104   0.00000  Uiso   1.00
O495   O     0.53823   0.89441   0.25001   0.00000  Uiso   1.00
O496   O     0.44280   0.83333   0.32681   0.00000  Uiso   1.00
O497   O     0.51924   0.83332   0.32681   0.00000  Uiso   1.00
O498   O     0.46177   0.77226   0.25000   0.00000  Uiso   1.00
O499   O     0.53821   0.77225   0.25000   0.00000  Uiso   1.00
O500   O     0.48076   0.83335   0.17319   0.00000  Uiso   1.00
O501   O     0.55720   0.83334   0.17319   0.00000  Uiso   1.00
O502   O     0.62351   0.84272   0.08379   0.00000  Uiso   1.00
Zn503  Zn    0.44896   0.83334   0.25000   0.00000  Uiso   1.00
Zn504  Zn    0.55104   0.83333   0.25000   0.00000  Uiso   1.00
C505   C     0.83343   0.91336   0.25037   0.00000  Uiso   1.00
C506   C     0.79590   0.80493   0.40399   0.00000  Uiso   1.00
C507   C     0.86953   0.97954   0.26414   0.00000  Uiso   1.00
C508   C     0.80849   0.82384   0.34945   0.00000  Uiso   1.00
C509   C     0.86912   0.68874   0.26386   0.00000  Uiso   1.00
C510   C     0.83301   0.70928   0.25045   0.00000  Uiso   1.00
C511   C     0.79706   0.68757   0.23739   0.00000  Uiso   1.00
C512   C     0.79739   0.97831   0.23744   0.00000  Uiso   1.00
C513   C     0.83361   0.95761   0.25071   0.00000  Uiso   1.00
C514   C     0.98582   0.81031   0.21282   0.00000  Uiso   1.00
C515   C     0.70036   0.81045   0.21277   0.00000  Uiso   1.00
C516   C     0.81803   0.80057   0.48599   0.00000  Uiso   1.00
C517   C     0.68120   0.85568   0.28759   0.00000  Uiso   1.00
C518   C     0.96695   0.85625   0.28767   0.00000  Uiso   1.00
C519   C     0.83322   0.75337   0.24991   0.00000  Uiso   1.00
C520   C     0.85920   0.83543   0.14767   0.00000  Uiso   1.00
C521   C     0.93608   0.82874   0.00111   0.00000  Uiso   1.00
C522   C     0.87480   0.83592   0.08806   0.00000  Uiso   1.00
C523   C     0.74933   0.79276   0.43193   0.00000  Uiso   1.00
C524   C     0.73740   0.78369   0.48752   0.00000  Uiso   1.00
C525   C     0.77075   0.78852   0.01534   0.00000  Uiso   1.00
C526   C     0.83126   0.79884   0.42932   0.00000  Uiso   1.00
C527   C     0.85293   0.81378   0.00970   0.00000  Uiso   1.00
C528   C     0.90156   0.81378   0.47827   0.00000  Uiso   1.00
C529   C     0.91422   0.79954   0.42436   0.00000  Uiso   1.00
C530   C     0.87900   0.79019   0.40041   0.00000  Uiso   1.00
C531   C     0.84042   0.83225   0.06111   0.00000  Uiso   1.00
C532   C     0.92322   0.83559   0.05776   0.00000  Uiso   1.00
F533   F     0.97315   0.78699   0.17566   0.00000  Uiso   1.00
F534   F     0.96031   0.79542   0.39443   0.00000  Uiso   1.00
F535   F     0.90460   0.96027   0.27810   0.00000  Uiso   1.00
H536   H     0.89692   0.70546   0.27443   0.00000  Uiso   1.00
H537   H     0.79782   0.87362   0.10430   0.00000  Uiso   1.00
H538   H     0.69069   0.76965   0.42631   0.00000  Uiso   1.00
H539   H     0.78564   0.76737   0.07794   0.00000  Uiso   1.00
H540   H     0.92401   0.76440   0.33671   0.00000  Uiso   1.00
H541   H     0.76914   0.70339   0.22659   0.00000  Uiso   1.00
H542   H     0.76963   0.96170   0.22665   0.00000  Uiso   1.00
H543   H     0.72626   0.79207   0.18299   0.00000  Uiso   1.00
H544   H     0.69177   0.87365   0.31750   0.00000  Uiso   1.00
H545   H     0.70213   0.77271   0.00931   0.00000  Uiso   1.00
H546   H     0.98708   0.82983   0.06239   0.00000  Uiso   1.00
H547   H     0.90827   0.88561   0.31605   0.00000  Uiso   1.00
H548   H     0.99576   0.85902   0.48518   0.00000  Uiso   1.00
N549   N     0.71426   0.83334   0.25002   0.00000  Uiso   1.00
N550   N     0.95239   0.83331   0.25001   0.00000  Uiso   1.00
O551   O     0.79512   0.89442   0.25001   0.00000  Uiso   1.00
O552   O     0.93650   0.88038   0.32695   0.00000  Uiso   1.00
O553   O     0.98103   0.83773   0.46754   0.00000  Uiso   1.00
O554   O     0.79550   0.84858   0.08263   0.00000  Uiso   1.00
O555   O     0.71754   0.78635   0.40346   0.00000  Uiso   1.00
O556   O     0.75713   0.77643   0.06891   0.00000  Uiso   1.00
O557   O     0.88953   0.76965   0.35104   0.00000  Uiso   1.00
O558   O     0.87157   0.89441   0.25001   0.00000  Uiso   1.00
O559   O     0.77613   0.83333   0.32681   0.00000  Uiso   1.00
O560   O     0.85258   0.83332   0.32681   0.00000  Uiso   1.00
O561   O     0.79510   0.77226   0.25000   0.00000  Uiso   1.00
O562   O     0.87154   0.77225   0.25000   0.00000  Uiso   1.00
O563   O     0.81409   0.83335   0.17319   0.00000  Uiso   1.00
O564   O     0.89053   0.83334   0.17319   0.00000  Uiso   1.00
O565   O     0.95684   0.84272   0.08379   0.00000  Uiso   1.00
Zn566  Zn    0.78229   0.83334   0.25000   0.00000  Uiso   1.00
Zn567  Zn    0.88438   0.83333   0.25000   0.00000  Uiso   1.00
C568   C     0.16676   0.24669   0.75037   0.00000  Uiso   1.00
C569   C     0.12923   0.13826   0.90399   0.00000  Uiso   1.00
C570   C     0.20286   0.31287   0.76414   0.00000  Uiso   1.00
C571   C     0.14182   0.15717   0.84945   0.00000  Uiso   1.00
C572   C     0.20245   0.02207   0.76386   0.00000  Uiso   1.00
C573   C     0.16635   0.04261   0.75045   0.00000  Uiso   1.00
C574   C     0.13039   0.02091   0.73739   0.00000  Uiso   1.00
C575   C     0.13073   0.31164   0.73744   0.00000  Uiso   1.00
C576   C     0.16695   0.29094   0.75071   0.00000  Uiso   1.00
C577   C     0.31915   0.14364   0.71282   0.00000  Uiso   1.00
C578   C     0.03369   0.14378   0.71277   0.00000  Uiso   1.00
C579   C     0.15136   0.13390   0.98599   0.00000  Uiso   1.00
C580   C     0.01454   0.18901   0.78759   0.00000  Uiso   1.00
C581   C     0.30028   0.18959   0.78767   0.00000  Uiso   1.00
C582   C     0.16655   0.08670   0.74991   0.00000  Uiso   1.00
C583   C     0.19253   0.16877   0.64767   0.00000  Uiso   1.00
C584   C     0.26942   0.16208   0.50111   0.00000  Uiso   1.00
C585   C     0.20814   0.16925   0.58806   0.00000  Uiso   1.00
C586   C     0.08266   0.12609   0.93193   0.00000  Uiso   1.00
C587   C     0.07074   0.11703   0.98752   0.00000  Uiso   1.00
C588   C     0.10408   0.12185   0.51534   0.00000  Uiso   1.00
C589   C     0.16459   0.13218   0.92932   0.00000  Uiso   1.00
C590   C     0.18626   0.14711   0.50970   0.00000  Uiso   1.00
C591   C     0.23489   0.14711   0.97827   0.00000  Uiso   1.00
C592   C     0.24755   0.13287   0.92436   0.00000  Uiso   1.00
C593   C     0.21233   0.12353   0.90041   0.00000  Uiso   1.00
C594   C     0.17375   0.16558   0.56111   0.00000  Uiso   1.00
C595   C     0.25655   0.16892   0.55776   0.00000  Uiso   1.00
F596   F     0.30648   0.12032   0.67566   0.00000  Uiso   1.00
F597   F     0.29365   0.12875   0.89443   0.00000  Uiso   1.00
F598   F     0.23794   0.29361   0.77810   0.00000  Uiso   1.00
H599   H     0.23026   0.03879   0.77443   0.00000  Uiso   1.00
H600   H     0.13115   0.20695   0.60430   0.00000  Uiso   1.00
H601   H     0.02403   0.10299   0.92631   0.00000  Uiso   1.00
H602   H     0.11897   0.10070   0.57794   0.00000  Uiso   1.00
H603   H     0.25734   0.09773   0.83671   0.00000  Uiso   1.00
H604   H     0.10247   0.03673   0.72659   0.00000  Uiso   1.00
H605   H     0.10296   0.29503   0.72665   0.00000  Uiso   1.00
H606   H     0.05959   0.12541   0.68299   0.00000  Uiso   1.00
H607   H     0.02511   0.20699   0.81750   0.00000  Uiso   1.00
H608   H     0.03546   0.10605   0.50931   0.00000  Uiso   1.00
H609   H     0.32041   0.16316   0.56239   0.00000  Uiso   1.00
H610   H     0.24161   0.21895   0.81605   0.00000  Uiso   1.00
H611   H     0.32909   0.19235   0.98518   0.00000  Uiso   1.00
N612   N     0.04760   0.16668   0.75002   0.00000  Uiso   1.00
N613   N     0.28573   0.16665   0.75001   0.00000  Uiso   1.00
O614   O     0.12846   0.22775   0.75001   0.00000  Uiso   1.00
O615   O     0.26983   0.21372   0.82695   0.00000  Uiso   1.00
O616   O     0.31437   0.17106   0.96754   0.00000  Uiso   1.00
O617   O     0.12883   0.18192   0.58263   0.00000  Uiso   1.00
O618   O     0.05088   0.11968   0.90346   0.00000  Uiso   1.00
O619   O     0.09046   0.10977   0.56891   0.00000  Uiso   1.00
O620   O     0.22286   0.10298   0.85104   0.00000  Uiso   1.00
O621   O     0.20490   0.22774   0.75001   0.00000  Uiso   1.00
O622   O     0.10947   0.16666   0.82681   0.00000  Uiso   1.00
O623   O     0.18591   0.16665   0.82681   0.00000  Uiso   1.00
O624   O     0.12843   0.10559   0.75000   0.00000  Uiso   1.00
O625   O     0.20488   0.10558   0.75000   0.00000  Uiso   1.00
O626   O     0.14742   0.16668   0.67319   0.00000  Uiso   1.00
O627   O     0.22387   0.16667   0.67319   0.00000  Uiso   1.00
O628   O     0.29018   0.17605   0.58379   0.00000  Uiso   1.00
Zn629  Zn    0.11562   0.16667   0.75000   0.00000  Uiso   1.00
Zn630  Zn    0.21771   0.16666   0.75000   0.00000  Uiso   1.00
C631   C     0.50010   0.24669   0.75037   0.00000  Uiso   1.00
C632   C     0.46256   0.13826   0.90399   0.00000  Uiso   1.00
C633   C     0.53619   0.31287   0.76414   0.00000  Uiso   1.00
C634   C     0.47516   0.15717   0.84945   0.00000  Uiso   1.00
C635   C     0.53579   0.02207   0.76386   0.00000  Uiso   1.00
C636   C     0.49968   0.04261   0.75045   0.00000  Uiso   1.00
C637   C     0.46372   0.02091   0.73739   0.00000  Uiso   1.00
C638   C     0.46406   0.31164   0.73744   0.00000  Uiso   1.00
C639   C     0.50028   0.29094   0.75071   0.00000  Uiso   1.00
C640   C     0.65248   0.14364   0.71282   0.00000  Uiso   1.00
C641   C     0.36702   0.14378   0.71277   0.00000  Uiso   1.00
C642   C     0.48470   0.13390   0.98599   0.00000  Uiso   1.00
C643   C     0.34787   0.18901   0.78759   0.00000  Uiso   1.00
C644   C     0.63362   0.18959   0.78767   0.00000  Uiso   1.00
C645   C     0.49988   0.08670   0.74991   0.00000  Uiso   1.00
C646   C     0.52587   0.16877   0.64767   0.00000  Uiso   1.00
C647   C     0.60275   0.16208   0.50111   0.00000  Uiso   1.00
C648   C     0.54147   0.16925   0.58806   0.00000  Uiso   1.00
C649   C     0.41599   0.12609   0.93193   0.00000  Uiso   1.00
C650   C     0.40407   0.11703   0.98752   0.00000  Uiso   1.00
C651   C     0.43741   0.12185   0.51534   0.00000  Uiso   1.00
C652   C     0.49793   0.13218   0.92932   0.00000  Uiso   1.00
C653   C     0.51960   0.14711   0.50970   0.00000  Uiso   1.00
C654   C     0.56822   0.14711   0.97827   0.00000  Uiso   1.00
C655   C     0.58088   0.13287   0.92436   0.00000  Uiso   1.00
C656   C     0.54566   0.12353   0.90041   0.00000  Uiso   1.00
C657   C     0.50708   0.16558   0.56111   0.00000  Uiso   1.00
C658   C     0.58989   0.16892   0.55776   0.00000  Uiso   1.00
F659   F     0.63982   0.12032   0.67566   0.00000  Uiso   1.00
F660   F     0.62698   0.12875   0.89443   0.00000  Uiso   1.00
F661   F     0.57127   0.29361   0.77810   0.00000  Uiso   1.00
H662   H     0.56359   0.03879   0.77443   0.00000  Uiso   1.00
H663   H     0.46449   0.20695   0.60430   0.00000  Uiso   1.00
H664   H     0.35736   0.10299   0.92631   0.00000  Uiso   1.00
H665   H     0.45230   0.10070   0.57794   0.00000  Uiso   1.00
H666   H     0.59068   0.09773   0.83671   0.00000  Uiso   1.00
H667   H     0.43581   0.03673   0.72659   0.00000  Uiso   1.00
H668   H     0.43629   0.29503   0.72665   0.00000  Uiso   1.00
H669   H     0.39293   0.12541   0.68299   0.00000  Uiso   1.00
H670   H     0.35844   0.20699   0.81750   0.00000  Uiso   1.00
H671   H     0.36880   0.10605   0.50931   0.00000  Uiso   1.00
H672   H     0.65375   0.16316   0.56239   0.00000  Uiso   1.00
H673   H     0.57494   0.21895   0.81605   0.00000  Uiso   1.00
H674   H     0.66243   0.19235   0.98518   0.00000  Uiso   1.00
N675   N     0.38093   0.16668   0.75002   0.00000  Uiso   1.00
N676   N     0.61906   0.16665   0.75001   0.00000  Uiso   1.00
O677   O     0.46179   0.22775   0.75001   0.00000  Uiso   1.00
O678   O     0.60317   0.21372   0.82695   0.00000  Uiso   1.00
O679   O     0.64770   0.17106   0.96754   0.00000  Uiso   1.00
O680   O     0.46217   0.18192   0.58263   0.00000  Uiso   1.00
O681   O     0.38421   0.11968   0.90346   0.00000  Uiso   1.00
O682   O     0.42380   0.10977   0.56891   0.00000  Uiso   1.00
O683   O     0.55619   0.10298   0.85104   0.00000  Uiso   1.00
O684   O     0.53823   0.22774   0.75001   0.00000  Uiso   1.00
O685   O     0.44280   0.16666   0.82681   0.00000  Uiso   1.00
O686   O     0.51924   0.16665   0.82681   0.00000  Uiso   1.00
O687   O     0.46177   0.10559   0.75000   0.00000  Uiso   1.00
O688   O     0.53821   0.10558   0.75000   0.00000  Uiso   1.00
O689   O     0.48076   0.16668   0.67319   0.00000  Uiso   1.00
O690   O     0.55720   0.16667   0.67319   0.00000  Uiso   1.00
O691   O     0.62351   0.17605   0.58379   0.00000  Uiso   1.00
Zn692  Zn    0.44896   0.16667   0.75000   0.00000  Uiso   1.00
Zn693  Zn    0.55104   0.16666   0.75000   0.00000  Uiso   1.00
C694   C     0.83343   0.24669   0.75037   0.00000  Uiso   1.00
C695   C     0.79590   0.13826   0.90399   0.00000  Uiso   1.00
C696   C     0.86953   0.31287   0.76414   0.00000  Uiso   1.00
C697   C     0.80849   0.15717   0.84945   0.00000  Uiso   1.00
C698   C     0.86912   0.02207   0.76386   0.00000  Uiso   1.00
C699   C     0.83301   0.04261   0.75045   0.00000  Uiso   1.00
C700   C     0.79706   0.02091   0.73739   0.00000  Uiso   1.00
C701   C     0.79739   0.31164   0.73744   0.00000  Uiso   1.00
C702   C     0.83361   0.29094   0.75071   0.00000  Uiso   1.00
C703   C     0.98582   0.14364   0.71282   0.00000  Uiso   1.00
C704   C     0.70036   0.14378   0.71277   0.00000  Uiso   1.00
C705   C     0.81803   0.13390   0.98599   0.00000  Uiso   1.00
C706   C     0.68120   0.18901   0.78759   0.00000  Uiso   1.00
C707   C     0.96695   0.18959   0.78767   0.00000  Uiso   1.00
C708   C     0.83322   0.08670   0.74991   0.00000  Uiso   1.00
C709   C     0.85920   0.16877   0.64767   0.00000  Uiso   1.00
C710   C     0.93608   0.16208   0.50111   0.00000  Uiso   1.00
C711   C     0.87480   0.16925   0.58806   0.00000  Uiso   1.00
C712   C     0.74933   0.12609   0.93193   0.00000  Uiso   1.00
C713   C     0.73740   0.11703   0.98752   0.00000  Uiso   1.00
C714   C     0.77075   0.12185   0.51534   0.00000  Uiso   1.00
C715   C     0.83126   0.13218   0.92932   0.00000  Uiso   1.00
C716   C     0.85293   0.14711   0.50970   0.00000  Uiso   1.00
C717   C     0.90156   0.14711   0.97827   0.00000  Uiso   1.00
C718   C     0.91422   0.13287   0.92436   0.00000  Uiso   1.00
C719   C     0.87900   0.12353   0.90041   0.00000  Uiso   1.00
C720   C     0.84042   0.16558   0.56111   0.00000  Uiso   1.00
C721   C     0.92322   0.16892   0.55776   0.00000  Uiso   1.00
F722   F     0.97315   0.12032   0.67566   0.00000  Uiso   1.00
F723   F     0.96031   0.12875   0.89443   0.00000  Uiso   1.00
F724   F     0.90460   0.29361   0.77810   0.00000  Uiso   1.00
H725   H     0.89692   0.03879   0.77443   0.00000  Uiso   1.00
H726   H     0.79782   0.20695   0.60430   0.00000  Uiso   1.00
H727   H     0.69069   0.10299   0.92631   0.00000  Uiso   1.00
H728   H     0.78564   0.10070   0.57794   0.00000  Uiso   1.00
H729   H     0.92401   0.09773   0.83671   0.00000  Uiso   1.00
H730   H     0.76914   0.03673   0.72659   0.00000  Uiso   1.00
H731   H     0.76963   0.29503   0.72665   0.00000  Uiso   1.00
H732   H     0.72626   0.12541   0.68299   0.00000  Uiso   1.00
H733   H     0.69177   0.20699   0.81750   0.00000  Uiso   1.00
H734   H     0.70213   0.10605   0.50931   0.00000  Uiso   1.00
H735   H     0.98708   0.16316   0.56239   0.00000  Uiso   1.00
H736   H     0.90827   0.21895   0.81605   0.00000  Uiso   1.00
H737   H     0.99576   0.19235   0.98518   0.00000  Uiso   1.00
N738   N     0.71426   0.16668   0.75002   0.00000  Uiso   1.00
N739   N     0.95239   0.16665   0.75001   0.00000  Uiso   1.00
O740   O     0.79512   0.22775   0.75001   0.00000  Uiso   1.00
O741   O     0.93650   0.21372   0.82695   0.00000  Uiso   1.00
O742   O     0.98103   0.17106   0.96754   0.00000  Uiso   1.00
O743   O     0.79550   0.18192   0.58263   0.00000  Uiso   1.00
O744   O     0.71754   0.11968   0.90346   0.00000  Uiso   1.00
O745   O     0.75713   0.10977   0.56891   0.00000  Uiso   1.00
O746   O     0.88953   0.10298   0.85104   0.00000  Uiso   1.00
O747   O     0.87157   0.22774   0.75001   0.00000  Uiso   1.00
O748   O     0.77613   0.16666   0.82681   0.00000  Uiso   1.00
O749   O     0.85258   0.16665   0.82681   0.00000  Uiso   1.00
O750   O     0.79510   0.10559   0.75000   0.00000  Uiso   1.00
O751   O     0.87154   0.10558   0.75000   0.00000  Uiso   1.00
O752   O     0.81409   0.16668   0.67319   0.00000  Uiso   1.00
O753   O     0.89053   0.16667   0.67319   0.00000  Uiso   1.00
O754   O     0.95684   0.17605   0.58379   0.00000  Uiso   1.00
Zn755  Zn    0.78229   0.16667   0.75000   0.00000  Uiso   1.00
Zn756  Zn    0.88438   0.16666   0.75000   0.00000  Uiso   1.00
C757   C     0.16676   0.58003   0.75037   0.00000  Uiso   1.00
C758   C     0.12923   0.47159   0.90399   0.00000  Uiso   1.00
C759   C     0.20286   0.64621   0.76414   0.00000  Uiso   1.00
C760   C     0.14182   0.49051   0.84945   0.00000  Uiso   1.00
C761   C     0.20245   0.35540   0.76386   0.00000  Uiso   1.00
C762   C     0.16635   0.37594   0.75045   0.00000  Uiso   1.00
C763   C     0.13039   0.35424   0.73739   0.00000  Uiso   1.00
C764   C     0.13073   0.64498   0.73744   0.00000  Uiso   1.00
C765   C     0.16695   0.62427   0.75071   0.00000  Uiso   1.00
C766   C     0.31915   0.47698   0.71282   0.00000  Uiso   1.00
C767   C     0.03369   0.47711   0.71277   0.00000  Uiso   1.00
C768   C     0.15136   0.46724   0.98599   0.00000  Uiso   1.00
C769   C     0.01454   0.52235   0.78759   0.00000  Uiso   1.00
C770   C     0.30028   0.52292   0.78767   0.00000  Uiso   1.00
C771   C     0.16655   0.42003   0.74991   0.00000  Uiso   1.00
C772   C     0.19253   0.50210   0.64767   0.00000  Uiso   1.00
C773   C     0.26942   0.49541   0.50111   0.00000  Uiso   1.00
C774   C     0.20814   0.50259   0.58806   0.00000  Uiso   1.00
C775   C     0.08266   0.45943   0.93193   0.00000  Uiso   1.00
C776   C     0.07074   0.45036   0.98752   0.00000  Uiso   1.00
C777   C     0.10408   0.45518   0.51534   0.00000  Uiso   1.00
C778   C     0.16459   0.46551   0.92932   0.00000  Uiso   1.00
C779   C     0.18626   0.48044   0.50970   0.00000  Uiso   1.00
C780   C     0.23489   0.48044   0.97827   0.00000  Uiso   1.00
C781   C     0.24755   0.46620   0.92436   0.00000  Uiso   1.00
C782   C     0.21233   0.45686   0.90041   0.00000  Uiso   1.00
C783   C     0.17375   0.49892   0.56111   0.00000  Uiso   1.00
C784   C     0.25655   0.50226   0.55776   0.00000  Uiso   1.00
F785   F     0.30648   0.45365   0.67566   0.00000  Uiso   1.00
F786   F     0.29365   0.46209   0.89443   0.00000  Uiso   1.00
F787   F     0.23794   0.62694   0.77810   0.00000  Uiso   1.00
H788   H     0.23026   0.37213   0.77443   0.00000  Uiso   1.00
H789   H     0.13115   0.54028   0.60430   0.00000  Uiso   1.00
H790   H     0.02403   0.43632   0.92631   0.00000  Uiso   1.00
H791   H     0.11897   0.43404   0.57794   0.00000  Uiso   1.00
H792   H     0.25734   0.43106   0.83671   0.00000  Uiso   1.00
H793   H     0.10247   0.37006   0.72659   0.00000  Uiso   1.00
H794   H     0.10296   0.62837   0.72665   0.00000  Uiso   1.00
H795   H     0.05959   0.45874   0.68299   0.00000  Uiso   1.00
H796   H     0.02511   0.54032   0.81750   0.00000  Uiso   1.00
H797   H     0.03546   0.43938   0.50931   0.00000  Uiso   1.00
H798   H     0.32041   0.49649   0.56239   0.00000  Uiso   1.00
H799   H     0.24161   0.55228   0.81605   0.00000  Uiso   1.00
H800   H     0.32909   0.52569   0.98518   0.00000  Uiso   1.00
N801   N     0.04760   0.50001   0.75002   0.00000  Uiso   1.00
N802   N     0.28573   0.49998   0.75001   0.00000  Uiso   1.00
O803   O     0.12846   0.56108   0.75001   0.00000  Uiso   1.00
O804   O     0.26983   0.54705   0.82695   0.00000  Uiso   1.00
O805   O     0.31437   0.50440   0.96754   0.00000  Uiso   1.00
O806   O     0.12883   0.51525   0.58263   0.00000  Uiso   1.00
O807   O     0.05088   0.45301   0.90346   0.00000  Uiso   1.00
O808   O     0.09046   0.44310   0.56891   0.00000  Uiso   1.00
O809   O     0.22286   0.43632   0.85104   0.00000  Uiso   1.00
O810   O     0.20490   0.56107   0.75001   0.00000  Uiso   1.00
O811   O     0.10947   0.50000   0.82681   0.00000  Uiso   1.00
O812   O     0.18591   0.49999   0.82681   0.00000  Uiso   1.00
O813   O     0.12843   0.43893   0.75000   0.00000  Uiso   1.00
O814   O     0.20488   0.43892   0.75000   0.00000  Uiso   1.00
O815   O     0.14742   0.50001   0.67319   0.00000  Uiso   1.00
O816   O     0.22387   0.50000   0.67319   0.00000  Uiso   1.00
O817   O     0.29018   0.50938   0.58379   0.00000  Uiso   1.00
Zn818  Zn    0.11562   0.50001   0.75000   0.00000  Uiso   1.00
Zn819  Zn    0.21771   0.49999   0.75000   0.00000  Uiso   1.00
C820   C     0.50010   0.58003   0.75037   0.00000  Uiso   1.00
C821   C     0.46256   0.47159   0.90399   0.00000  Uiso   1.00
C822   C     0.53619   0.64621   0.76414   0.00000  Uiso   1.00
C823   C     0.47516   0.49051   0.84945   0.00000  Uiso   1.00
C824   C     0.53579   0.35540   0.76386   0.00000  Uiso   1.00
C825   C     0.49968   0.37594   0.75045   0.00000  Uiso   1.00
C826   C     0.46372   0.35424   0.73739   0.00000  Uiso   1.00
C827   C     0.46406   0.64498   0.73744   0.00000  Uiso   1.00
C828   C     0.50028   0.62427   0.75071   0.00000  Uiso   1.00
C829   C     0.65248   0.47698   0.71282   0.00000  Uiso   1.00
C830   C     0.36702   0.47711   0.71277   0.00000  Uiso   1.00
C831   C     0.48470   0.46724   0.98599   0.00000  Uiso   1.00
C832   C     0.34787   0.52235   0.78759   0.00000  Uiso   1.00
C833   C     0.63362   0.52292   0.78767   0.00000  Uiso   1.00
C834   C     0.49988   0.42003   0.74991   0.00000  Uiso   1.00
C835   C     0.52587   0.50210   0.64767   0.00000  Uiso   1.00
C836   C     0.60275   0.49541   0.50111   0.00000  Uiso   1.00
C837   C     0.54147   0.50259   0.58806   0.00000  Uiso   1.00
C838   C     0.41599   0.45943   0.93193   0.00000  Uiso   1.00
C839   C     0.40407   0.45036   0.98752   0.00000  Uiso   1.00
C840   C     0.43741   0.45518   0.51534   0.00000  Uiso   1.00
C841   C     0.49793   0.46551   0.92932   0.00000  Uiso   1.00
C842   C     0.51960   0.48044   0.50970   0.00000  Uiso   1.00
C843   C     0.56822   0.48044   0.97827   0.00000  Uiso   1.00
C844   C     0.58088   0.46620   0.92436   0.00000  Uiso   1.00
C845   C     0.54566   0.45686   0.90041   0.00000  Uiso   1.00
C846   C     0.50708   0.49892   0.56111   0.00000  Uiso   1.00
C847   C     0.58989   0.50226   0.55776   0.00000  Uiso   1.00
F848   F     0.63982   0.45365   0.67566   0.00000  Uiso   1.00
F849   F     0.62698   0.46209   0.89443   0.00000  Uiso   1.00
F850   F     0.57127   0.62694   0.77810   0.00000  Uiso   1.00
H851   H     0.56359   0.37213   0.77443   0.00000  Uiso   1.00
H852   H     0.46449   0.54028   0.60430   0.00000  Uiso   1.00
H853   H     0.35736   0.43632   0.92631   0.00000  Uiso   1.00
H854   H     0.45230   0.43404   0.57794   0.00000  Uiso   1.00
H855   H     0.59068   0.43106   0.83671   0.00000  Uiso   1.00
H856   H     0.43581   0.37006   0.72659   0.00000  Uiso   1.00
H857   H     0.43629   0.62837   0.72665   0.00000  Uiso   1.00
H858   H     0.39293   0.45874   0.68299   0.00000  Uiso   1.00
H859   H     0.35844   0.54032   0.81750   0.00000  Uiso   1.00
H860   H     0.36880   0.43938   0.50931   0.00000  Uiso   1.00
H861   H     0.65375   0.49649   0.56239   0.00000  Uiso   1.00
H862   H     0.57494   0.55228   0.81605   0.00000  Uiso   1.00
H863   H     0.66243   0.52569   0.98518   0.00000  Uiso   1.00
N864   N     0.38093   0.50001   0.75002   0.00000  Uiso   1.00
N865   N     0.61906   0.49998   0.75001   0.00000  Uiso   1.00
O866   O     0.46179   0.56108   0.75001   0.00000  Uiso   1.00
O867   O     0.60317   0.54705   0.82695   0.00000  Uiso   1.00
O868   O     0.64770   0.50440   0.96754   0.00000  Uiso   1.00
O869   O     0.46217   0.51525   0.58263   0.00000  Uiso   1.00
O870   O     0.38421   0.45301   0.90346   0.00000  Uiso   1.00
O871   O     0.42380   0.44310   0.56891   0.00000  Uiso   1.00
O872   O     0.55619   0.43632   0.85104   0.00000  Uiso   1.00
O873   O     0.53823   0.56107   0.75001   0.00000  Uiso   1.00
O874   O     0.44280   0.50000   0.82681   0.00000  Uiso   1.00
O875   O     0.51924   0.49999   0.82681   0.00000  Uiso   1.00
O876   O     0.46177   0.43893   0.75000   0.00000  Uiso   1.00
O877   O     0.53821   0.43892   0.75000   0.00000  Uiso   1.00
O878   O     0.48076   0.50001   0.67319   0.00000  Uiso   1.00
O879   O     0.55720   0.50000   0.67319   0.00000  Uiso   1.00
O880   O     0.62351   0.50938   0.58379   0.00000  Uiso   1.00
Zn881  Zn    0.44896   0.50001   0.75000   0.00000  Uiso   1.00
Zn882  Zn    0.55104   0.49999   0.75000   0.00000  Uiso   1.00
C883   C     0.83343   0.58003   0.75037   0.00000  Uiso   1.00
C884   C     0.79590   0.47159   0.90399   0.00000  Uiso   1.00
C885   C     0.86953   0.64621   0.76414   0.00000  Uiso   1.00
C886   C     0.80849   0.49051   0.84945   0.00000  Uiso   1.00
C887   C     0.86912   0.35540   0.76386   0.00000  Uiso   1.00
C888   C     0.83301   0.37594   0.75045   0.00000  Uiso   1.00
C889   C     0.79706   0.35424   0.73739   0.00000  Uiso   1.00
C890   C     0.79739   0.64498   0.73744   0.00000  Uiso   1.00
C891   C     0.83361   0.62427   0.75071   0.00000  Uiso   1.00
C892   C     0.98582   0.47698   0.71282   0.00000  Uiso   1.00
C893   C     0.70036   0.47711   0.71277   0.00000  Uiso   1.00
C894   C     0.81803   0.46724   0.98599   0.00000  Uiso   1.00
C895   C     0.68120   0.52235   0.78759   0.00000  Uiso   1.00
C896   C     0.96695   0.52292   0.78767   0.00000  Uiso   1.00
C897   C     0.83322   0.42003   0.74991   0.00000  Uiso   1.00
C898   C     0.85920   0.50210   0.64767   0.00000  Uiso   1.00
C899   C     0.93608   0.49541   0.50111   0.00000  Uiso   1.00
C900   C     0.87480   0.50259   0.58806   0.00000  Uiso   1.00
C901   C     0.74933   0.45943   0.93193   0.00000  Uiso   1.00
C902   C     0.73740   0.45036   0.98752   0.00000  Uiso   1.00
C903   C     0.77075   0.45518   0.51534   0.00000  Uiso   1.00
C904   C     0.83126   0.46551   0.92932   0.00000  Uiso   1.00
C905   C     0.85293   0.48044   0.50970   0.00000  Uiso   1.00
C906   C     0.90156   0.48044   0.97827   0.00000  Uiso   1.00
C907   C     0.91422   0.46620   0.92436   0.00000  Uiso   1.00
C908   C     0.87900   0.45686   0.90041   0.00000  Uiso   1.00
C909   C     0.84042   0.49892   0.56111   0.00000  Uiso   1.00
C910   C     0.92322   0.50226   0.55776   0.00000  Uiso   1.00
F911   F     0.97315   0.45365   0.67566   0.00000  Uiso   1.00
F912   F     0.96031   0.46209   0.89443   0.00000  Uiso   1.00
F913   F     0.90460   0.62694   0.77810   0.00000  Uiso   1.00
H914   H     0.89692   0.37213   0.77443   0.00000  Uiso   1.00
H915   H     0.79782   0.54028   0.60430   0.00000  Uiso   1.00
H916   H     0.69069   0.43632   0.92631   0.00000  Uiso   1.00
H917   H     0.78564   0.43404   0.57794   0.00000  Uiso   1.00
H918   H     0.92401   0.43106   0.83671   0.00000  Uiso   1.00
H919   H     0.76914   0.37006   0.72659   0.00000  Uiso   1.00
H920   H     0.76963   0.62837   0.72665   0.00000  Uiso   1.00
H921   H     0.72626   0.45874   0.68299   0.00000  Uiso   1.00
H922   H     0.69177   0.54032   0.81750   0.00000  Uiso   1.00
H923   H     0.70213   0.43938   0.50931   0.00000  Uiso   1.00
H924   H     0.98708   0.49649   0.56239   0.00000  Uiso   1.00
H925   H     0.90827   0.55228   0.81605   0.00000  Uiso   1.00
H926   H     0.99576   0.52569   0.98518   0.00000  Uiso   1.00
N927   N     0.71426   0.50001   0.75002   0.00000  Uiso   1.00
N928   N     0.95239   0.49998   0.75001   0.00000  Uiso   1.00
O929   O     0.79512   0.56108   0.75001   0.00000  Uiso   1.00
O930   O     0.93650   0.54705   0.82695   0.00000  Uiso   1.00
O931   O     0.98103   0.50440   0.96754   0.00000  Uiso   1.00
O932   O     0.79550   0.51525   0.58263   0.00000  Uiso   1.00
O933   O     0.71754   0.45301   0.90346   0.00000  Uiso   1.00
O934   O     0.75713   0.44310   0.56891   0.00000  Uiso   1.00
O935   O     0.88953   0.43632   0.85104   0.00000  Uiso   1.00
O936   O     0.87157   0.56107   0.75001   0.00000  Uiso   1.00
O937   O     0.77613   0.50000   0.82681   0.00000  Uiso   1.00
O938   O     0.85258   0.49999   0.82681   0.00000  Uiso   1.00
O939   O     0.79510   0.43893   0.75000   0.00000  Uiso   1.00
O940   O     0.87154   0.43892   0.75000   0.00000  Uiso   1.00
O941   O     0.81409   0.50001   0.67319   0.00000  Uiso   1.00
O942   O     0.89053   0.50000   0.67319   0.00000  Uiso   1.00
O943   O     0.95684   0.50938   0.58379   0.00000  Uiso   1.00
Zn944  Zn    0.78229   0.50001   0.75000   0.00000  Uiso   1.00
Zn945  Zn    0.88438   0.49999   0.75000   0.00000  Uiso   1.00
C946   C     0.16676   0.91336   0.75037   0.00000  Uiso   1.00
C947   C     0.12923   0.80493   0.90399   0.00000  Uiso   1.00
C948   C     0.20286   0.97954   0.76414   0.00000  Uiso   1.00
C949   C     0.14182   0.82384   0.84945   0.00000  Uiso   1.00
C950   C     0.20245   0.68874   0.76386   0.00000  Uiso   1.00
C951   C     0.16635   0.70928   0.75045   0.00000  Uiso   1.00
C952   C     0.13039   0.68757   0.73739   0.00000  Uiso   1.00
C953   C     0.13073   0.97831   0.73744   0.00000  Uiso   1.00
C954   C     0.16695   0.95761   0.75071   0.00000  Uiso   1.00
C955   C     0.31915   0.81031   0.71282   0.00000  Uiso   1.00
C956   C     0.03369   0.81045   0.71277   0.00000  Uiso   1.00
C957   C     0.15136   0.80057   0.98599   0.00000  Uiso   1.00
C958   C     0.01454   0.85568   0.78759   0.00000  Uiso   1.00
C959   C     0.30028   0.85625   0.78767   0.00000  Uiso   1.00
C960   C     0.16655   0.75337   0.74991   0.00000  Uiso   1.00
C961   C     0.19253   0.83543   0.64767   0.00000  Uiso   1.00
C962   C     0.26942   0.82874   0.50111   0.00000  Uiso   1.00
C963   C     0.20814   0.83592   0.58806   0.00000  Uiso   1.00
C964   C     0.08266   0.79276   0.93193   0.00000  Uiso   1.00
C965   C     0.07074   0.78369   0.98752   0.00000  Uiso   1.00
C966   C     0.10408   0.78852   0.51534   0.00000  Uiso   1.00
C967   C     0.16459   0.79884   0.92932   0.00000  Uiso   1.00
C968   C     0.18626   0.81378   0.50970   0.00000  Uiso   1.00
C969   C     0.23489   0.81378   0.97827   0.00000  Uiso   1.00
C970   C     0.24755   0.79954   0.92436   0.00000  Uiso   1.00
C971   C     0.21233   0.79019   0.90041   0.00000  Uiso   1.00
C972   C     0.17375   0.83225   0.56111   0.00000  Uiso   1.00
C973   C     0.25655   0.83559   0.55776   0.00000  Uiso   1.00
F974   F     0.30648   0.78699   0.67566   0.00000  Uiso   1.00
F975   F     0.29365   0.79542   0.89443   0.00000  Uiso   1.00
F976   F     0.23794   0.96027   0.77810   0.00000  Uiso   1.00
H977   H     0.23026   0.70546   0.77443   0.00000  Uiso   1.00
H978   H     0.13115   0.87362   0.60430   0.00000  Uiso   1.00
H979   H     0.02403   0.76965   0.92631   0.00000  Uiso   1.00
H980   H     0.11897   0.76737   0.57794   0.00000  Uiso   1.00
H981   H     0.25734   0.76440   0.83671   0.00000  Uiso   1.00
H982   H     0.10247   0.70339   0.72659   0.00000  Uiso   1.00
H983   H     0.10296   0.96170   0.72665   0.00000  Uiso   1.00
H984   H     0.05959   0.79207   0.68299   0.00000  Uiso   1.00
H985   H     0.02511   0.87365   0.81750   0.00000  Uiso   1.00
H986   H     0.03546   0.77271   0.50931   0.00000  Uiso   1.00
H987   H     0.32041   0.82983   0.56239   0.00000  Uiso   1.00
H988   H     0.24161   0.88561   0.81605   0.00000  Uiso   1.00
H989   H     0.32909   0.85902   0.98518   0.00000  Uiso   1.00
N990   N     0.04760   0.83334   0.75002   0.00000  Uiso   1.00
N991   N     0.28573   0.83331   0.75001   0.00000  Uiso   1.00
O992   O     0.12846   0.89442   0.75001   0.00000  Uiso   1.00
O993   O     0.26983   0.88038   0.82695   0.00000  Uiso   1.00
O994   O     0.31437   0.83773   0.96754   0.00000  Uiso   1.00
O995   O     0.12883   0.84858   0.58263   0.00000  Uiso   1.00
O996   O     0.05088   0.78635   0.90346   0.00000  Uiso   1.00
O997   O     0.09046   0.77643   0.56891   0.00000  Uiso   1.00
O998   O     0.22286   0.76965   0.85104   0.00000  Uiso   1.00
O999   O     0.20490   0.89441   0.75001   0.00000  Uiso   1.00
O1000  O     0.10947   0.83333   0.82681   0.00000  Uiso   1.00
O1001  O     0.18591   0.83332   0.82681   0.00000  Uiso   1.00
O1002  O     0.12843   0.77226   0.75000   0.00000  Uiso   1.00
O1003  O     0.20488   0.77225   0.75000   0.00000  Uiso   1.00
O1004  O     0.14742   0.83335   0.67319   0.00000  Uiso   1.00
O1005  O     0.22387   0.83334   0.67319   0.00000  Uiso   1.00
O1006  O     0.29018   0.84272   0.58379   0.00000  Uiso   1.00
Zn1007 Zn    0.11562   0.83334   0.75000   0.00000  Uiso   1.00
Zn1008 Zn    0.21771   0.83333   0.75000   0.00000  Uiso   1.00
C1009  C     0.50010   0.91336   0.75037   0.00000  Uiso   1.00
C1010  C     0.46256   0.80493   0.90399   0.00000  Uiso   1.00
C1011  C     0.53619   0.97954   0.76414   0.00000  Uiso   1.00
C1012  C     0.47516   0.82384   0.84945   0.00000  Uiso   1.00
C1013  C     0.53579   0.68874   0.76386   0.00000  Uiso   1.00
C1014  C     0.49968   0.70928   0.75045   0.00000  Uiso   1.00
C1015  C     0.46372   0.68757   0.73739   0.00000  Uiso   1.00
C1016  C     0.46406   0.97831   0.73744   0.00000  Uiso   1.00
C1017  C     0.50028   0.95761   0.75071   0.00000  Uiso   1.00
C1018  C     0.65248   0.81031   0.71282   0.00000  Uiso   1.00
C1019  C     0.36702   0.81045   0.71277   0.00000  Uiso   1.00
C1020  C     0.48470   0.80057   0.98599   0.00000  Uiso   1.00
C1021  C     0.34787   0.85568   0.78759   0.00000  Uiso   1.00
C1022  C     0.63362   0.85625   0.78767   0.00000  Uiso   1.00
C1023  C     0.49988   0.75337   0.74991   0.00000  Uiso   1.00
C1024  C     0.52587   0.83543   0.64767   0.00000  Uiso   1.00
C1025  C     0.60275   0.82874   0.50111   0.00000  Uiso   1.00
C1026  C     0.54147   0.83592   0.58806   0.00000  Uiso   1.00
C1027  C     0.41599   0.79276   0.93193   0.00000  Uiso   1.00
C1028  C     0.40407   0.78369   0.98752   0.00000  Uiso   1.00
C1029  C     0.43741   0.78852   0.51534   0.00000  Uiso   1.00
C1030  C     0.49793   0.79884   0.92932   0.00000  Uiso   1.00
C1031  C     0.51960   0.81378   0.50970   0.00000  Uiso   1.00
C1032  C     0.56822   0.81378   0.97827   0.00000  Uiso   1.00
C1033  C     0.58088   0.79954   0.92436   0.00000  Uiso   1.00
C1034  C     0.54566   0.79019   0.90041   0.00000  Uiso   1.00
C1035  C     0.50708   0.83225   0.56111   0.00000  Uiso   1.00
C1036  C     0.58989   0.83559   0.55776   0.00000  Uiso   1.00
F1037  F     0.63982   0.78699   0.67566   0.00000  Uiso   1.00
F1038  F     0.62698   0.79542   0.89443   0.00000  Uiso   1.00
F1039  F     0.57127   0.96027   0.77810   0.00000  Uiso   1.00
H1040  H     0.56359   0.70546   0.77443   0.00000  Uiso   1.00
H1041  H     0.46449   0.87362   0.60430   0.00000  Uiso   1.00
H1042  H     0.35736   0.76965   0.92631   0.00000  Uiso   1.00
H1043  H     0.45230   0.76737   0.57794   0.00000  Uiso   1.00
H1044  H     0.59068   0.76440   0.83671   0.00000  Uiso   1.00
H1045  H     0.43581   0.70339   0.72659   0.00000  Uiso   1.00
H1046  H     0.43629   0.96170   0.72665   0.00000  Uiso   1.00
H1047  H     0.39293   0.79207   0.68299   0.00000  Uiso   1.00
H1048  H     0.35844   0.87365   0.81750   0.00000  Uiso   1.00
H1049  H     0.36880   0.77271   0.50931   0.00000  Uiso   1.00
H1050  H     0.65375   0.82983   0.56239   0.00000  Uiso   1.00
H1051  H     0.57494   0.88561   0.81605   0.00000  Uiso   1.00
H1052  H     0.66243   0.85902   0.98518   0.00000  Uiso   1.00
N1053  N     0.38093   0.83334   0.75002   0.00000  Uiso   1.00
N1054  N     0.61906   0.83331   0.75001   0.00000  Uiso   1.00
O1055  O     0.46179   0.89442   0.75001   0.00000  Uiso   1.00
O1056  O     0.60317   0.88038   0.82695   0.00000  Uiso   1.00
O1057  O     0.64770   0.83773   0.96754   0.00000  Uiso   1.00
O1058  O     0.46217   0.84858   0.58263   0.00000  Uiso   1.00
O1059  O     0.38421   0.78635   0.90346   0.00000  Uiso   1.00
O1060  O     0.42380   0.77643   0.56891   0.00000  Uiso   1.00
O1061  O     0.55619   0.76965   0.85104   0.00000  Uiso   1.00
O1062  O     0.53823   0.89441   0.75001   0.00000  Uiso   1.00
O1063  O     0.44280   0.83333   0.82681   0.00000  Uiso   1.00
O1064  O     0.51924   0.83332   0.82681   0.00000  Uiso   1.00
O1065  O     0.46177   0.77226   0.75000   0.00000  Uiso   1.00
O1066  O     0.53821   0.77225   0.75000   0.00000  Uiso   1.00
O1067  O     0.48076   0.83335   0.67319   0.00000  Uiso   1.00
O1068  O     0.55720   0.83334   0.67319   0.00000  Uiso   1.00
O1069  O     0.62351   0.84272   0.58379   0.00000  Uiso   1.00
Zn1070 Zn    0.44896   0.83334   0.75000   0.00000  Uiso   1.00
Zn1071 Zn    0.55104   0.83333   0.75000   0.00000  Uiso   1.00
C1072  C     0.83343   0.91336   0.75037   0.00000  Uiso   1.00
C1073  C     0.79590   0.80493   0.90399   0.00000  Uiso   1.00
C1074  C     0.86953   0.97954   0.76414   0.00000  Uiso   1.00
C1075  C     0.80849   0.82384   0.84945   0.00000  Uiso   1.00
C1076  C     0.86912   0.68874   0.76386   0.00000  Uiso   1.00
C1077  C     0.83301   0.70928   0.75045   0.00000  Uiso   1.00
C1078  C     0.79706   0.68757   0.73739   0.00000  Uiso   1.00
C1079  C     0.79739   0.97831   0.73744   0.00000  Uiso   1.00
C1080  C     0.83361   0.95761   0.75071   0.00000  Uiso   1.00
C1081  C     0.98582   0.81031   0.71282   0.00000  Uiso   1.00
C1082  C     0.70036   0.81045   0.71277   0.00000  Uiso   1.00
C1083  C     0.81803   0.80057   0.98599   0.00000  Uiso   1.00
C1084  C     0.68120   0.85568   0.78759   0.00000  Uiso   1.00
C1085  C     0.96695   0.85625   0.78767   0.00000  Uiso   1.00
C1086  C     0.83322   0.75337   0.74991   0.00000  Uiso   1.00
C1087  C     0.85920   0.83543   0.64767   0.00000  Uiso   1.00
C1088  C     0.93608   0.82874   0.50111   0.00000  Uiso   1.00
C1089  C     0.87480   0.83592   0.58806   0.00000  Uiso   1.00
C1090  C     0.74933   0.79276   0.93193   0.00000  Uiso   1.00
C1091  C     0.73740   0.78369   0.98752   0.00000  Uiso   1.00
C1092  C     0.77075   0.78852   0.51534   0.00000  Uiso   1.00
C1093  C     0.83126   0.79884   0.92932   0.00000  Uiso   1.00
C1094  C     0.85293   0.81378   0.50970   0.00000  Uiso   1.00
C1095  C     0.90156   0.81378   0.97827   0.00000  Uiso   1.00
C1096  C     0.91422   0.79954   0.92436   0.00000  Uiso   1.00
C1097  C     0.87900   0.79019   0.90041   0.00000  Uiso   1.00
C1098  C     0.84042   0.83225   0.56111   0.00000  Uiso   1.00
C1099  C     0.92322   0.83559   0.55776   0.00000  Uiso   1.00
F1100  F     0.97315   0.78699   0.67566   0.00000  Uiso   1.00
F1101  F     0.96031   0.79542   0.89443   0.00000  Uiso   1.00
F1102  F     0.90460   0.96027   0.77810   0.00000  Uiso   1.00
H1103  H     0.89692   0.70546   0.77443   0.00000  Uiso   1.00
H1104  H     0.79782   0.87362   0.60430   0.00000  Uiso   1.00
H1105  H     0.69069   0.76965   0.92631   0.00000  Uiso   1.00
H1106  H     0.78564   0.76737   0.57794   0.00000  Uiso   1.00
H1107  H     0.92401   0.76440   0.83671   0.00000  Uiso   1.00
H1108  H     0.76914   0.70339   0.72659   0.00000  Uiso   1.00
H1109  H     0.76963   0.96170   0.72665   0.00000  Uiso   1.00
H1110  H     0.72626   0.79207   0.68299   0.00000  Uiso   1.00
H1111  H     0.69177   0.87365   0.81750   0.00000  Uiso   1.00
H1112  H     0.70213   0.77271   0.50931   0.00000  Uiso   1.00
H1113  H     0.98708   0.82983   0.56239   0.00000  Uiso   1.00
H1114  H     0.90827   0.88561   0.81605   0.00000  Uiso   1.00
H1115  H     0.99576   0.85902   0.98518   0.00000  Uiso   1.00
N1116  N     0.71426   0.83334   0.75002   0.00000  Uiso   1.00
N1117  N     0.95239   0.83331   0.75001   0.00000  Uiso   1.00
O1118  O     0.79512   0.89442   0.75001   0.00000  Uiso   1.00
O1119  O     0.93650   0.88038   0.82695   0.00000  Uiso   1.00
O1120  O     0.98103   0.83773   0.96754   0.00000  Uiso   1.00
O1121  O     0.79550   0.84858   0.58263   0.00000  Uiso   1.00
O1122  O     0.71754   0.78635   0.90346   0.00000  Uiso   1.00
O1123  O     0.75713   0.77643   0.56891   0.00000  Uiso   1.00
O1124  O     0.88953   0.76965   0.85104   0.00000  Uiso   1.00
O1125  O     0.87157   0.89441   0.75001   0.00000  Uiso   1.00
O1126  O     0.77613   0.83333   0.82681   0.00000  Uiso   1.00
O1127  O     0.85258   0.83332   0.82681   0.00000  Uiso   1.00
O1128  O     0.79510   0.77226   0.75000   0.00000  Uiso   1.00
O1129  O     0.87154   0.77225   0.75000   0.00000  Uiso   1.00
O1130  O     0.81409   0.83335   0.67319   0.00000  Uiso   1.00
O1131  O     0.89053   0.83334   0.67319   0.00000  Uiso   1.00
O1132  O     0.95684   0.84272   0.58379   0.00000  Uiso   1.00
Zn1133 Zn    0.78229   0.83334   0.75000   0.00000  Uiso   1.00
Zn1134 Zn    0.88438   0.83333   0.75000   0.00000  Uiso   1.00
loop_
_geom_bond_atom_site_label_1
_geom_bond_atom_site_label_2
_geom_bond_distance
_geom_bond_site_symmetry_2
_ccdc_geom_bond_type
C1     O54     1.287   .     A
C1     C9      1.424   .     S
C1     O47     1.288   .     A
C2     C4      1.481   .     S
C2     C22     1.414   .     A
C2     C19     1.403   .     A
C3     C9      1.402   .     A
C3     F31     1.358   .     S
C3     C194    1.369   .     S
C4     O56     1.293   .     A
C4     O55     1.309   .     A
C5     H32     1.083   .     S
C5     C6      1.396   .     A
C5     C381    1.369   1_545 S
C6     C7      1.395   .     A
C6     C15     1.419   .     S
C7     H37     1.084   .     S
C7     C386    1.371   1_545 S
C8     H38     1.084   .     S
C8     C9      1.399   .     A
C8     C196    1.371   .     S
C10    N46     1.368   .     A
C10    F29     1.355   .     S
C10    C74     1.420   .     S
C11    H39     1.082   .     S
C11    N45     1.368   .     A
C11    C136    1.420   1_455 S
C12    C22     1.399   .     A
C12    C588    1.427   .     S
C12    C590    1.417   .     S
C13    N45     1.356   .     A
C13    H40     1.082   .     S
C13    C140    1.411   1_455 S
C14    N46     1.387   .     A
C14    O48     1.373   .     S
C14    C76     1.411   .     S
C15    O57     1.287   .     A
C15    O58     1.286   .     A
C16    C18     1.470   .     S
C16    O60     1.298   .     A
C16    O59     1.299   .     A
C17    C28     1.414   .     A
C17    C591    1.411   1_554 S
C17    O616    1.380   1_554 S
C18    C28     1.409   .     A
C18    C27     1.406   .     A
C19    C20     1.406   .     A
C19    O51     1.377   .     S
C20    C588    1.398   .     S
C20    H608    1.083   .     S
C21    O52     1.380   .     S
C21    C579    1.427   1_554 S
C21    C587    1.398   1_554 S
C22    C26     1.412   .     A
C23    C27     1.397   .     A
C23    C579    1.417   1_554 S
C23    C591    1.422   1_554 S
C24    C25     1.404   .     A
C24    C584    1.411   .     S
C24    C590    1.422   .     S
C25    C26     1.399   .     A
C25    F30     1.356   .     S
C26    O53     1.383   .     S
C27    O50     1.382   .     S
C28    O61     1.382   .     S
H33    O50     0.992   .     S
H34    O51     0.991   .     S
H35    O52     0.991   .     S
H36    O53     0.990   .     S
H41    C587    1.083   1_554 S
H42    O61     0.990   .     S
H43    O48     0.979   .     S
H44    O49     0.991   .     S
N45    Zn62    2.018   .     S
N46    Zn63    2.018   .     S
O47    Zn62    1.999   .     S
O49    C584    1.380   .     S
O54    Zn63    2.005   .     S
O55    Zn62    1.942   .     S
O56    Zn63    1.923   .     S
O57    Zn62    2.005   .     S
O58    Zn63    1.999   .     S
O59    Zn62    1.923   .     S
O60    Zn63    1.942   .     S
C64    O117    1.287   .     A
C64    C72     1.424   .     S
C64    O110    1.288   .     A
C65    C67     1.481   .     S
C65    C85     1.414   .     A
C65    C82     1.403   .     A
C66    C72     1.402   .     A
C66    F94     1.358   .     S
C66    C257    1.369   .     S
C67    O119    1.293   .     A
C67    O118    1.309   .     A
C68    H95     1.083   .     S
C68    C69     1.396   .     A
C68    C444    1.369   1_545 S
C69    C70     1.395   .     A
C69    C78     1.419   .     S
C70    H100    1.084   .     S
C70    C449    1.371   1_545 S
C71    H101    1.084   .     S
C71    C72     1.399   .     A
C71    C259    1.371   .     S
C73    N109    1.368   .     A
C73    F92     1.355   .     S
C73    C137    1.420   .     S
C74    H102    1.082   .     S
C74    N108    1.368   .     A
C75    C85     1.399   .     A
C75    C651    1.427   .     S
C75    C653    1.417   .     S
C76    N108    1.356   .     A
C76    H103    1.082   .     S
C77    N109    1.387   .     A
C77    O111    1.373   .     S
C77    C139    1.411   .     S
C78    O120    1.287   .     A
C78    O121    1.286   .     A
C79    C81     1.470   .     S
C79    O123    1.298   .     A
C79    O122    1.299   .     A
C80    C91     1.414   .     A
C80    C654    1.411   1_554 S
C80    O679    1.380   1_554 S
C81    C91     1.409   .     A
C81    C90     1.406   .     A
C82    C83     1.406   .     A
C82    O114    1.377   .     S
C83    C651    1.398   .     S
C83    H671    1.083   .     S
C84    O115    1.380   .     S
C84    C642    1.427   1_554 S
C84    C650    1.398   1_554 S
C85    C89     1.412   .     A
C86    C90     1.397   .     A
C86    C642    1.417   1_554 S
C86    C654    1.422   1_554 S
C87    C88     1.404   .     A
C87    C647    1.411   .     S
C87    C653    1.422   .     S
C88    C89     1.399   .     A
C88    F93     1.356   .     S
C89    O116    1.383   .     S
C90    O113    1.382   .     S
C91    O124    1.382   .     S
H96    O113    0.992   .     S
H97    O114    0.991   .     S
H98    O115    0.991   .     S
H99    O116    0.990   .     S
H104   C650    1.083   1_554 S
H105   O124    0.990   .     S
H106   O111    0.979   .     S
H107   O112    0.991   .     S
N108   Zn125   2.018   .     S
N109   Zn126   2.018   .     S
O110   Zn125   1.999   .     S
O112   C647    1.380   .     S
O117   Zn126   2.005   .     S
O118   Zn125   1.942   .     S
O119   Zn126   1.923   .     S
O120   Zn125   2.005   .     S
O121   Zn126   1.999   .     S
O122   Zn125   1.923   .     S
O123   Zn126   1.942   .     S
C127   O180    1.287   .     A
C127   C135    1.424   .     S
C127   O173    1.288   .     A
C128   C130    1.481   .     S
C128   C148    1.414   .     A
C128   C145    1.403   .     A
C129   C135    1.402   .     A
C129   F157    1.358   .     S
C129   C320    1.369   .     S
C130   O182    1.293   .     A
C130   O181    1.309   .     A
C131   H158    1.083   .     S
C131   C132    1.396   .     A
C131   C507    1.369   1_545 S
C132   C133    1.395   .     A
C132   C141    1.419   .     S
C133   H163    1.084   .     S
C133   C512    1.371   1_545 S
C134   H164    1.084   .     S
C134   C135    1.399   .     A
C134   C322    1.371   .     S
C136   N172    1.368   .     A
C136   F155    1.355   .     S
C136   C11     1.420   1_655 S
C137   H165    1.082   .     S
C137   N171    1.368   .     A
C138   C148    1.399   .     A
C138   C714    1.427   .     S
C138   C716    1.417   .     S
C139   N171    1.356   .     A
C139   H166    1.082   .     S
C140   N172    1.387   .     A
C140   O174    1.373   .     S
C140   C13     1.411   1_655 S
C141   O183    1.287   .     A
C141   O184    1.286   .     A
C142   C144    1.470   .     S
C142   O186    1.298   .     A
C142   O185    1.299   .     A
C143   C154    1.414   .     A
C143   C717    1.411   1_554 S
C143   O742    1.380   1_554 S
C144   C154    1.409   .     A
C144   C153    1.406   .     A
C145   C146    1.406   .     A
C145   O177    1.377   .     S
C146   C714    1.398   .     S
C146   H734    1.083   .     S
C147   O178    1.380   .     S
C147   C705    1.427   1_554 S
C147   C713    1.398   1_554 S
C148   C152    1.412   .     A
C149   C153    1.397   .     A
C149   C705    1.417   1_554 S
C149   C717    1.422   1_554 S
C150   C151    1.404   .     A
C150   C710    1.411   .     S
C150   C716    1.422   .     S
C151   C152    1.399   .     A
C151   F156    1.356   .     S
C152   O179    1.383   .     S
C153   O176    1.382   .     S
C154   O187    1.382   .     S
H159   O176    0.992   .     S
H160   O177    0.991   .     S
H161   O178    0.991   .     S
H162   O179    0.990   .     S
H167   C713    1.083   1_554 S
H168   O187    0.990   .     S
H169   O174    0.979   .     S
H170   O175    0.991   .     S
N171   Zn188   2.018   .     S
N172   Zn189   2.018   .     S
O173   Zn188   1.999   .     S
O175   C710    1.380   .     S
O180   Zn189   2.005   .     S
O181   Zn188   1.942   .     S
O182   Zn189   1.923   .     S
O183   Zn188   2.005   .     S
O184   Zn189   1.999   .     S
O185   Zn188   1.923   .     S
O186   Zn189   1.942   .     S
C190   O243    1.287   .     A
C190   C198    1.424   .     S
C190   O236    1.288   .     A
C191   C193    1.481   .     S
C191   C211    1.414   .     A
C191   C208    1.403   .     A
C192   C198    1.402   .     A
C192   F220    1.358   .     S
C192   C383    1.369   .     S
C193   O245    1.293   .     A
C193   O244    1.309   .     A
C194   H221    1.083   .     S
C194   C195    1.396   .     A
C195   C196    1.395   .     A
C195   C204    1.419   .     S
C196   H226    1.084   .     S
C197   H227    1.084   .     S
C197   C198    1.399   .     A
C197   C385    1.371   .     S
C199   N235    1.368   .     A
C199   F218    1.355   .     S
C199   C263    1.420   .     S
C200   H228    1.082   .     S
C200   N234    1.368   .     A
C200   C325    1.420   1_455 S
C201   C211    1.399   .     A
C201   C777    1.427   .     S
C201   C779    1.417   .     S
C202   N234    1.356   .     A
C202   H229    1.082   .     S
C202   C329    1.411   1_455 S
C203   N235    1.387   .     A
C203   O237    1.373   .     S
C203   C265    1.411   .     S
C204   O246    1.287   .     A
C204   O247    1.286   .     A
C205   C207    1.470   .     S
C205   O249    1.298   .     A
C205   O248    1.299   .     A
C206   C217    1.414   .     A
C206   C780    1.411   1_554 S
C206   O805    1.380   1_554 S
C207   C217    1.409   .     A
C207   C216    1.406   .     A
C208   C209    1.406   .     A
C208   O240    1.377   .     S
C209   C777    1.398   .     S
C209   H797    1.083   .     S
C210   O241    1.380   .     S
C210   C768    1.427   1_554 S
C210   C776    1.398   1_554 S
C211   C215    1.412   .     A
C212   C216    1.397   .     A
C212   C768    1.417   1_554 S
C212   C780    1.422   1_554 S
C213   C214    1.404   .     A
C213   C773    1.411   .     S
C213   C779    1.422   .     S
C214   C215    1.399   .     A
C214   F219    1.356   .     S
C215   O242    1.383   .     S
C216   O239    1.382   .     S
C217   O250    1.382   .     S
H222   O239    0.992   .     S
H223   O240    0.991   .     S
H224   O241    0.991   .     S
H225   O242    0.990   .     S
H230   C776    1.083   1_554 S
H231   O250    0.990   .     S
H232   O237    0.979   .     S
H233   O238    0.991   .     S
N234   Zn251   2.018   .     S
N235   Zn252   2.018   .     S
O236   Zn251   1.999   .     S
O238   C773    1.380   .     S
O243   Zn252   2.005   .     S
O244   Zn251   1.942   .     S
O245   Zn252   1.923   .     S
O246   Zn251   2.005   .     S
O247   Zn252   1.999   .     S
O248   Zn251   1.923   .     S
O249   Zn252   1.942   .     S
C253   O306    1.287   .     A
C253   C261    1.424   .     S
C253   O299    1.288   .     A
C254   C256    1.481   .     S
C254   C274    1.414   .     A
C254   C271    1.403   .     A
C255   C261    1.402   .     A
C255   F283    1.358   .     S
C255   C446    1.369   .     S
C256   O308    1.293   .     A
C256   O307    1.309   .     A
C257   H284    1.083   .     S
C257   C258    1.396   .     A
C258   C259    1.395   .     A
C258   C267    1.419   .     S
C259   H289    1.084   .     S
C260   H290    1.084   .     S
C260   C261    1.399   .     A
C260   C448    1.371   .     S
C262   N298    1.368   .     A
C262   F281    1.355   .     S
C262   C326    1.420   .     S
C263   H291    1.082   .     S
C263   N297    1.368   .     A
C264   C274    1.399   .     A
C264   C840    1.427   .     S
C264   C842    1.417   .     S
C265   N297    1.356   .     A
C265   H292    1.082   .     S
C266   N298    1.387   .     A
C266   O300    1.373   .     S
C266   C328    1.411   .     S
C267   O309    1.287   .     A
C267   O310    1.286   .     A
C268   C270    1.470   .     S
C268   O312    1.298   .     A
C268   O311    1.299   .     A
C269   C280    1.414   .     A
C269   C843    1.411   1_554 S
C269   O868    1.380   1_554 S
C270   C280    1.409   .     A
C270   C279    1.406   .     A
C271   C272    1.406   .     A
C271   O303    1.377   .     S
C272   C840    1.398   .     S
C272   H860    1.083   .     S
C273   O304    1.380   .     S
C273   C831    1.427   1_554 S
C273   C839    1.398   1_554 S
C274   C278    1.412   .     A
C275   C279    1.397   .     A
C275   C831    1.417   1_554 S
C275   C843    1.422   1_554 S
C276   C277    1.404   .     A
C276   C836    1.411   .     S
C276   C842    1.422   .     S
C277   C278    1.399   .     A
C277   F282    1.356   .     S
C278   O305    1.383   .     S
C279   O302    1.382   .     S
C280   O313    1.382   .     S
H285   O302    0.992   .     S
H286   O303    0.991   .     S
H287   O304    0.991   .     S
H288   O305    0.990   .     S
H293   C839    1.083   1_554 S
H294   O313    0.990   .     S
H295   O300    0.979   .     S
H296   O301    0.991   .     S
N297   Zn314   2.018   .     S
N298   Zn315   2.018   .     S
O299   Zn314   1.999   .     S
O301   C836    1.380   .     S
O306   Zn315   2.005   .     S
O307   Zn314   1.942   .     S
O308   Zn315   1.923   .     S
O309   Zn314   2.005   .     S
O310   Zn315   1.999   .     S
O311   Zn314   1.923   .     S
O312   Zn315   1.942   .     S
C316   O369    1.287   .     A
C316   C324    1.424   .     S
C316   O362    1.288   .     A
C317   C319    1.481   .     S
C317   C337    1.414   .     A
C317   C334    1.403   .     A
C318   C324    1.402   .     A
C318   F346    1.358   .     S
C318   C509    1.369   .     S
C319   O371    1.293   .     A
C319   O370    1.309   .     A
C320   H347    1.083   .     S
C320   C321    1.396   .     A
C321   C322    1.395   .     A
C321   C330    1.419   .     S
C322   H352    1.084   .     S
C323   H353    1.084   .     S
C323   C324    1.399   .     A
C323   C511    1.371   .     S
C325   N361    1.368   .     A
C325   F344    1.355   .     S
C325   C200    1.420   1_655 S
C326   H354    1.082   .     S
C326   N360    1.368   .     A
C327   C337    1.399   .     A
C327   C903    1.427   .     S
C327   C905    1.417   .     S
C328   N360    1.356   .     A
C328   H355    1.082   .     S
C329   N361    1.387   .     A
C329   O363    1.373   .     S
C329   C202    1.411   1_655 S
C330   O372    1.287   .     A
C330   O373    1.286   .     A
C331   C333    1.470   .     S
C331   O375    1.298   .     A
C331   O374    1.299   .     A
C332   C343    1.414   .     A
C332   C906    1.411   1_554 S
C332   O931    1.380   1_554 S
C333   C343    1.409   .     A
C333   C342    1.406   .     A
C334   C335    1.406   .     A
C334   O366    1.377   .     S
C335   C903    1.398   .     S
C335   H923    1.083   .     S
C336   O367    1.380   .     S
C336   C894    1.427   1_554 S
C336   C902    1.398   1_554 S
C337   C341    1.412   .     A
C338   C342    1.397   .     A
C338   C894    1.417   1_554 S
C338   C906    1.422   1_554 S
C339   C340    1.404   .     A
C339   C899    1.411   .     S
C339   C905    1.422   .     S
C340   C341    1.399   .     A
C340   F345    1.356   .     S
C341   O368    1.383   .     S
C342   O365    1.382   .     S
C343   O376    1.382   .     S
H348   O365    0.992   .     S
H349   O366    0.991   .     S
H350   O367    0.991   .     S
H351   O368    0.990   .     S
H356   C902    1.083   1_554 S
H357   O376    0.990   .     S
H358   O363    0.979   .     S
H359   O364    0.991   .     S
N360   Zn377   2.018   .     S
N361   Zn378   2.018   .     S
O362   Zn377   1.999   .     S
O364   C899    1.380   .     S
O369   Zn378   2.005   .     S
O370   Zn377   1.942   .     S
O371   Zn378   1.923   .     S
O372   Zn377   2.005   .     S
O373   Zn378   1.999   .     S
O374   Zn377   1.923   .     S
O375   Zn378   1.942   .     S
C379   O432    1.287   .     A
C379   C387    1.424   .     S
C379   O425    1.288   .     A
C380   C382    1.481   .     S
C380   C400    1.414   .     A
C380   C397    1.403   .     A
C381   C387    1.402   .     A
C381   F409    1.358   .     S
C381   C5      1.369   1_565 S
C382   O434    1.293   .     A
C382   O433    1.309   .     A
C383   H410    1.083   .     S
C383   C384    1.396   .     A
C384   C385    1.395   .     A
C384   C393    1.419   .     S
C385   H415    1.084   .     S
C386   H416    1.084   .     S
C386   C387    1.399   .     A
C386   C7      1.371   1_565 S
C388   N424    1.368   .     A
C388   F407    1.355   .     S
C388   C452    1.420   .     S
C389   H417    1.082   .     S
C389   N423    1.368   .     A
C389   C514    1.420   1_455 S
C390   C400    1.399   .     A
C390   C966    1.427   .     S
C390   C968    1.417   .     S
C391   N423    1.356   .     A
C391   H418    1.082   .     S
C391   C518    1.411   1_455 S
C392   N424    1.387   .     A
C392   O426    1.373   .     S
C392   C454    1.411   .     S
C393   O435    1.287   .     A
C393   O436    1.286   .     A
C394   C396    1.470   .     S
C394   O438    1.298   .     A
C394   O437    1.299   .     A
C395   C406    1.414   .     A
C395   C969    1.411   1_554 S
C395   O994    1.380   1_554 S
C396   C406    1.409   .     A
C396   C405    1.406   .     A
C397   C398    1.406   .     A
C397   O429    1.377   .     S
C398   C966    1.398   .     S
C398   H986    1.083   .     S
C399   O430    1.380   .     S
C399   C957    1.427   1_554 S
C399   C965    1.398   1_554 S
C400   C404    1.412   .     A
C401   C405    1.397   .     A
C401   C957    1.417   1_554 S
C401   C969    1.422   1_554 S
C402   C403    1.404   .     A
C402   C962    1.411   .     S
C402   C968    1.422   .     S
C403   C404    1.399   .     A
C403   F408    1.356   .     S
C404   O431    1.383   .     S
C405   O428    1.382   .     S
C406   O439    1.382   .     S
H411   O428    0.992   .     S
H412   O429    0.991   .     S
H413   O430    0.991   .     S
H414   O431    0.990   .     S
H419   C965    1.083   1_554 S
H420   O439    0.990   .     S
H421   O426    0.979   .     S
H422   O427    0.991   .     S
N423   Zn440   2.018   .     S
N424   Zn441   2.018   .     S
O425   Zn440   1.999   .     S
O427   C962    1.380   .     S
O432   Zn441   2.005   .     S
O433   Zn440   1.942   .     S
O434   Zn441   1.923   .     S
O435   Zn440   2.005   .     S
O436   Zn441   1.999   .     S
O437   Zn440   1.923   .     S
O438   Zn441   1.942   .     S
C442   O495    1.287   .     A
C442   C450    1.424   .     S
C442   O488    1.288   .     A
C443   C445    1.481   .     S
C443   C463    1.414   .     A
C443   C460    1.403   .     A
C444   C450    1.402   .     A
C444   F472    1.358   .     S
C444   C68     1.369   1_565 S
C445   O497    1.293   .     A
C445   O496    1.309   .     A
C446   H473    1.083   .     S
C446   C447    1.396   .     A
C447   C448    1.395   .     A
C447   C456    1.419   .     S
C448   H478    1.084   .     S
C449   H479    1.084   .     S
C449   C450    1.399   .     A
C449   C70     1.371   1_565 S
C451   N487    1.368   .     A
C451   F470    1.355   .     S
C451   C515    1.420   .     S
C452   H480    1.082   .     S
C452   N486    1.368   .     A
C453   C463    1.399   .     A
C453   C1029   1.427   .     S
C453   C1031   1.417   .     S
C454   N486    1.356   .     A
C454   H481    1.082   .     S
C455   N487    1.387   .     A
C455   O489    1.373   .     S
C455   C517    1.411   .     S
C456   O498    1.287   .     A
C456   O499    1.286   .     A
C457   C459    1.470   .     S
C457   O501    1.298   .     A
C457   O500    1.299   .     A
C458   C469    1.414   .     A
C458   C1032   1.411   1_554 S
C458   O1057   1.380   1_554 S
C459   C469    1.409   .     A
C459   C468    1.406   .     A
C460   C461    1.406   .     A
C460   O492    1.377   .     S
C461   C1029   1.398   .     S
C461   H1049   1.083   .     S
C462   O493    1.380   .     S
C462   C1020   1.427   1_554 S
C462   C1028   1.398   1_554 S
C463   C467    1.412   .     A
C464   C468    1.397   .     A
C464   C1020   1.417   1_554 S
C464   C1032   1.422   1_554 S
C465   C466    1.404   .     A
C465   C1025   1.411   .     S
C465   C1031   1.422   .     S
C466   C467    1.399   .     A
C466   F471    1.356   .     S
C467   O494    1.383   .     S
C468   O491    1.382   .     S
C469   O502    1.382   .     S
H474   O491    0.992   .     S
H475   O492    0.991   .     S
H476   O493    0.991   .     S
H477   O494    0.990   .     S
H482   C1028   1.083   1_554 S
H483   O502    0.990   .     S
H484   O489    0.979   .     S
H485   O490    0.991   .     S
N486   Zn503   2.018   .     S
N487   Zn504   2.018   .     S
O488   Zn503   1.999   .     S
O490   C1025   1.380   .     S
O495   Zn504   2.005   .     S
O496   Zn503   1.942   .     S
O497   Zn504   1.923   .     S
O498   Zn503   2.005   .     S
O499   Zn504   1.999   .     S
O500   Zn503   1.923   .     S
O501   Zn504   1.942   .     S
C505   O558    1.287   .     A
C505   C513    1.424   .     S
C505   O551    1.288   .     A
C506   C508    1.481   .     S
C506   C526    1.414   .     A
C506   C523    1.403   .     A
C507   C513    1.402   .     A
C507   F535    1.358   .     S
C507   C131    1.369   1_565 S
C508   O560    1.293   .     A
C508   O559    1.309   .     A
C509   H536    1.083   .     S
C509   C510    1.396   .     A
C510   C511    1.395   .     A
C510   C519    1.419   .     S
C511   H541    1.084   .     S
C512   H542    1.084   .     S
C512   C513    1.399   .     A
C512   C133    1.371   1_565 S
C514   N550    1.368   .     A
C514   F533    1.355   .     S
C514   C389    1.420   1_655 S
C515   H543    1.082   .     S
C515   N549    1.368   .     A
C516   C526    1.399   .     A
C516   C1092   1.427   .     S
C516   C1094   1.417   .     S
C517   N549    1.356   .     A
C517   H544    1.082   .     S
C518   N550    1.387   .     A
C518   O552    1.373   .     S
C518   C391    1.411   1_655 S
C519   O561    1.287   .     A
C519   O562    1.286   .     A
C520   C522    1.470   .     S
C520   O564    1.298   .     A
C520   O563    1.299   .     A
C521   C532    1.414   .     A
C521   C1095   1.411   1_554 S
C521   O1120   1.380   1_554 S
C522   C532    1.409   .     A
C522   C531    1.406   .     A
C523   C524    1.406   .     A
C523   O555    1.377   .     S
C524   C1092   1.398   .     S
C524   H1112   1.083   .     S
C525   O556    1.380   .     S
C525   C1083   1.427   1_554 S
C525   C1091   1.398   1_554 S
C526   C530    1.412   .     A
C527   C531    1.397   .     A
C527   C1083   1.417   1_554 S
C527   C1095   1.422   1_554 S
C528   C529    1.404   .     A
C528   C1088   1.411   .     S
C528   C1094   1.422   .     S
C529   C530    1.399   .     A
C529   F534    1.356   .     S
C530   O557    1.383   .     S
C531   O554    1.382   .     S
C532   O565    1.382   .     S
H537   O554    0.992   .     S
H538   O555    0.991   .     S
H539   O556    0.991   .     S
H540   O557    0.990   .     S
H545   C1091   1.083   1_554 S
H546   O565    0.990   .     S
H547   O552    0.979   .     S
H548   O553    0.991   .     S
N549   Zn566   2.018   .     S
N550   Zn567   2.018   .     S
O551   Zn566   1.999   .     S
O553   C1088   1.380   .     S
O558   Zn567   2.005   .     S
O559   Zn566   1.942   .     S
O560   Zn567   1.923   .     S
O561   Zn566   2.005   .     S
O562   Zn567   1.999   .     S
O563   Zn566   1.923   .     S
O564   Zn567   1.942   .     S
C568   O621    1.287   .     A
C568   C576    1.424   .     S
C568   O614    1.288   .     A
C569   C571    1.481   .     S
C569   C589    1.414   .     A
C569   C586    1.403   .     A
C570   C576    1.402   .     A
C570   F598    1.358   .     S
C570   C761    1.369   .     S
C571   O623    1.293   .     A
C571   O622    1.309   .     A
C572   H599    1.083   .     S
C572   C573    1.396   .     A
C572   C948    1.369   1_545 S
C573   C574    1.395   .     A
C573   C582    1.419   .     S
C574   H604    1.084   .     S
C574   C953    1.371   1_545 S
C575   H605    1.084   .     S
C575   C576    1.399   .     A
C575   C763    1.371   .     S
C577   N613    1.368   .     A
C577   F596    1.355   .     S
C577   C641    1.420   .     S
C578   H606    1.082   .     S
C578   N612    1.368   .     A
C578   C703    1.420   1_455 S
C579   C589    1.399   .     A
C579   C21     1.427   1_556 S
C579   C23     1.417   1_556 S
C580   N612    1.356   .     A
C580   H607    1.082   .     S
C580   C707    1.411   1_455 S
C581   N613    1.387   .     A
C581   O615    1.373   .     S
C581   C643    1.411   .     S
C582   O624    1.287   .     A
C582   O625    1.286   .     A
C583   C585    1.470   .     S
C583   O627    1.298   .     A
C583   O626    1.299   .     A
C584   C595    1.414   .     A
C585   C595    1.409   .     A
C585   C594    1.406   .     A
C586   C587    1.406   .     A
C586   O618    1.377   .     S
C587   C21     1.398   1_556 S
C587   H41     1.083   1_556 S
C588   O619    1.380   .     S
C589   C593    1.412   .     A
C590   C594    1.397   .     A
C591   C592    1.404   .     A
C591   C17     1.411   1_556 S
C591   C23     1.422   1_556 S
C592   C593    1.399   .     A
C592   F597    1.356   .     S
C593   O620    1.383   .     S
C594   O617    1.382   .     S
C595   O628    1.382   .     S
H600   O617    0.992   .     S
H601   O618    0.991   .     S
H602   O619    0.991   .     S
H603   O620    0.990   .     S
H609   O628    0.990   .     S
H610   O615    0.979   .     S
H611   O616    0.991   .     S
N612   Zn629   2.018   .     S
N613   Zn630   2.018   .     S
O614   Zn629   1.999   .     S
O616   C17     1.380   1_556 S
O621   Zn630   2.005   .     S
O622   Zn629   1.942   .     S
O623   Zn630   1.923   .     S
O624   Zn629   2.005   .     S
O625   Zn630   1.999   .     S
O626   Zn629   1.923   .     S
O627   Zn630   1.942   .     S
C631   O684    1.287   .     A
C631   C639    1.424   .     S
C631   O677    1.288   .     A
C632   C634    1.481   .     S
C632   C652    1.414   .     A
C632   C649    1.403   .     A
C633   C639    1.402   .     A
C633   F661    1.358   .     S
C633   C824    1.369   .     S
C634   O686    1.293   .     A
C634   O685    1.309   .     A
C635   H662    1.083   .     S
C635   C636    1.396   .     A
C635   C1011   1.369   1_545 S
C636   C637    1.395   .     A
C636   C645    1.419   .     S
C637   H667    1.084   .     S
C637   C1016   1.371   1_545 S
C638   H668    1.084   .     S
C638   C639    1.399   .     A
C638   C826    1.371   .     S
C640   N676    1.368   .     A
C640   F659    1.355   .     S
C640   C704    1.420   .     S
C641   H669    1.082   .     S
C641   N675    1.368   .     A
C642   C652    1.399   .     A
C642   C84     1.427   1_556 S
C642   C86     1.417   1_556 S
C643   N675    1.356   .     A
C643   H670    1.082   .     S
C644   N676    1.387   .     A
C644   O678    1.373   .     S
C644   C706    1.411   .     S
C645   O687    1.287   .     A
C645   O688    1.286   .     A
C646   C648    1.470   .     S
C646   O690    1.298   .     A
C646   O689    1.299   .     A
C647   C658    1.414   .     A
C648   C658    1.409   .     A
C648   C657    1.406   .     A
C649   C650    1.406   .     A
C649   O681    1.377   .     S
C650   C84     1.398   1_556 S
C650   H104    1.083   1_556 S
C651   O682    1.380   .     S
C652   C656    1.412   .     A
C653   C657    1.397   .     A
C654   C655    1.404   .     A
C654   C80     1.411   1_556 S
C654   C86     1.422   1_556 S
C655   C656    1.399   .     A
C655   F660    1.356   .     S
C656   O683    1.383   .     S
C657   O680    1.382   .     S
C658   O691    1.382   .     S
H663   O680    0.992   .     S
H664   O681    0.991   .     S
H665   O682    0.991   .     S
H666   O683    0.990   .     S
H672   O691    0.990   .     S
H673   O678    0.979   .     S
H674   O679    0.991   .     S
N675   Zn692   2.018   .     S
N676   Zn693   2.018   .     S
O677   Zn692   1.999   .     S
O679   C80     1.380   1_556 S
O684   Zn693   2.005   .     S
O685   Zn692   1.942   .     S
O686   Zn693   1.923   .     S
O687   Zn692   2.005   .     S
O688   Zn693   1.999   .     S
O689   Zn692   1.923   .     S
O690   Zn693   1.942   .     S
C694   O747    1.287   .     A
C694   C702    1.424   .     S
C694   O740    1.288   .     A
C695   C697    1.481   .     S
C695   C715    1.414   .     A
C695   C712    1.403   .     A
C696   C702    1.402   .     A
C696   F724    1.358   .     S
C696   C887    1.369   .     S
C697   O749    1.293   .     A
C697   O748    1.309   .     A
C698   H725    1.083   .     S
C698   C699    1.396   .     A
C698   C1074   1.369   1_545 S
C699   C700    1.395   .     A
C699   C708    1.419   .     S
C700   H730    1.084   .     S
C700   C1079   1.371   1_545 S
C701   H731    1.084   .     S
C701   C702    1.399   .     A
C701   C889    1.371   .     S
C703   N739    1.368   .     A
C703   F722    1.355   .     S
C703   C578    1.420   1_655 S
C704   H732    1.082   .     S
C704   N738    1.368   .     A
C705   C715    1.399   .     A
C705   C147    1.427   1_556 S
C705   C149    1.417   1_556 S
C706   N738    1.356   .     A
C706   H733    1.082   .     S
C707   N739    1.387   .     A
C707   O741    1.373   .     S
C707   C580    1.411   1_655 S
C708   O750    1.287   .     A
C708   O751    1.286   .     A
C709   C711    1.470   .     S
C709   O753    1.298   .     A
C709   O752    1.299   .     A
C710   C721    1.414   .     A
C711   C721    1.409   .     A
C711   C720    1.406   .     A
C712   C713    1.406   .     A
C712   O744    1.377   .     S
C713   C147    1.398   1_556 S
C713   H167    1.083   1_556 S
C714   O745    1.380   .     S
C715   C719    1.412   .     A
C716   C720    1.397   .     A
C717   C718    1.404   .     A
C717   C143    1.411   1_556 S
C717   C149    1.422   1_556 S
C718   C719    1.399   .     A
C718   F723    1.356   .     S
C719   O746    1.383   .     S
C720   O743    1.382   .     S
C721   O754    1.382   .     S
H726   O743    0.992   .     S
H727   O744    0.991   .     S
H728   O745    0.991   .     S
H729   O746    0.990   .     S
H735   O754    0.990   .     S
H736   O741    0.979   .     S
H737   O742    0.991   .     S
N738   Zn755   2.018   .     S
N739   Zn756   2.018   .     S
O740   Zn755   1.999   .     S
O742   C143    1.380   1_556 S
O747   Zn756   2.005   .     S
O748   Zn755   1.942   .     S
O749   Zn756   1.923   .     S
O750   Zn755   2.005   .     S
O751   Zn756   1.999   .     S
O752   Zn755   1.923   .     S
O753   Zn756   1.942   .     S
C757   O810    1.287   .     A
C757   C765    1.424   .     S
C757   O803    1.288   .     A
C758   C760    1.481   .     S
C758   C778    1.414   .     A
C758   C775    1.403   .     A
C759   C765    1.402   .     A
C759   F787    1.358   .     S
C759   C950    1.369   .     S
C760   O812    1.293   .     A
C760   O811    1.309   .     A
C761   H788    1.083   .     S
C761   C762    1.396   .     A
C762   C763    1.395   .     A
C762   C771    1.419   .     S
C763   H793    1.084   .     S
C764   H794    1.084   .     S
C764   C765    1.399   .     A
C764   C952    1.371   .     S
C766   N802    1.368   .     A
C766   F785    1.355   .     S
C766   C830    1.420   .     S
C767   H795    1.082   .     S
C767   N801    1.368   .     A
C767   C892    1.420   1_455 S
C768   C778    1.399   .     A
C768   C210    1.427   1_556 S
C768   C212    1.417   1_556 S
C769   N801    1.356   .     A
C769   H796    1.082   .     S
C769   C896    1.411   1_455 S
C770   N802    1.387   .     A
C770   O804    1.373   .     S
C770   C832    1.411   .     S
C771   O813    1.287   .     A
C771   O814    1.286   .     A
C772   C774    1.470   .     S
C772   O816    1.298   .     A
C772   O815    1.299   .     A
C773   C784    1.414   .     A
C774   C784    1.409   .     A
C774   C783    1.406   .     A
C775   C776    1.406   .     A
C775   O807    1.377   .     S
C776   C210    1.398   1_556 S
C776   H230    1.083   1_556 S
C777   O808    1.380   .     S
C778   C782    1.412   .     A
C779   C783    1.397   .     A
C780   C781    1.404   .     A
C780   C206    1.411   1_556 S
C780   C212    1.422   1_556 S
C781   C782    1.399   .     A
C781   F786    1.356   .     S
C782   O809    1.383   .     S
C783   O806    1.382   .     S
C784   O817    1.382   .     S
H789   O806    0.992   .     S
H790   O807    0.991   .     S
H791   O808    0.991   .     S
H792   O809    0.990   .     S
H798   O817    0.990   .     S
H799   O804    0.979   .     S
H800   O805    0.991   .     S
N801   Zn818   2.018   .     S
N802   Zn819   2.018   .     S
O803   Zn818   1.999   .     S
O805   C206    1.380   1_556 S
O810   Zn819   2.005   .     S
O811   Zn818   1.942   .     S
O812   Zn819   1.923   .     S
O813   Zn818   2.005   .     S
O814   Zn819   1.999   .     S
O815   Zn818   1.923   .     S
O816   Zn819   1.942   .     S
C820   O873    1.287   .     A
C820   C828    1.424   .     S
C820   O866    1.288   .     A
C821   C823    1.481   .     S
C821   C841    1.414   .     A
C821   C838    1.403   .     A
C822   C828    1.402   .     A
C822   F850    1.358   .     S
C822   C1013   1.369   .     S
C823   O875    1.293   .     A
C823   O874    1.309   .     A
C824   H851    1.083   .     S
C824   C825    1.396   .     A
C825   C826    1.395   .     A
C825   C834    1.419   .     S
C826   H856    1.084   .     S
C827   H857    1.084   .     S
C827   C828    1.399   .     A
C827   C1015   1.371   .     S
C829   N865    1.368   .     A
C829   F848    1.355   .     S
C829   C893    1.420   .     S
C830   H858    1.082   .     S
C830   N864    1.368   .     A
C831   C841    1.399   .     A
C831   C273    1.427   1_556 S
C831   C275    1.417   1_556 S
C832   N864    1.356   .     A
C832   H859    1.082   .     S
C833   N865    1.387   .     A
C833   O867    1.373   .     S
C833   C895    1.411   .     S
C834   O876    1.287   .     A
C834   O877    1.286   .     A
C835   C837    1.470   .     S
C835   O879    1.298   .     A
C835   O878    1.299   .     A
C836   C847    1.414   .     A
C837   C847    1.409   .     A
C837   C846    1.406   .     A
C838   C839    1.406   .     A
C838   O870    1.377   .     S
C839   C273    1.398   1_556 S
C839   H293    1.083   1_556 S
C840   O871    1.380   .     S
C841   C845    1.412   .     A
C842   C846    1.397   .     A
C843   C844    1.404   .     A
C843   C269    1.411   1_556 S
C843   C275    1.422   1_556 S
C844   C845    1.399   .     A
C844   F849    1.356   .     S
C845   O872    1.383   .     S
C846   O869    1.382   .     S
C847   O880    1.382   .     S
H852   O869    0.992   .     S
H853   O870    0.991   .     S
H854   O871    0.991   .     S
H855   O872    0.990   .     S
H861   O880    0.990   .     S
H862   O867    0.979   .     S
H863   O868    0.991   .     S
N864   Zn881   2.018   .     S
N865   Zn882   2.018   .     S
O866   Zn881   1.999   .     S
O868   C269    1.380   1_556 S
O873   Zn882   2.005   .     S
O874   Zn881   1.942   .     S
O875   Zn882   1.923   .     S
O876   Zn881   2.005   .     S
O877   Zn882   1.999   .     S
O878   Zn881   1.923   .     S
O879   Zn882   1.942   .     S
C883   O936    1.287   .     A
C883   C891    1.424   .     S
C883   O929    1.288   .     A
C884   C886    1.481   .     S
C884   C904    1.414   .     A
C884   C901    1.403   .     A
C885   C891    1.402   .     A
C885   F913    1.358   .     S
C885   C1076   1.369   .     S
C886   O938    1.293   .     A
C886   O937    1.309   .     A
C887   H914    1.083   .     S
C887   C888    1.396   .     A
C888   C889    1.395   .     A
C888   C897    1.419   .     S
C889   H919    1.084   .     S
C890   H920    1.084   .     S
C890   C891    1.399   .     A
C890   C1078   1.371   .     S
C892   N928    1.368   .     A
C892   F911    1.355   .     S
C892   C767    1.420   1_655 S
C893   H921    1.082   .     S
C893   N927    1.368   .     A
C894   C904    1.399   .     A
C894   C336    1.427   1_556 S
C894   C338    1.417   1_556 S
C895   N927    1.356   .     A
C895   H922    1.082   .     S
C896   N928    1.387   .     A
C896   O930    1.373   .     S
C896   C769    1.411   1_655 S
C897   O939    1.287   .     A
C897   O940    1.286   .     A
C898   C900    1.470   .     S
C898   O942    1.298   .     A
C898   O941    1.299   .     A
C899   C910    1.414   .     A
C900   C910    1.409   .     A
C900   C909    1.406   .     A
C901   C902    1.406   .     A
C901   O933    1.377   .     S
C902   C336    1.398   1_556 S
C902   H356    1.083   1_556 S
C903   O934    1.380   .     S
C904   C908    1.412   .     A
C905   C909    1.397   .     A
C906   C907    1.404   .     A
C906   C332    1.411   1_556 S
C906   C338    1.422   1_556 S
C907   C908    1.399   .     A
C907   F912    1.356   .     S
C908   O935    1.383   .     S
C909   O932    1.382   .     S
C910   O943    1.382   .     S
H915   O932    0.992   .     S
H916   O933    0.991   .     S
H917   O934    0.991   .     S
H918   O935    0.990   .     S
H924   O943    0.990   .     S
H925   O930    0.979   .     S
H926   O931    0.991   .     S
N927   Zn944   2.018   .     S
N928   Zn945   2.018   .     S
O929   Zn944   1.999   .     S
O931   C332    1.380   1_556 S
O936   Zn945   2.005   .     S
O937   Zn944   1.942   .     S
O938   Zn945   1.923   .     S
O939   Zn944   2.005   .     S
O940   Zn945   1.999   .     S
O941   Zn944   1.923   .     S
O942   Zn945   1.942   .     S
C946   O999    1.287   .     A
C946   C954    1.424   .     S
C946   O992    1.288   .     A
C947   C949    1.481   .     S
C947   C967    1.414   .     A
C947   C964    1.403   .     A
C948   C954    1.402   .     A
C948   F976    1.358   .     S
C948   C572    1.369   1_565 S
C949   O1001   1.293   .     A
C949   O1000   1.309   .     A
C950   H977    1.083   .     S
C950   C951    1.396   .     A
C951   C952    1.395   .     A
C951   C960    1.419   .     S
C952   H982    1.084   .     S
C953   H983    1.084   .     S
C953   C954    1.399   .     A
C953   C574    1.371   1_565 S
C955   N991    1.368   .     A
C955   F974    1.355   .     S
C955   C1019   1.420   .     S
C956   H984    1.082   .     S
C956   N990    1.368   .     A
C956   C1081   1.420   1_455 S
C957   C967    1.399   .     A
C957   C399    1.427   1_556 S
C957   C401    1.417   1_556 S
C958   N990    1.356   .     A
C958   H985    1.082   .     S
C958   C1085   1.411   1_455 S
C959   N991    1.387   .     A
C959   O993    1.373   .     S
C959   C1021   1.411   .     S
C960   O1002   1.287   .     A
C960   O1003   1.286   .     A
C961   C963    1.470   .     S
C961   O1005   1.298   .     A
C961   O1004   1.299   .     A
C962   C973    1.414   .     A
C963   C973    1.409   .     A
C963   C972    1.406   .     A
C964   C965    1.406   .     A
C964   O996    1.377   .     S
C965   C399    1.398   1_556 S
C965   H419    1.083   1_556 S
C966   O997    1.380   .     S
C967   C971    1.412   .     A
C968   C972    1.397   .     A
C969   C970    1.404   .     A
C969   C395    1.411   1_556 S
C969   C401    1.422   1_556 S
C970   C971    1.399   .     A
C970   F975    1.356   .     S
C971   O998    1.383   .     S
C972   O995    1.382   .     S
C973   O1006   1.382   .     S
H978   O995    0.992   .     S
H979   O996    0.991   .     S
H980   O997    0.991   .     S
H981   O998    0.990   .     S
H987   O1006   0.990   .     S
H988   O993    0.979   .     S
H989   O994    0.991   .     S
N990   Zn1007  2.018   .     S
N991   Zn1008  2.018   .     S
O992   Zn1007  1.999   .     S
O994   C395    1.380   1_556 S
O999   Zn1008  2.005   .     S
O1000  Zn1007  1.942   .     S
O1001  Zn1008  1.923   .     S
O1002  Zn1007  2.005   .     S
O1003  Zn1008  1.999   .     S
O1004  Zn1007  1.923   .     S
O1005  Zn1008  1.942   .     S
C1009  O1062   1.287   .     A
C1009  C1017   1.424   .     S
C1009  O1055   1.288   .     A
C1010  C1012   1.481   .     S
C1010  C1030   1.414   .     A
C1010  C1027   1.403   .     A
C1011  C1017   1.402   .     A
C1011  F1039   1.358   .     S
C1011  C635    1.369   1_565 S
C1012  O1064   1.293   .     A
C1012  O1063   1.309   .     A
C1013  H1040   1.083   .     S
C1013  C1014   1.396   .     A
C1014  C1015   1.395   .     A
C1014  C1023   1.419   .     S
C1015  H1045   1.084   .     S
C1016  H1046   1.084   .     S
C1016  C1017   1.399   .     A
C1016  C637    1.371   1_565 S
C1018  N1054   1.368   .     A
C1018  F1037   1.355   .     S
C1018  C1082   1.420   .     S
C1019  H1047   1.082   .     S
C1019  N1053   1.368   .     A
C1020  C1030   1.399   .     A
C1020  C462    1.427   1_556 S
C1020  C464    1.417   1_556 S
C1021  N1053   1.356   .     A
C1021  H1048   1.082   .     S
C1022  N1054   1.387   .     A
C1022  O1056   1.373   .     S
C1022  C1084   1.411   .     S
C1023  O1065   1.287   .     A
C1023  O1066   1.286   .     A
C1024  C1026   1.470   .     S
C1024  O1068   1.298   .     A
C1024  O1067   1.299   .     A
C1025  C1036   1.414   .     A
C1026  C1036   1.409   .     A
C1026  C1035   1.406   .     A
C1027  C1028   1.406   .     A
C1027  O1059   1.377   .     S
C1028  C462    1.398   1_556 S
C1028  H482    1.083   1_556 S
C1029  O1060   1.380   .     S
C1030  C1034   1.412   .     A
C1031  C1035   1.397   .     A
C1032  C1033   1.404   .     A
C1032  C458    1.411   1_556 S
C1032  C464    1.422   1_556 S
C1033  C1034   1.399   .     A
C1033  F1038   1.356   .     S
C1034  O1061   1.383   .     S
C1035  O1058   1.382   .     S
C1036  O1069   1.382   .     S
H1041  O1058   0.992   .     S
H1042  O1059   0.991   .     S
H1043  O1060   0.991   .     S
H1044  O1061   0.990   .     S
H1050  O1069   0.990   .     S
H1051  O1056   0.979   .     S
H1052  O1057   0.991   .     S
N1053  Zn1070  2.018   .     S
N1054  Zn1071  2.018   .     S
O1055  Zn1070  1.999   .     S
O1057  C458    1.380   1_556 S
O1062  Zn1071  2.005   .     S
O1063  Zn1070  1.942   .     S
O1064  Zn1071  1.923   .     S
O1065  Zn1070  2.005   .     S
O1066  Zn1071  1.999   .     S
O1067  Zn1070  1.923   .     S
O1068  Zn1071  1.942   .     S
C1072  O1125   1.287   .     A
C1072  C1080   1.424   .     S
C1072  O1118   1.288   .     A
C1073  C1075   1.481   .     S
C1073  C1093   1.414   .     A
C1073  C1090   1.403   .     A
C1074  C1080   1.402   .     A
C1074  F1102   1.358   .     S
C1074  C698    1.369   1_565 S
C1075  O1127   1.293   .     A
C1075  O1126   1.309   .     A
C1076  H1103   1.083   .     S
C1076  C1077   1.396   .     A
C1077  C1078   1.395   .     A
C1077  C1086   1.419   .     S
C1078  H1108   1.084   .     S
C1079  H1109   1.084   .     S
C1079  C1080   1.399   .     A
C1079  C700    1.371   1_565 S
C1081  N1117   1.368   .     A
C1081  F1100   1.355   .     S
C1081  C956    1.420   1_655 S
C1082  H1110   1.082   .     S
C1082  N1116   1.368   .     A
C1083  C1093   1.399   .     A
C1083  C525    1.427   1_556 S
C1083  C527    1.417   1_556 S
C1084  N1116   1.356   .     A
C1084  H1111   1.082   .     S
C1085  N1117   1.387   .     A
C1085  O1119   1.373   .     S
C1085  C958    1.411   1_655 S
C1086  O1128   1.287   .     A
C1086  O1129   1.286   .     A
C1087  C1089   1.470   .     S
C1087  O1131   1.298   .     A
C1087  O1130   1.299   .     A
C1088  C1099   1.414   .     A
C1089  C1099   1.409   .     A
C1089  C1098   1.406   .     A
C1090  C1091   1.406   .     A
C1090  O1122   1.377   .     S
C1091  C525    1.398   1_556 S
C1091  H545    1.083   1_556 S
C1092  O1123   1.380   .     S
C1093  C1097   1.412   .     A
C1094  C1098   1.397   .     A
C1095  C1096   1.404   .     A
C1095  C521    1.411   1_556 S
C1095  C527    1.422   1_556 S
C1096  C1097   1.399   .     A
C1096  F1101   1.356   .     S
C1097  O1124   1.383   .     S
C1098  O1121   1.382   .     S
C1099  O1132   1.382   .     S
H1104  O1121   0.992   .     S
H1105  O1122   0.991   .     S
H1106  O1123   0.991   .     S
H1107  O1124   0.990   .     S
H1113  O1132   0.990   .     S
H1114  O1119   0.979   .     S
H1115  O1120   0.991   .     S
N1116  Zn1133  2.018   .     S
N1117  Zn1134  2.018   .     S
O1118  Zn1133  1.999   .     S
O1120  C521    1.380   1_556 S
O1125  Zn1134  2.005   .     S
O1126  Zn1133  1.942   .     S
O1127  Zn1134  1.923   .     S
O1128  Zn1133  2.005   .     S
O1129  Zn1134  1.999   .     S
O1130  Zn1133  1.923   .     S
O1131  Zn1134  1.942   .     S
