data_str_m3_o2_o10_pcu_sym.28
_audit_creation_date              2020-01-03
_audit_creation_method            'Materials Studio'
_symmetry_space_group_name_H-M    'P1'
_symmetry_Int_Tables_number       1
_symmetry_cell_setting            triclinic
loop_
_symmetry_equiv_pos_as_xyz
  x,y,z
_cell_length_a                    25.7640
_cell_length_b                    29.6629
_cell_length_c                    28.5834
_cell_angle_alpha                 90.2916
_cell_angle_beta                  98.6267
_cell_angle_gamma                 91.6852
loop_
_atom_site_label
_atom_site_type_symbol
_atom_site_fract_x
_atom_site_fract_y
_atom_site_fract_z
_atom_site_U_iso_or_equiv
_atom_site_adp_type
_atom_site_occupancy
Br1    Br    0.25725   0.31077   0.14262   0.00000  Uiso   1.00
Br2    Br    0.09468   0.17322   0.35935   0.00000  Uiso   1.00
C3     C     0.16830   0.16370   0.25005   0.00000  Uiso   1.00
C4     C     0.14031   0.21744   0.44434   0.00000  Uiso   1.00
C5     C     0.16168   0.25391   0.02601   0.00000  Uiso   1.00
C6     C     0.16192   0.25420   0.47273   0.00000  Uiso   1.00
C7     C     0.06711   0.24930   0.23762   0.00000  Uiso   1.00
C8     C     0.26623   0.24981   0.26242   0.00000  Uiso   1.00
C9     C     0.01203   0.24743   0.23111   0.00000  Uiso   1.00
C10    C     0.32133   0.24988   0.26909   0.00000  Uiso   1.00
C11    C     0.17735   0.04440   0.28954   0.00000  Uiso   1.00
C12    C     0.16863   0.45567   0.21197   0.00000  Uiso   1.00
C13    C     0.16671   0.08973   0.28853   0.00000  Uiso   1.00
C14    C     0.16794   0.33629   0.25024   0.00000  Uiso   1.00
C15    C     0.15765   0.40983   0.21188   0.00000  Uiso   1.00
C16    C     0.17825   0.11594   0.25080   0.00000  Uiso   1.00
C17    C     0.17709   0.38445   0.25125   0.00000  Uiso   1.00
C18    C     0.20306   0.09708   0.21521   0.00000  Uiso   1.00
C19    C     0.20956   0.40450   0.28986   0.00000  Uiso   1.00
C20    C     0.21542   0.05186   0.21651   0.00000  Uiso   1.00
C21    C     0.22230   0.45025   0.28982   0.00000  Uiso   1.00
C22    C     0.20080   0.02507   0.25343   0.00000  Uiso   1.00
C23    C     0.20019   0.47620   0.25091   0.00000  Uiso   1.00
C24    C     0.11956   0.23501   0.04706   0.00000  Uiso   1.00
C25    C     0.18490   0.29001   0.44930   0.00000  Uiso   1.00
C26    C     0.12495   0.23011   0.09667   0.00000  Uiso   1.00
C27    C     0.19064   0.28535   0.40116   0.00000  Uiso   1.00
C28    C     0.20502   0.27257   0.10629   0.00000  Uiso   1.00
C29    C     0.13956   0.21749   0.39506   0.00000  Uiso   1.00
C30    C     0.20499   0.27170   0.05713   0.00000  Uiso   1.00
H31    H     0.32477   0.24396   0.19516   0.00000  Uiso   1.00
H32    H     0.12214   0.18907   0.45998   0.00000  Uiso   1.00
H33    H     0.25448   0.00522   0.19014   0.00000  Uiso   1.00
H34    H     0.26801   0.49865   0.32046   0.00000  Uiso   1.00
H35    H     0.06615   0.24017   0.49217   0.00000  Uiso   1.00
H36    H     0.17987   0.33595   0.49658   0.00000  Uiso   1.00
H37    H     0.10109   0.19316   0.14434   0.00000  Uiso   1.00
H38    H     0.23380   0.30525   0.35587   0.00000  Uiso   1.00
H39    H     0.00866   0.25270   0.30513   0.00000  Uiso   1.00
H40    H     0.16529   0.02390   0.31753   0.00000  Uiso   1.00
H41    H     0.15083   0.47551   0.18242   0.00000  Uiso   1.00
H42    H     0.14830   0.10388   0.31658   0.00000  Uiso   1.00
H43    H     0.13306   0.39435   0.18162   0.00000  Uiso   1.00
H44    H     0.21382   0.11764   0.18672   0.00000  Uiso   1.00
H45    H     0.22635   0.38443   0.31953   0.00000  Uiso   1.00
H46    H     0.23836   0.28665   0.04339   0.00000  Uiso   1.00
N47    N     0.16667   0.24999   0.12623   0.00000  Uiso   1.00
N48    N     0.16667   0.25001   0.37376   0.00000  Uiso   1.00
O49    O     0.16667   0.18454   0.28974   0.00000  Uiso   1.00
O50    O     0.25553   0.46812   0.32829   0.00000  Uiso   1.00
O51    O     0.07220   0.22141   0.02093   0.00000  Uiso   1.00
O52    O     0.20169   0.33037   0.47153   0.00000  Uiso   1.00
O53    O     0.08551   0.20661   0.11427   0.00000  Uiso   1.00
O54    O     0.21908   0.31869   0.38235   0.00000  Uiso   1.00
O55    O     0.16666   0.31547   0.21026   0.00000  Uiso   1.00
O56    O     0.16667   0.18453   0.21026   0.00000  Uiso   1.00
O57    O     0.16666   0.31547   0.28974   0.00000  Uiso   1.00
O58    O     0.09058   0.25000   0.28044   0.00000  Uiso   1.00
O59    O     0.24275   0.25000   0.21955   0.00000  Uiso   1.00
O60    O     0.09058   0.25000   0.20096   0.00000  Uiso   1.00
O61    O     0.24275   0.25001   0.29903   0.00000  Uiso   1.00
O62    O     0.24073   0.03525   0.18104   0.00000  Uiso   1.00
Zn63   Zn    0.16667   0.25001   0.30307   0.00000  Uiso   1.00
Zn64   Zn    0.16667   0.25000   0.19693   0.00000  Uiso   1.00
Br65   Br    0.59058   0.31077   0.14262   0.00000  Uiso   1.00
Br66   Br    0.42801   0.17322   0.35935   0.00000  Uiso   1.00
C67    C     0.50163   0.16370   0.25005   0.00000  Uiso   1.00
C68    C     0.47364   0.21744   0.44434   0.00000  Uiso   1.00
C69    C     0.49502   0.25391   0.02601   0.00000  Uiso   1.00
C70    C     0.49525   0.25420   0.47273   0.00000  Uiso   1.00
C71    C     0.40044   0.24930   0.23762   0.00000  Uiso   1.00
C72    C     0.59956   0.24981   0.26242   0.00000  Uiso   1.00
C73    C     0.34536   0.24743   0.23111   0.00000  Uiso   1.00
C74    C     0.65466   0.24988   0.26909   0.00000  Uiso   1.00
C75    C     0.51069   0.04440   0.28954   0.00000  Uiso   1.00
C76    C     0.50196   0.45567   0.21197   0.00000  Uiso   1.00
C77    C     0.50004   0.08973   0.28853   0.00000  Uiso   1.00
C78    C     0.50128   0.33629   0.25024   0.00000  Uiso   1.00
C79    C     0.49098   0.40983   0.21188   0.00000  Uiso   1.00
C80    C     0.51158   0.11594   0.25080   0.00000  Uiso   1.00
C81    C     0.51042   0.38445   0.25125   0.00000  Uiso   1.00
C82    C     0.53639   0.09708   0.21521   0.00000  Uiso   1.00
C83    C     0.54290   0.40450   0.28986   0.00000  Uiso   1.00
C84    C     0.54876   0.05186   0.21651   0.00000  Uiso   1.00
C85    C     0.55563   0.45025   0.28982   0.00000  Uiso   1.00
C86    C     0.53413   0.02507   0.25343   0.00000  Uiso   1.00
C87    C     0.53352   0.47620   0.25091   0.00000  Uiso   1.00
C88    C     0.45289   0.23501   0.04706   0.00000  Uiso   1.00
C89    C     0.51823   0.29001   0.44930   0.00000  Uiso   1.00
C90    C     0.45828   0.23011   0.09667   0.00000  Uiso   1.00
C91    C     0.52398   0.28535   0.40116   0.00000  Uiso   1.00
C92    C     0.53835   0.27257   0.10629   0.00000  Uiso   1.00
C93    C     0.47289   0.21749   0.39506   0.00000  Uiso   1.00
C94    C     0.53832   0.27170   0.05713   0.00000  Uiso   1.00
H95    H     0.65810   0.24396   0.19516   0.00000  Uiso   1.00
H96    H     0.45548   0.18907   0.45998   0.00000  Uiso   1.00
H97    H     0.58782   0.00522   0.19014   0.00000  Uiso   1.00
H98    H     0.60134   0.49865   0.32046   0.00000  Uiso   1.00
H99    H     0.39948   0.24017   0.49217   0.00000  Uiso   1.00
H100   H     0.51320   0.33595   0.49658   0.00000  Uiso   1.00
H101   H     0.43442   0.19316   0.14434   0.00000  Uiso   1.00
H102   H     0.56713   0.30525   0.35587   0.00000  Uiso   1.00
H103   H     0.34199   0.25270   0.30513   0.00000  Uiso   1.00
H104   H     0.49862   0.02390   0.31753   0.00000  Uiso   1.00
H105   H     0.48416   0.47551   0.18242   0.00000  Uiso   1.00
H106   H     0.48163   0.10388   0.31658   0.00000  Uiso   1.00
H107   H     0.46639   0.39435   0.18162   0.00000  Uiso   1.00
H108   H     0.54715   0.11764   0.18672   0.00000  Uiso   1.00
H109   H     0.55969   0.38443   0.31953   0.00000  Uiso   1.00
H110   H     0.57170   0.28665   0.04339   0.00000  Uiso   1.00
N111   N     0.50000   0.24999   0.12623   0.00000  Uiso   1.00
N112   N     0.50000   0.25001   0.37376   0.00000  Uiso   1.00
O113   O     0.50000   0.18454   0.28974   0.00000  Uiso   1.00
O114   O     0.58886   0.46812   0.32829   0.00000  Uiso   1.00
O115   O     0.40553   0.22141   0.02093   0.00000  Uiso   1.00
O116   O     0.53502   0.33037   0.47153   0.00000  Uiso   1.00
O117   O     0.41884   0.20661   0.11427   0.00000  Uiso   1.00
O118   O     0.55241   0.31869   0.38235   0.00000  Uiso   1.00
O119   O     0.50000   0.31547   0.21026   0.00000  Uiso   1.00
O120   O     0.50000   0.18453   0.21026   0.00000  Uiso   1.00
O121   O     0.50000   0.31547   0.28974   0.00000  Uiso   1.00
O122   O     0.42392   0.25000   0.28044   0.00000  Uiso   1.00
O123   O     0.57608   0.25000   0.21955   0.00000  Uiso   1.00
O124   O     0.42392   0.25000   0.20096   0.00000  Uiso   1.00
O125   O     0.57608   0.25001   0.29903   0.00000  Uiso   1.00
O126   O     0.57406   0.03525   0.18104   0.00000  Uiso   1.00
Zn127  Zn    0.50000   0.25001   0.30307   0.00000  Uiso   1.00
Zn128  Zn    0.50000   0.25000   0.19693   0.00000  Uiso   1.00
Br129  Br    0.92391   0.31077   0.14262   0.00000  Uiso   1.00
Br130  Br    0.76134   0.17322   0.35935   0.00000  Uiso   1.00
C131   C     0.83497   0.16370   0.25005   0.00000  Uiso   1.00
C132   C     0.80697   0.21744   0.44434   0.00000  Uiso   1.00
C133   C     0.82835   0.25391   0.02601   0.00000  Uiso   1.00
C134   C     0.82859   0.25420   0.47273   0.00000  Uiso   1.00
C135   C     0.73378   0.24930   0.23762   0.00000  Uiso   1.00
C136   C     0.93290   0.24981   0.26242   0.00000  Uiso   1.00
C137   C     0.67869   0.24743   0.23111   0.00000  Uiso   1.00
C138   C     0.98800   0.24988   0.26909   0.00000  Uiso   1.00
C139   C     0.84402   0.04440   0.28954   0.00000  Uiso   1.00
C140   C     0.83530   0.45567   0.21197   0.00000  Uiso   1.00
C141   C     0.83337   0.08973   0.28853   0.00000  Uiso   1.00
C142   C     0.83461   0.33629   0.25024   0.00000  Uiso   1.00
C143   C     0.82432   0.40983   0.21188   0.00000  Uiso   1.00
C144   C     0.84492   0.11594   0.25080   0.00000  Uiso   1.00
C145   C     0.84375   0.38445   0.25125   0.00000  Uiso   1.00
C146   C     0.86972   0.09708   0.21521   0.00000  Uiso   1.00
C147   C     0.87623   0.40450   0.28986   0.00000  Uiso   1.00
C148   C     0.88209   0.05186   0.21651   0.00000  Uiso   1.00
C149   C     0.88896   0.45025   0.28982   0.00000  Uiso   1.00
C150   C     0.86747   0.02507   0.25343   0.00000  Uiso   1.00
C151   C     0.86686   0.47620   0.25091   0.00000  Uiso   1.00
C152   C     0.78622   0.23501   0.04706   0.00000  Uiso   1.00
C153   C     0.85156   0.29001   0.44930   0.00000  Uiso   1.00
C154   C     0.79161   0.23011   0.09667   0.00000  Uiso   1.00
C155   C     0.85731   0.28535   0.40116   0.00000  Uiso   1.00
C156   C     0.87168   0.27257   0.10629   0.00000  Uiso   1.00
C157   C     0.80622   0.21749   0.39506   0.00000  Uiso   1.00
C158   C     0.87165   0.27170   0.05713   0.00000  Uiso   1.00
H159   H     0.99143   0.24396   0.19516   0.00000  Uiso   1.00
H160   H     0.78881   0.18907   0.45998   0.00000  Uiso   1.00
H161   H     0.92115   0.00522   0.19014   0.00000  Uiso   1.00
H162   H     0.93468   0.49865   0.32046   0.00000  Uiso   1.00
H163   H     0.73282   0.24017   0.49217   0.00000  Uiso   1.00
H164   H     0.84654   0.33595   0.49658   0.00000  Uiso   1.00
H165   H     0.76776   0.19316   0.14434   0.00000  Uiso   1.00
H166   H     0.90046   0.30525   0.35587   0.00000  Uiso   1.00
H167   H     0.67533   0.25270   0.30513   0.00000  Uiso   1.00
H168   H     0.83195   0.02390   0.31753   0.00000  Uiso   1.00
H169   H     0.81749   0.47551   0.18242   0.00000  Uiso   1.00
H170   H     0.81497   0.10388   0.31658   0.00000  Uiso   1.00
H171   H     0.79972   0.39435   0.18162   0.00000  Uiso   1.00
H172   H     0.88048   0.11764   0.18672   0.00000  Uiso   1.00
H173   H     0.89302   0.38443   0.31953   0.00000  Uiso   1.00
H174   H     0.90503   0.28665   0.04339   0.00000  Uiso   1.00
N175   N     0.83333   0.24999   0.12623   0.00000  Uiso   1.00
N176   N     0.83333   0.25001   0.37376   0.00000  Uiso   1.00
O177   O     0.83334   0.18454   0.28974   0.00000  Uiso   1.00
O178   O     0.92220   0.46812   0.32829   0.00000  Uiso   1.00
O179   O     0.73886   0.22141   0.02093   0.00000  Uiso   1.00
O180   O     0.86836   0.33037   0.47153   0.00000  Uiso   1.00
O181   O     0.75217   0.20661   0.11427   0.00000  Uiso   1.00
O182   O     0.88574   0.31869   0.38235   0.00000  Uiso   1.00
O183   O     0.83333   0.31547   0.21026   0.00000  Uiso   1.00
O184   O     0.83334   0.18453   0.21026   0.00000  Uiso   1.00
O185   O     0.83333   0.31547   0.28974   0.00000  Uiso   1.00
O186   O     0.75725   0.25000   0.28044   0.00000  Uiso   1.00
O187   O     0.90942   0.25000   0.21955   0.00000  Uiso   1.00
O188   O     0.75725   0.25000   0.20096   0.00000  Uiso   1.00
O189   O     0.90942   0.25001   0.29903   0.00000  Uiso   1.00
O190   O     0.90739   0.03525   0.18104   0.00000  Uiso   1.00
Zn191  Zn    0.83333   0.25001   0.30307   0.00000  Uiso   1.00
Zn192  Zn    0.83333   0.25000   0.19693   0.00000  Uiso   1.00
Br193  Br    0.25725   0.81077   0.14262   0.00000  Uiso   1.00
Br194  Br    0.09468   0.67322   0.35935   0.00000  Uiso   1.00
C195   C     0.16830   0.66370   0.25005   0.00000  Uiso   1.00
C196   C     0.14031   0.71744   0.44434   0.00000  Uiso   1.00
C197   C     0.16168   0.75391   0.02601   0.00000  Uiso   1.00
C198   C     0.16192   0.75420   0.47273   0.00000  Uiso   1.00
C199   C     0.06711   0.74930   0.23762   0.00000  Uiso   1.00
C200   C     0.26623   0.74981   0.26242   0.00000  Uiso   1.00
C201   C     0.01203   0.74743   0.23111   0.00000  Uiso   1.00
C202   C     0.32133   0.74988   0.26909   0.00000  Uiso   1.00
C203   C     0.17735   0.54440   0.28954   0.00000  Uiso   1.00
C204   C     0.16863   0.95567   0.21197   0.00000  Uiso   1.00
C205   C     0.16671   0.58973   0.28853   0.00000  Uiso   1.00
C206   C     0.16794   0.83629   0.25024   0.00000  Uiso   1.00
C207   C     0.15765   0.90983   0.21188   0.00000  Uiso   1.00
C208   C     0.17825   0.61594   0.25080   0.00000  Uiso   1.00
C209   C     0.17709   0.88445   0.25125   0.00000  Uiso   1.00
C210   C     0.20306   0.59708   0.21521   0.00000  Uiso   1.00
C211   C     0.20956   0.90450   0.28986   0.00000  Uiso   1.00
C212   C     0.21542   0.55186   0.21651   0.00000  Uiso   1.00
C213   C     0.22230   0.95025   0.28982   0.00000  Uiso   1.00
C214   C     0.20080   0.52507   0.25343   0.00000  Uiso   1.00
C215   C     0.20019   0.97620   0.25091   0.00000  Uiso   1.00
C216   C     0.11956   0.73501   0.04706   0.00000  Uiso   1.00
C217   C     0.18490   0.79001   0.44930   0.00000  Uiso   1.00
C218   C     0.12495   0.73011   0.09667   0.00000  Uiso   1.00
C219   C     0.19064   0.78535   0.40116   0.00000  Uiso   1.00
C220   C     0.20502   0.77257   0.10629   0.00000  Uiso   1.00
C221   C     0.13956   0.71749   0.39506   0.00000  Uiso   1.00
C222   C     0.20499   0.77170   0.05713   0.00000  Uiso   1.00
H223   H     0.32477   0.74396   0.19516   0.00000  Uiso   1.00
H224   H     0.12214   0.68907   0.45998   0.00000  Uiso   1.00
H225   H     0.25448   0.50522   0.19014   0.00000  Uiso   1.00
H226   H     0.26801   0.99865   0.32046   0.00000  Uiso   1.00
H227   H     0.06615   0.74017   0.49217   0.00000  Uiso   1.00
H228   H     0.17987   0.83595   0.49658   0.00000  Uiso   1.00
H229   H     0.10109   0.69316   0.14434   0.00000  Uiso   1.00
H230   H     0.23380   0.80525   0.35587   0.00000  Uiso   1.00
H231   H     0.00866   0.75270   0.30513   0.00000  Uiso   1.00
H232   H     0.16529   0.52390   0.31753   0.00000  Uiso   1.00
H233   H     0.15083   0.97551   0.18242   0.00000  Uiso   1.00
H234   H     0.14830   0.60388   0.31658   0.00000  Uiso   1.00
H235   H     0.13306   0.89435   0.18162   0.00000  Uiso   1.00
H236   H     0.21382   0.61764   0.18672   0.00000  Uiso   1.00
H237   H     0.22635   0.88443   0.31953   0.00000  Uiso   1.00
H238   H     0.23836   0.78665   0.04339   0.00000  Uiso   1.00
N239   N     0.16667   0.74999   0.12623   0.00000  Uiso   1.00
N240   N     0.16667   0.75001   0.37376   0.00000  Uiso   1.00
O241   O     0.16667   0.68454   0.28974   0.00000  Uiso   1.00
O242   O     0.25553   0.96812   0.32829   0.00000  Uiso   1.00
O243   O     0.07220   0.72141   0.02093   0.00000  Uiso   1.00
O244   O     0.20169   0.83037   0.47153   0.00000  Uiso   1.00
O245   O     0.08551   0.70661   0.11427   0.00000  Uiso   1.00
O246   O     0.21908   0.81869   0.38235   0.00000  Uiso   1.00
O247   O     0.16666   0.81547   0.21026   0.00000  Uiso   1.00
O248   O     0.16667   0.68453   0.21026   0.00000  Uiso   1.00
O249   O     0.16666   0.81547   0.28974   0.00000  Uiso   1.00
O250   O     0.09058   0.75000   0.28044   0.00000  Uiso   1.00
O251   O     0.24275   0.75000   0.21955   0.00000  Uiso   1.00
O252   O     0.09058   0.75000   0.20096   0.00000  Uiso   1.00
O253   O     0.24275   0.75001   0.29903   0.00000  Uiso   1.00
O254   O     0.24073   0.53525   0.18104   0.00000  Uiso   1.00
Zn255  Zn    0.16667   0.75001   0.30307   0.00000  Uiso   1.00
Zn256  Zn    0.16667   0.75000   0.19693   0.00000  Uiso   1.00
Br257  Br    0.59058   0.81077   0.14262   0.00000  Uiso   1.00
Br258  Br    0.42801   0.67322   0.35935   0.00000  Uiso   1.00
C259   C     0.50163   0.66370   0.25005   0.00000  Uiso   1.00
C260   C     0.47364   0.71744   0.44434   0.00000  Uiso   1.00
C261   C     0.49502   0.75391   0.02601   0.00000  Uiso   1.00
C262   C     0.49525   0.75420   0.47273   0.00000  Uiso   1.00
C263   C     0.40044   0.74930   0.23762   0.00000  Uiso   1.00
C264   C     0.59956   0.74981   0.26242   0.00000  Uiso   1.00
C265   C     0.34536   0.74743   0.23111   0.00000  Uiso   1.00
C266   C     0.65466   0.74988   0.26909   0.00000  Uiso   1.00
C267   C     0.51069   0.54440   0.28954   0.00000  Uiso   1.00
C268   C     0.50196   0.95567   0.21197   0.00000  Uiso   1.00
C269   C     0.50004   0.58973   0.28853   0.00000  Uiso   1.00
C270   C     0.50128   0.83629   0.25024   0.00000  Uiso   1.00
C271   C     0.49098   0.90983   0.21188   0.00000  Uiso   1.00
C272   C     0.51158   0.61594   0.25080   0.00000  Uiso   1.00
C273   C     0.51042   0.88445   0.25125   0.00000  Uiso   1.00
C274   C     0.53639   0.59708   0.21521   0.00000  Uiso   1.00
C275   C     0.54290   0.90450   0.28986   0.00000  Uiso   1.00
C276   C     0.54876   0.55186   0.21651   0.00000  Uiso   1.00
C277   C     0.55563   0.95025   0.28982   0.00000  Uiso   1.00
C278   C     0.53413   0.52507   0.25343   0.00000  Uiso   1.00
C279   C     0.53352   0.97620   0.25091   0.00000  Uiso   1.00
C280   C     0.45289   0.73501   0.04706   0.00000  Uiso   1.00
C281   C     0.51823   0.79001   0.44930   0.00000  Uiso   1.00
C282   C     0.45828   0.73011   0.09667   0.00000  Uiso   1.00
C283   C     0.52398   0.78535   0.40116   0.00000  Uiso   1.00
C284   C     0.53835   0.77257   0.10629   0.00000  Uiso   1.00
C285   C     0.47289   0.71749   0.39506   0.00000  Uiso   1.00
C286   C     0.53832   0.77170   0.05713   0.00000  Uiso   1.00
H287   H     0.65810   0.74396   0.19516   0.00000  Uiso   1.00
H288   H     0.45548   0.68907   0.45998   0.00000  Uiso   1.00
H289   H     0.58782   0.50522   0.19014   0.00000  Uiso   1.00
H290   H     0.60134   0.99865   0.32046   0.00000  Uiso   1.00
H291   H     0.39948   0.74017   0.49217   0.00000  Uiso   1.00
H292   H     0.51320   0.83595   0.49658   0.00000  Uiso   1.00
H293   H     0.43442   0.69316   0.14434   0.00000  Uiso   1.00
H294   H     0.56713   0.80525   0.35587   0.00000  Uiso   1.00
H295   H     0.34199   0.75270   0.30513   0.00000  Uiso   1.00
H296   H     0.49862   0.52390   0.31753   0.00000  Uiso   1.00
H297   H     0.48416   0.97551   0.18242   0.00000  Uiso   1.00
H298   H     0.48163   0.60388   0.31658   0.00000  Uiso   1.00
H299   H     0.46639   0.89435   0.18162   0.00000  Uiso   1.00
H300   H     0.54715   0.61764   0.18672   0.00000  Uiso   1.00
H301   H     0.55969   0.88443   0.31953   0.00000  Uiso   1.00
H302   H     0.57170   0.78665   0.04339   0.00000  Uiso   1.00
N303   N     0.50000   0.74999   0.12623   0.00000  Uiso   1.00
N304   N     0.50000   0.75001   0.37376   0.00000  Uiso   1.00
O305   O     0.50000   0.68454   0.28974   0.00000  Uiso   1.00
O306   O     0.58886   0.96812   0.32829   0.00000  Uiso   1.00
O307   O     0.40553   0.72141   0.02093   0.00000  Uiso   1.00
O308   O     0.53502   0.83037   0.47153   0.00000  Uiso   1.00
O309   O     0.41884   0.70661   0.11427   0.00000  Uiso   1.00
O310   O     0.55241   0.81869   0.38235   0.00000  Uiso   1.00
O311   O     0.50000   0.81547   0.21026   0.00000  Uiso   1.00
O312   O     0.50000   0.68453   0.21026   0.00000  Uiso   1.00
O313   O     0.50000   0.81547   0.28974   0.00000  Uiso   1.00
O314   O     0.42392   0.75000   0.28044   0.00000  Uiso   1.00
O315   O     0.57608   0.75000   0.21955   0.00000  Uiso   1.00
O316   O     0.42392   0.75000   0.20096   0.00000  Uiso   1.00
O317   O     0.57608   0.75001   0.29903   0.00000  Uiso   1.00
O318   O     0.57406   0.53525   0.18104   0.00000  Uiso   1.00
Zn319  Zn    0.50000   0.75001   0.30307   0.00000  Uiso   1.00
Zn320  Zn    0.50000   0.75000   0.19693   0.00000  Uiso   1.00
Br321  Br    0.92391   0.81077   0.14262   0.00000  Uiso   1.00
Br322  Br    0.76134   0.67322   0.35935   0.00000  Uiso   1.00
C323   C     0.83497   0.66370   0.25005   0.00000  Uiso   1.00
C324   C     0.80697   0.71744   0.44434   0.00000  Uiso   1.00
C325   C     0.82835   0.75391   0.02601   0.00000  Uiso   1.00
C326   C     0.82859   0.75420   0.47273   0.00000  Uiso   1.00
C327   C     0.73378   0.74930   0.23762   0.00000  Uiso   1.00
C328   C     0.93290   0.74981   0.26242   0.00000  Uiso   1.00
C329   C     0.67869   0.74743   0.23111   0.00000  Uiso   1.00
C330   C     0.98800   0.74988   0.26909   0.00000  Uiso   1.00
C331   C     0.84402   0.54440   0.28954   0.00000  Uiso   1.00
C332   C     0.83530   0.95567   0.21197   0.00000  Uiso   1.00
C333   C     0.83337   0.58973   0.28853   0.00000  Uiso   1.00
C334   C     0.83461   0.83629   0.25024   0.00000  Uiso   1.00
C335   C     0.82432   0.90983   0.21188   0.00000  Uiso   1.00
C336   C     0.84492   0.61594   0.25080   0.00000  Uiso   1.00
C337   C     0.84375   0.88445   0.25125   0.00000  Uiso   1.00
C338   C     0.86972   0.59708   0.21521   0.00000  Uiso   1.00
C339   C     0.87623   0.90450   0.28986   0.00000  Uiso   1.00
C340   C     0.88209   0.55186   0.21651   0.00000  Uiso   1.00
C341   C     0.88896   0.95025   0.28982   0.00000  Uiso   1.00
C342   C     0.86747   0.52507   0.25343   0.00000  Uiso   1.00
C343   C     0.86686   0.97620   0.25091   0.00000  Uiso   1.00
C344   C     0.78622   0.73501   0.04706   0.00000  Uiso   1.00
C345   C     0.85156   0.79001   0.44930   0.00000  Uiso   1.00
C346   C     0.79161   0.73011   0.09667   0.00000  Uiso   1.00
C347   C     0.85731   0.78535   0.40116   0.00000  Uiso   1.00
C348   C     0.87168   0.77257   0.10629   0.00000  Uiso   1.00
C349   C     0.80622   0.71749   0.39506   0.00000  Uiso   1.00
C350   C     0.87165   0.77170   0.05713   0.00000  Uiso   1.00
H351   H     0.99143   0.74396   0.19516   0.00000  Uiso   1.00
H352   H     0.78881   0.68907   0.45998   0.00000  Uiso   1.00
H353   H     0.92115   0.50522   0.19014   0.00000  Uiso   1.00
H354   H     0.93468   0.99865   0.32046   0.00000  Uiso   1.00
H355   H     0.73282   0.74017   0.49217   0.00000  Uiso   1.00
H356   H     0.84654   0.83595   0.49658   0.00000  Uiso   1.00
H357   H     0.76776   0.69316   0.14434   0.00000  Uiso   1.00
H358   H     0.90046   0.80525   0.35587   0.00000  Uiso   1.00
H359   H     0.67533   0.75270   0.30513   0.00000  Uiso   1.00
H360   H     0.83195   0.52390   0.31753   0.00000  Uiso   1.00
H361   H     0.81749   0.97551   0.18242   0.00000  Uiso   1.00
H362   H     0.81497   0.60388   0.31658   0.00000  Uiso   1.00
H363   H     0.79972   0.89435   0.18162   0.00000  Uiso   1.00
H364   H     0.88048   0.61764   0.18672   0.00000  Uiso   1.00
H365   H     0.89302   0.88443   0.31953   0.00000  Uiso   1.00
H366   H     0.90503   0.78665   0.04339   0.00000  Uiso   1.00
N367   N     0.83333   0.74999   0.12623   0.00000  Uiso   1.00
N368   N     0.83333   0.75001   0.37376   0.00000  Uiso   1.00
O369   O     0.83334   0.68454   0.28974   0.00000  Uiso   1.00
O370   O     0.92220   0.96812   0.32829   0.00000  Uiso   1.00
O371   O     0.73886   0.72141   0.02093   0.00000  Uiso   1.00
O372   O     0.86836   0.83037   0.47153   0.00000  Uiso   1.00
O373   O     0.75217   0.70661   0.11427   0.00000  Uiso   1.00
O374   O     0.88574   0.81869   0.38235   0.00000  Uiso   1.00
O375   O     0.83333   0.81547   0.21026   0.00000  Uiso   1.00
O376   O     0.83334   0.68453   0.21026   0.00000  Uiso   1.00
O377   O     0.83333   0.81547   0.28974   0.00000  Uiso   1.00
O378   O     0.75725   0.75000   0.28044   0.00000  Uiso   1.00
O379   O     0.90942   0.75000   0.21955   0.00000  Uiso   1.00
O380   O     0.75725   0.75000   0.20096   0.00000  Uiso   1.00
O381   O     0.90942   0.75001   0.29903   0.00000  Uiso   1.00
O382   O     0.90739   0.53525   0.18104   0.00000  Uiso   1.00
Zn383  Zn    0.83333   0.75001   0.30307   0.00000  Uiso   1.00
Zn384  Zn    0.83333   0.75000   0.19693   0.00000  Uiso   1.00
Br385  Br    0.25725   0.31077   0.64262   0.00000  Uiso   1.00
Br386  Br    0.09468   0.17322   0.85935   0.00000  Uiso   1.00
C387   C     0.16830   0.16370   0.75005   0.00000  Uiso   1.00
C388   C     0.14031   0.21744   0.94434   0.00000  Uiso   1.00
C389   C     0.16168   0.25391   0.52601   0.00000  Uiso   1.00
C390   C     0.16192   0.25420   0.97273   0.00000  Uiso   1.00
C391   C     0.06711   0.24930   0.73762   0.00000  Uiso   1.00
C392   C     0.26623   0.24981   0.76242   0.00000  Uiso   1.00
C393   C     0.01203   0.24743   0.73111   0.00000  Uiso   1.00
C394   C     0.32133   0.24988   0.76909   0.00000  Uiso   1.00
C395   C     0.17735   0.04440   0.78954   0.00000  Uiso   1.00
C396   C     0.16863   0.45567   0.71197   0.00000  Uiso   1.00
C397   C     0.16671   0.08973   0.78853   0.00000  Uiso   1.00
C398   C     0.16794   0.33629   0.75024   0.00000  Uiso   1.00
C399   C     0.15765   0.40983   0.71188   0.00000  Uiso   1.00
C400   C     0.17825   0.11594   0.75080   0.00000  Uiso   1.00
C401   C     0.17709   0.38445   0.75125   0.00000  Uiso   1.00
C402   C     0.20306   0.09708   0.71521   0.00000  Uiso   1.00
C403   C     0.20956   0.40450   0.78986   0.00000  Uiso   1.00
C404   C     0.21542   0.05186   0.71651   0.00000  Uiso   1.00
C405   C     0.22230   0.45025   0.78982   0.00000  Uiso   1.00
C406   C     0.20080   0.02507   0.75343   0.00000  Uiso   1.00
C407   C     0.20019   0.47620   0.75091   0.00000  Uiso   1.00
C408   C     0.11956   0.23501   0.54706   0.00000  Uiso   1.00
C409   C     0.18490   0.29001   0.94930   0.00000  Uiso   1.00
C410   C     0.12495   0.23011   0.59667   0.00000  Uiso   1.00
C411   C     0.19064   0.28535   0.90116   0.00000  Uiso   1.00
C412   C     0.20502   0.27257   0.60629   0.00000  Uiso   1.00
C413   C     0.13956   0.21749   0.89506   0.00000  Uiso   1.00
C414   C     0.20499   0.27170   0.55713   0.00000  Uiso   1.00
H415   H     0.32477   0.24396   0.69516   0.00000  Uiso   1.00
H416   H     0.12214   0.18907   0.95998   0.00000  Uiso   1.00
H417   H     0.25448   0.00522   0.69014   0.00000  Uiso   1.00
H418   H     0.26801   0.49865   0.82046   0.00000  Uiso   1.00
H419   H     0.06615   0.24017   0.99217   0.00000  Uiso   1.00
H420   H     0.17987   0.33595   0.99658   0.00000  Uiso   1.00
H421   H     0.10109   0.19316   0.64434   0.00000  Uiso   1.00
H422   H     0.23380   0.30525   0.85587   0.00000  Uiso   1.00
H423   H     0.00866   0.25270   0.80513   0.00000  Uiso   1.00
H424   H     0.16529   0.02390   0.81753   0.00000  Uiso   1.00
H425   H     0.15083   0.47551   0.68242   0.00000  Uiso   1.00
H426   H     0.14830   0.10388   0.81658   0.00000  Uiso   1.00
H427   H     0.13306   0.39435   0.68162   0.00000  Uiso   1.00
H428   H     0.21382   0.11764   0.68672   0.00000  Uiso   1.00
H429   H     0.22635   0.38443   0.81953   0.00000  Uiso   1.00
H430   H     0.23836   0.28665   0.54339   0.00000  Uiso   1.00
N431   N     0.16667   0.24999   0.62623   0.00000  Uiso   1.00
N432   N     0.16667   0.25001   0.87376   0.00000  Uiso   1.00
O433   O     0.16667   0.18454   0.78974   0.00000  Uiso   1.00
O434   O     0.25553   0.46812   0.82829   0.00000  Uiso   1.00
O435   O     0.07220   0.22141   0.52093   0.00000  Uiso   1.00
O436   O     0.20169   0.33037   0.97153   0.00000  Uiso   1.00
O437   O     0.08551   0.20661   0.61427   0.00000  Uiso   1.00
O438   O     0.21908   0.31869   0.88235   0.00000  Uiso   1.00
O439   O     0.16666   0.31547   0.71026   0.00000  Uiso   1.00
O440   O     0.16667   0.18453   0.71026   0.00000  Uiso   1.00
O441   O     0.16666   0.31547   0.78974   0.00000  Uiso   1.00
O442   O     0.09058   0.25000   0.78044   0.00000  Uiso   1.00
O443   O     0.24275   0.25000   0.71955   0.00000  Uiso   1.00
O444   O     0.09058   0.25000   0.70096   0.00000  Uiso   1.00
O445   O     0.24275   0.25001   0.79903   0.00000  Uiso   1.00
O446   O     0.24073   0.03525   0.68104   0.00000  Uiso   1.00
Zn447  Zn    0.16667   0.25001   0.80307   0.00000  Uiso   1.00
Zn448  Zn    0.16667   0.25000   0.69693   0.00000  Uiso   1.00
Br449  Br    0.59058   0.31077   0.64262   0.00000  Uiso   1.00
Br450  Br    0.42801   0.17322   0.85935   0.00000  Uiso   1.00
C451   C     0.50163   0.16370   0.75005   0.00000  Uiso   1.00
C452   C     0.47364   0.21744   0.94434   0.00000  Uiso   1.00
C453   C     0.49502   0.25391   0.52601   0.00000  Uiso   1.00
C454   C     0.49525   0.25420   0.97273   0.00000  Uiso   1.00
C455   C     0.40044   0.24930   0.73762   0.00000  Uiso   1.00
C456   C     0.59956   0.24981   0.76242   0.00000  Uiso   1.00
C457   C     0.34536   0.24743   0.73111   0.00000  Uiso   1.00
C458   C     0.65466   0.24988   0.76909   0.00000  Uiso   1.00
C459   C     0.51069   0.04440   0.78954   0.00000  Uiso   1.00
C460   C     0.50196   0.45567   0.71197   0.00000  Uiso   1.00
C461   C     0.50004   0.08973   0.78853   0.00000  Uiso   1.00
C462   C     0.50128   0.33629   0.75024   0.00000  Uiso   1.00
C463   C     0.49098   0.40983   0.71188   0.00000  Uiso   1.00
C464   C     0.51158   0.11594   0.75080   0.00000  Uiso   1.00
C465   C     0.51042   0.38445   0.75125   0.00000  Uiso   1.00
C466   C     0.53639   0.09708   0.71521   0.00000  Uiso   1.00
C467   C     0.54290   0.40450   0.78986   0.00000  Uiso   1.00
C468   C     0.54876   0.05186   0.71651   0.00000  Uiso   1.00
C469   C     0.55563   0.45025   0.78982   0.00000  Uiso   1.00
C470   C     0.53413   0.02507   0.75343   0.00000  Uiso   1.00
C471   C     0.53352   0.47620   0.75091   0.00000  Uiso   1.00
C472   C     0.45289   0.23501   0.54706   0.00000  Uiso   1.00
C473   C     0.51823   0.29001   0.94930   0.00000  Uiso   1.00
C474   C     0.45828   0.23011   0.59667   0.00000  Uiso   1.00
C475   C     0.52398   0.28535   0.90116   0.00000  Uiso   1.00
C476   C     0.53835   0.27257   0.60629   0.00000  Uiso   1.00
C477   C     0.47289   0.21749   0.89506   0.00000  Uiso   1.00
C478   C     0.53832   0.27170   0.55713   0.00000  Uiso   1.00
H479   H     0.65810   0.24396   0.69516   0.00000  Uiso   1.00
H480   H     0.45548   0.18907   0.95998   0.00000  Uiso   1.00
H481   H     0.58782   0.00522   0.69014   0.00000  Uiso   1.00
H482   H     0.60134   0.49865   0.82046   0.00000  Uiso   1.00
H483   H     0.39948   0.24017   0.99217   0.00000  Uiso   1.00
H484   H     0.51320   0.33595   0.99658   0.00000  Uiso   1.00
H485   H     0.43442   0.19316   0.64434   0.00000  Uiso   1.00
H486   H     0.56713   0.30525   0.85587   0.00000  Uiso   1.00
H487   H     0.34199   0.25270   0.80513   0.00000  Uiso   1.00
H488   H     0.49862   0.02390   0.81753   0.00000  Uiso   1.00
H489   H     0.48416   0.47551   0.68242   0.00000  Uiso   1.00
H490   H     0.48163   0.10388   0.81658   0.00000  Uiso   1.00
H491   H     0.46639   0.39435   0.68162   0.00000  Uiso   1.00
H492   H     0.54715   0.11764   0.68672   0.00000  Uiso   1.00
H493   H     0.55969   0.38443   0.81953   0.00000  Uiso   1.00
H494   H     0.57170   0.28665   0.54339   0.00000  Uiso   1.00
N495   N     0.50000   0.24999   0.62623   0.00000  Uiso   1.00
N496   N     0.50000   0.25001   0.87376   0.00000  Uiso   1.00
O497   O     0.50000   0.18454   0.78974   0.00000  Uiso   1.00
O498   O     0.58886   0.46812   0.82829   0.00000  Uiso   1.00
O499   O     0.40553   0.22141   0.52093   0.00000  Uiso   1.00
O500   O     0.53502   0.33037   0.97153   0.00000  Uiso   1.00
O501   O     0.41884   0.20661   0.61427   0.00000  Uiso   1.00
O502   O     0.55241   0.31869   0.88235   0.00000  Uiso   1.00
O503   O     0.50000   0.31547   0.71026   0.00000  Uiso   1.00
O504   O     0.50000   0.18453   0.71026   0.00000  Uiso   1.00
O505   O     0.50000   0.31547   0.78974   0.00000  Uiso   1.00
O506   O     0.42392   0.25000   0.78044   0.00000  Uiso   1.00
O507   O     0.57608   0.25000   0.71955   0.00000  Uiso   1.00
O508   O     0.42392   0.25000   0.70096   0.00000  Uiso   1.00
O509   O     0.57608   0.25001   0.79903   0.00000  Uiso   1.00
O510   O     0.57406   0.03525   0.68104   0.00000  Uiso   1.00
Zn511  Zn    0.50000   0.25001   0.80307   0.00000  Uiso   1.00
Zn512  Zn    0.50000   0.25000   0.69693   0.00000  Uiso   1.00
Br513  Br    0.92391   0.31077   0.64262   0.00000  Uiso   1.00
Br514  Br    0.76134   0.17322   0.85935   0.00000  Uiso   1.00
C515   C     0.83497   0.16370   0.75005   0.00000  Uiso   1.00
C516   C     0.80697   0.21744   0.94434   0.00000  Uiso   1.00
C517   C     0.82835   0.25391   0.52601   0.00000  Uiso   1.00
C518   C     0.82859   0.25420   0.97273   0.00000  Uiso   1.00
C519   C     0.73378   0.24930   0.73762   0.00000  Uiso   1.00
C520   C     0.93290   0.24981   0.76242   0.00000  Uiso   1.00
C521   C     0.67869   0.24743   0.73111   0.00000  Uiso   1.00
C522   C     0.98800   0.24988   0.76909   0.00000  Uiso   1.00
C523   C     0.84402   0.04440   0.78954   0.00000  Uiso   1.00
C524   C     0.83530   0.45567   0.71197   0.00000  Uiso   1.00
C525   C     0.83337   0.08973   0.78853   0.00000  Uiso   1.00
C526   C     0.83461   0.33629   0.75024   0.00000  Uiso   1.00
C527   C     0.82432   0.40983   0.71188   0.00000  Uiso   1.00
C528   C     0.84492   0.11594   0.75080   0.00000  Uiso   1.00
C529   C     0.84375   0.38445   0.75125   0.00000  Uiso   1.00
C530   C     0.86972   0.09708   0.71521   0.00000  Uiso   1.00
C531   C     0.87623   0.40450   0.78986   0.00000  Uiso   1.00
C532   C     0.88209   0.05186   0.71651   0.00000  Uiso   1.00
C533   C     0.88896   0.45025   0.78982   0.00000  Uiso   1.00
C534   C     0.86747   0.02507   0.75343   0.00000  Uiso   1.00
C535   C     0.86686   0.47620   0.75091   0.00000  Uiso   1.00
C536   C     0.78622   0.23501   0.54706   0.00000  Uiso   1.00
C537   C     0.85156   0.29001   0.94930   0.00000  Uiso   1.00
C538   C     0.79161   0.23011   0.59667   0.00000  Uiso   1.00
C539   C     0.85731   0.28535   0.90116   0.00000  Uiso   1.00
C540   C     0.87168   0.27257   0.60629   0.00000  Uiso   1.00
C541   C     0.80622   0.21749   0.89506   0.00000  Uiso   1.00
C542   C     0.87165   0.27170   0.55713   0.00000  Uiso   1.00
H543   H     0.99143   0.24396   0.69516   0.00000  Uiso   1.00
H544   H     0.78881   0.18907   0.95998   0.00000  Uiso   1.00
H545   H     0.92115   0.00522   0.69014   0.00000  Uiso   1.00
H546   H     0.93468   0.49865   0.82046   0.00000  Uiso   1.00
H547   H     0.73282   0.24017   0.99217   0.00000  Uiso   1.00
H548   H     0.84654   0.33595   0.99658   0.00000  Uiso   1.00
H549   H     0.76776   0.19316   0.64434   0.00000  Uiso   1.00
H550   H     0.90046   0.30525   0.85587   0.00000  Uiso   1.00
H551   H     0.67533   0.25270   0.80513   0.00000  Uiso   1.00
H552   H     0.83195   0.02390   0.81753   0.00000  Uiso   1.00
H553   H     0.81749   0.47551   0.68242   0.00000  Uiso   1.00
H554   H     0.81497   0.10388   0.81658   0.00000  Uiso   1.00
H555   H     0.79972   0.39435   0.68162   0.00000  Uiso   1.00
H556   H     0.88048   0.11764   0.68672   0.00000  Uiso   1.00
H557   H     0.89302   0.38443   0.81953   0.00000  Uiso   1.00
H558   H     0.90503   0.28665   0.54339   0.00000  Uiso   1.00
N559   N     0.83333   0.24999   0.62623   0.00000  Uiso   1.00
N560   N     0.83333   0.25001   0.87376   0.00000  Uiso   1.00
O561   O     0.83334   0.18454   0.78974   0.00000  Uiso   1.00
O562   O     0.92220   0.46812   0.82829   0.00000  Uiso   1.00
O563   O     0.73886   0.22141   0.52093   0.00000  Uiso   1.00
O564   O     0.86836   0.33037   0.97153   0.00000  Uiso   1.00
O565   O     0.75217   0.20661   0.61427   0.00000  Uiso   1.00
O566   O     0.88574   0.31869   0.88235   0.00000  Uiso   1.00
O567   O     0.83333   0.31547   0.71026   0.00000  Uiso   1.00
O568   O     0.83334   0.18453   0.71026   0.00000  Uiso   1.00
O569   O     0.83333   0.31547   0.78974   0.00000  Uiso   1.00
O570   O     0.75725   0.25000   0.78044   0.00000  Uiso   1.00
O571   O     0.90942   0.25000   0.71955   0.00000  Uiso   1.00
O572   O     0.75725   0.25000   0.70096   0.00000  Uiso   1.00
O573   O     0.90942   0.25001   0.79903   0.00000  Uiso   1.00
O574   O     0.90739   0.03525   0.68104   0.00000  Uiso   1.00
Zn575  Zn    0.83333   0.25001   0.80307   0.00000  Uiso   1.00
Zn576  Zn    0.83333   0.25000   0.69693   0.00000  Uiso   1.00
Br577  Br    0.25725   0.81077   0.64262   0.00000  Uiso   1.00
Br578  Br    0.09468   0.67322   0.85935   0.00000  Uiso   1.00
C579   C     0.16830   0.66370   0.75005   0.00000  Uiso   1.00
C580   C     0.14031   0.71744   0.94434   0.00000  Uiso   1.00
C581   C     0.16168   0.75391   0.52601   0.00000  Uiso   1.00
C582   C     0.16192   0.75420   0.97273   0.00000  Uiso   1.00
C583   C     0.06711   0.74930   0.73762   0.00000  Uiso   1.00
C584   C     0.26623   0.74981   0.76242   0.00000  Uiso   1.00
C585   C     0.01203   0.74743   0.73111   0.00000  Uiso   1.00
C586   C     0.32133   0.74988   0.76909   0.00000  Uiso   1.00
C587   C     0.17735   0.54440   0.78954   0.00000  Uiso   1.00
C588   C     0.16863   0.95567   0.71197   0.00000  Uiso   1.00
C589   C     0.16671   0.58973   0.78853   0.00000  Uiso   1.00
C590   C     0.16794   0.83629   0.75024   0.00000  Uiso   1.00
C591   C     0.15765   0.90983   0.71188   0.00000  Uiso   1.00
C592   C     0.17825   0.61594   0.75080   0.00000  Uiso   1.00
C593   C     0.17709   0.88445   0.75125   0.00000  Uiso   1.00
C594   C     0.20306   0.59708   0.71521   0.00000  Uiso   1.00
C595   C     0.20956   0.90450   0.78986   0.00000  Uiso   1.00
C596   C     0.21542   0.55186   0.71651   0.00000  Uiso   1.00
C597   C     0.22230   0.95025   0.78982   0.00000  Uiso   1.00
C598   C     0.20080   0.52507   0.75343   0.00000  Uiso   1.00
C599   C     0.20019   0.97620   0.75091   0.00000  Uiso   1.00
C600   C     0.11956   0.73501   0.54706   0.00000  Uiso   1.00
C601   C     0.18490   0.79001   0.94930   0.00000  Uiso   1.00
C602   C     0.12495   0.73011   0.59667   0.00000  Uiso   1.00
C603   C     0.19064   0.78535   0.90116   0.00000  Uiso   1.00
C604   C     0.20502   0.77257   0.60629   0.00000  Uiso   1.00
C605   C     0.13956   0.71749   0.89506   0.00000  Uiso   1.00
C606   C     0.20499   0.77170   0.55713   0.00000  Uiso   1.00
H607   H     0.32477   0.74396   0.69516   0.00000  Uiso   1.00
H608   H     0.12214   0.68907   0.95998   0.00000  Uiso   1.00
H609   H     0.25448   0.50522   0.69014   0.00000  Uiso   1.00
H610   H     0.26801   0.99865   0.82046   0.00000  Uiso   1.00
H611   H     0.06615   0.74017   0.99217   0.00000  Uiso   1.00
H612   H     0.17987   0.83595   0.99658   0.00000  Uiso   1.00
H613   H     0.10109   0.69316   0.64434   0.00000  Uiso   1.00
H614   H     0.23380   0.80525   0.85587   0.00000  Uiso   1.00
H615   H     0.00866   0.75270   0.80513   0.00000  Uiso   1.00
H616   H     0.16529   0.52390   0.81753   0.00000  Uiso   1.00
H617   H     0.15083   0.97551   0.68242   0.00000  Uiso   1.00
H618   H     0.14830   0.60388   0.81658   0.00000  Uiso   1.00
H619   H     0.13306   0.89435   0.68162   0.00000  Uiso   1.00
H620   H     0.21382   0.61764   0.68672   0.00000  Uiso   1.00
H621   H     0.22635   0.88443   0.81953   0.00000  Uiso   1.00
H622   H     0.23836   0.78665   0.54339   0.00000  Uiso   1.00
N623   N     0.16667   0.74999   0.62623   0.00000  Uiso   1.00
N624   N     0.16667   0.75001   0.87376   0.00000  Uiso   1.00
O625   O     0.16667   0.68454   0.78974   0.00000  Uiso   1.00
O626   O     0.25553   0.96812   0.82829   0.00000  Uiso   1.00
O627   O     0.07220   0.72141   0.52093   0.00000  Uiso   1.00
O628   O     0.20169   0.83037   0.97153   0.00000  Uiso   1.00
O629   O     0.08551   0.70661   0.61427   0.00000  Uiso   1.00
O630   O     0.21908   0.81869   0.88235   0.00000  Uiso   1.00
O631   O     0.16666   0.81547   0.71026   0.00000  Uiso   1.00
O632   O     0.16667   0.68453   0.71026   0.00000  Uiso   1.00
O633   O     0.16666   0.81547   0.78974   0.00000  Uiso   1.00
O634   O     0.09058   0.75000   0.78044   0.00000  Uiso   1.00
O635   O     0.24275   0.75000   0.71955   0.00000  Uiso   1.00
O636   O     0.09058   0.75000   0.70096   0.00000  Uiso   1.00
O637   O     0.24275   0.75001   0.79903   0.00000  Uiso   1.00
O638   O     0.24073   0.53525   0.68104   0.00000  Uiso   1.00
Zn639  Zn    0.16667   0.75001   0.80307   0.00000  Uiso   1.00
Zn640  Zn    0.16667   0.75000   0.69693   0.00000  Uiso   1.00
Br641  Br    0.59058   0.81077   0.64262   0.00000  Uiso   1.00
Br642  Br    0.42801   0.67322   0.85935   0.00000  Uiso   1.00
C643   C     0.50163   0.66370   0.75005   0.00000  Uiso   1.00
C644   C     0.47364   0.71744   0.94434   0.00000  Uiso   1.00
C645   C     0.49502   0.75391   0.52601   0.00000  Uiso   1.00
C646   C     0.49525   0.75420   0.97273   0.00000  Uiso   1.00
C647   C     0.40044   0.74930   0.73762   0.00000  Uiso   1.00
C648   C     0.59956   0.74981   0.76242   0.00000  Uiso   1.00
C649   C     0.34536   0.74743   0.73111   0.00000  Uiso   1.00
C650   C     0.65466   0.74988   0.76909   0.00000  Uiso   1.00
C651   C     0.51069   0.54440   0.78954   0.00000  Uiso   1.00
C652   C     0.50196   0.95567   0.71197   0.00000  Uiso   1.00
C653   C     0.50004   0.58973   0.78853   0.00000  Uiso   1.00
C654   C     0.50128   0.83629   0.75024   0.00000  Uiso   1.00
C655   C     0.49098   0.90983   0.71188   0.00000  Uiso   1.00
C656   C     0.51158   0.61594   0.75080   0.00000  Uiso   1.00
C657   C     0.51042   0.88445   0.75125   0.00000  Uiso   1.00
C658   C     0.53639   0.59708   0.71521   0.00000  Uiso   1.00
C659   C     0.54290   0.90450   0.78986   0.00000  Uiso   1.00
C660   C     0.54876   0.55186   0.71651   0.00000  Uiso   1.00
C661   C     0.55563   0.95025   0.78982   0.00000  Uiso   1.00
C662   C     0.53413   0.52507   0.75343   0.00000  Uiso   1.00
C663   C     0.53352   0.97620   0.75091   0.00000  Uiso   1.00
C664   C     0.45289   0.73501   0.54706   0.00000  Uiso   1.00
C665   C     0.51823   0.79001   0.94930   0.00000  Uiso   1.00
C666   C     0.45828   0.73011   0.59667   0.00000  Uiso   1.00
C667   C     0.52398   0.78535   0.90116   0.00000  Uiso   1.00
C668   C     0.53835   0.77257   0.60629   0.00000  Uiso   1.00
C669   C     0.47289   0.71749   0.89506   0.00000  Uiso   1.00
C670   C     0.53832   0.77170   0.55713   0.00000  Uiso   1.00
H671   H     0.65810   0.74396   0.69516   0.00000  Uiso   1.00
H672   H     0.45548   0.68907   0.95998   0.00000  Uiso   1.00
H673   H     0.58782   0.50522   0.69014   0.00000  Uiso   1.00
H674   H     0.60134   0.99865   0.82046   0.00000  Uiso   1.00
H675   H     0.39948   0.74017   0.99217   0.00000  Uiso   1.00
H676   H     0.51320   0.83595   0.99658   0.00000  Uiso   1.00
H677   H     0.43442   0.69316   0.64434   0.00000  Uiso   1.00
H678   H     0.56713   0.80525   0.85587   0.00000  Uiso   1.00
H679   H     0.34199   0.75270   0.80513   0.00000  Uiso   1.00
H680   H     0.49862   0.52390   0.81753   0.00000  Uiso   1.00
H681   H     0.48416   0.97551   0.68242   0.00000  Uiso   1.00
H682   H     0.48163   0.60388   0.81658   0.00000  Uiso   1.00
H683   H     0.46639   0.89435   0.68162   0.00000  Uiso   1.00
H684   H     0.54715   0.61764   0.68672   0.00000  Uiso   1.00
H685   H     0.55969   0.88443   0.81953   0.00000  Uiso   1.00
H686   H     0.57170   0.78665   0.54339   0.00000  Uiso   1.00
N687   N     0.50000   0.74999   0.62623   0.00000  Uiso   1.00
N688   N     0.50000   0.75001   0.87376   0.00000  Uiso   1.00
O689   O     0.50000   0.68454   0.78974   0.00000  Uiso   1.00
O690   O     0.58886   0.96812   0.82829   0.00000  Uiso   1.00
O691   O     0.40553   0.72141   0.52093   0.00000  Uiso   1.00
O692   O     0.53502   0.83037   0.97153   0.00000  Uiso   1.00
O693   O     0.41884   0.70661   0.61427   0.00000  Uiso   1.00
O694   O     0.55241   0.81869   0.88235   0.00000  Uiso   1.00
O695   O     0.50000   0.81547   0.71026   0.00000  Uiso   1.00
O696   O     0.50000   0.68453   0.71026   0.00000  Uiso   1.00
O697   O     0.50000   0.81547   0.78974   0.00000  Uiso   1.00
O698   O     0.42392   0.75000   0.78044   0.00000  Uiso   1.00
O699   O     0.57608   0.75000   0.71955   0.00000  Uiso   1.00
O700   O     0.42392   0.75000   0.70096   0.00000  Uiso   1.00
O701   O     0.57608   0.75001   0.79903   0.00000  Uiso   1.00
O702   O     0.57406   0.53525   0.68104   0.00000  Uiso   1.00
Zn703  Zn    0.50000   0.75001   0.80307   0.00000  Uiso   1.00
Zn704  Zn    0.50000   0.75000   0.69693   0.00000  Uiso   1.00
Br705  Br    0.92391   0.81077   0.64262   0.00000  Uiso   1.00
Br706  Br    0.76134   0.67322   0.85935   0.00000  Uiso   1.00
C707   C     0.83497   0.66370   0.75005   0.00000  Uiso   1.00
C708   C     0.80697   0.71744   0.94434   0.00000  Uiso   1.00
C709   C     0.82835   0.75391   0.52601   0.00000  Uiso   1.00
C710   C     0.82859   0.75420   0.97273   0.00000  Uiso   1.00
C711   C     0.73378   0.74930   0.73762   0.00000  Uiso   1.00
C712   C     0.93290   0.74981   0.76242   0.00000  Uiso   1.00
C713   C     0.67869   0.74743   0.73111   0.00000  Uiso   1.00
C714   C     0.98800   0.74988   0.76909   0.00000  Uiso   1.00
C715   C     0.84402   0.54440   0.78954   0.00000  Uiso   1.00
C716   C     0.83530   0.95567   0.71197   0.00000  Uiso   1.00
C717   C     0.83337   0.58973   0.78853   0.00000  Uiso   1.00
C718   C     0.83461   0.83629   0.75024   0.00000  Uiso   1.00
C719   C     0.82432   0.90983   0.71188   0.00000  Uiso   1.00
C720   C     0.84492   0.61594   0.75080   0.00000  Uiso   1.00
C721   C     0.84375   0.88445   0.75125   0.00000  Uiso   1.00
C722   C     0.86972   0.59708   0.71521   0.00000  Uiso   1.00
C723   C     0.87623   0.90450   0.78986   0.00000  Uiso   1.00
C724   C     0.88209   0.55186   0.71651   0.00000  Uiso   1.00
C725   C     0.88896   0.95025   0.78982   0.00000  Uiso   1.00
C726   C     0.86747   0.52507   0.75343   0.00000  Uiso   1.00
C727   C     0.86686   0.97620   0.75091   0.00000  Uiso   1.00
C728   C     0.78622   0.73501   0.54706   0.00000  Uiso   1.00
C729   C     0.85156   0.79001   0.94930   0.00000  Uiso   1.00
C730   C     0.79161   0.73011   0.59667   0.00000  Uiso   1.00
C731   C     0.85731   0.78535   0.90116   0.00000  Uiso   1.00
C732   C     0.87168   0.77257   0.60629   0.00000  Uiso   1.00
C733   C     0.80622   0.71749   0.89506   0.00000  Uiso   1.00
C734   C     0.87165   0.77170   0.55713   0.00000  Uiso   1.00
H735   H     0.99143   0.74396   0.69516   0.00000  Uiso   1.00
H736   H     0.78881   0.68907   0.95998   0.00000  Uiso   1.00
H737   H     0.92115   0.50522   0.69014   0.00000  Uiso   1.00
H738   H     0.93468   0.99865   0.82046   0.00000  Uiso   1.00
H739   H     0.73282   0.74017   0.99217   0.00000  Uiso   1.00
H740   H     0.84654   0.83595   0.99658   0.00000  Uiso   1.00
H741   H     0.76776   0.69316   0.64434   0.00000  Uiso   1.00
H742   H     0.90046   0.80525   0.85587   0.00000  Uiso   1.00
H743   H     0.67533   0.75270   0.80513   0.00000  Uiso   1.00
H744   H     0.83195   0.52390   0.81753   0.00000  Uiso   1.00
H745   H     0.81749   0.97551   0.68242   0.00000  Uiso   1.00
H746   H     0.81497   0.60388   0.81658   0.00000  Uiso   1.00
H747   H     0.79972   0.89435   0.68162   0.00000  Uiso   1.00
H748   H     0.88048   0.61764   0.68672   0.00000  Uiso   1.00
H749   H     0.89302   0.88443   0.81953   0.00000  Uiso   1.00
H750   H     0.90503   0.78665   0.54339   0.00000  Uiso   1.00
N751   N     0.83333   0.74999   0.62623   0.00000  Uiso   1.00
N752   N     0.83333   0.75001   0.87376   0.00000  Uiso   1.00
O753   O     0.83334   0.68454   0.78974   0.00000  Uiso   1.00
O754   O     0.92220   0.96812   0.82829   0.00000  Uiso   1.00
O755   O     0.73886   0.72141   0.52093   0.00000  Uiso   1.00
O756   O     0.86836   0.83037   0.97153   0.00000  Uiso   1.00
O757   O     0.75217   0.70661   0.61427   0.00000  Uiso   1.00
O758   O     0.88574   0.81869   0.88235   0.00000  Uiso   1.00
O759   O     0.83333   0.81547   0.71026   0.00000  Uiso   1.00
O760   O     0.83334   0.68453   0.71026   0.00000  Uiso   1.00
O761   O     0.83333   0.81547   0.78974   0.00000  Uiso   1.00
O762   O     0.75725   0.75000   0.78044   0.00000  Uiso   1.00
O763   O     0.90942   0.75000   0.71955   0.00000  Uiso   1.00
O764   O     0.75725   0.75000   0.70096   0.00000  Uiso   1.00
O765   O     0.90942   0.75001   0.79903   0.00000  Uiso   1.00
O766   O     0.90739   0.53525   0.68104   0.00000  Uiso   1.00
Zn767  Zn    0.83333   0.75001   0.80307   0.00000  Uiso   1.00
Zn768  Zn    0.83333   0.75000   0.69693   0.00000  Uiso   1.00
loop_
_geom_bond_atom_site_label_1
_geom_bond_atom_site_label_2
_geom_bond_distance
_geom_bond_site_symmetry_2
_ccdc_geom_bond_type
Br1    C28     1.911   .     S
Br2    C29     1.909   .     S
C3     C16     1.447   .     S
C3     O56     1.293   .     A
C3     O49     1.296   .     A
C4     C29     1.406   .     A
C4     H32     1.082   .     S
C4     C6      1.406   .     A
C5     C24     1.420   .     A
C5     C30     1.406   .     A
C5     C390    1.524   1_554 S
C6     C25     1.420   .     A
C6     C389    1.524   .     S
C7     O58     1.281   .     A
C7     C9      1.403   .     S
C7     O60     1.286   .     A
C8     O61     1.285   .     A
C8     C10     1.404   .     S
C8     O59     1.283   .     A
C9     C138    1.331   1_455 S
C9     H159    1.086   1_455 S
C10    C73     1.331   .     S
C10    H103    1.088   .     S
C11    C13     1.380   .     A
C11    H40     1.084   .     S
C11    C22     1.400   .     A
C12    H41     1.084   .     S
C12    C15     1.381   .     A
C12    C23     1.401   .     A
C13    H42     1.080   .     S
C13    C16     1.395   .     A
C14    O55     1.292   .     A
C14    C17     1.440   .     S
C14    O57     1.294   .     A
C15    H43     1.084   .     S
C15    C17     1.395   .     A
C16    C18     1.402   .     A
C17    C19     1.400   .     A
C18    H44     1.084   .     S
C18    C20     1.387   .     A
C19    C21     1.387   .     A
C19    H45     1.082   .     S
C20    O62     1.381   .     S
C20    C22     1.413   .     A
C21    C23     1.414   .     A
C21    O50     1.381   .     S
C22    C215    1.451   1_545 S
C23    C214    1.451   .     S
C24    O51     1.380   .     S
C24    C26     1.413   .     A
C25    C27     1.412   .     A
C25    O52     1.380   .     S
C26    N47     1.379   .     A
C26    O53     1.374   .     S
C27    N48     1.379   .     A
C27    O54     1.373   .     S
C28    N47     1.373   .     A
C28    C30     1.405   .     A
C29    N48     1.372   .     A
C30    H46     1.082   .     S
H31    C73     1.086   .     S
H33    O62     0.990   .     S
H34    O50     0.990   .     S
H35    O435    0.990   .     S
H36    O52     0.990   .     S
H37    O53     0.984   .     S
H38    O54     0.983   .     S
H39    C138    1.088   1_455 S
N47    Zn64    2.021   .     S
N48    Zn63    2.021   .     S
O49    Zn63    1.977   .     S
O51    H419    0.990   1_554 S
O55    Zn64    1.977   .     S
O56    Zn64    1.981   .     S
O57    Zn63    1.981   .     S
O58    Zn63    1.970   .     S
O59    Zn64    1.970   .     S
O60    Zn64    1.981   .     S
O61    Zn63    1.981   .     S
Br65   C92     1.911   .     S
Br66   C93     1.909   .     S
C67    C80     1.447   .     S
C67    O120    1.293   .     A
C67    O113    1.296   .     A
C68    C93     1.406   .     A
C68    H96     1.082   .     S
C68    C70     1.406   .     A
C69    C88     1.420   .     A
C69    C94     1.406   .     A
C69    C454    1.524   1_554 S
C70    C89     1.420   .     A
C70    C453    1.524   .     S
C71    O122    1.281   .     A
C71    C73     1.403   .     S
C71    O124    1.286   .     A
C72    O125    1.285   .     A
C72    C74     1.404   .     S
C72    O123    1.283   .     A
C74    C137    1.331   .     S
C74    H167    1.088   .     S
C75    C77     1.380   .     A
C75    H104    1.084   .     S
C75    C86     1.400   .     A
C76    H105    1.084   .     S
C76    C79     1.381   .     A
C76    C87     1.401   .     A
C77    H106    1.080   .     S
C77    C80     1.395   .     A
C78    O119    1.292   .     A
C78    C81     1.440   .     S
C78    O121    1.294   .     A
C79    H107    1.084   .     S
C79    C81     1.395   .     A
C80    C82     1.402   .     A
C81    C83     1.400   .     A
C82    H108    1.084   .     S
C82    C84     1.387   .     A
C83    C85     1.387   .     A
C83    H109    1.082   .     S
C84    O126    1.381   .     S
C84    C86     1.413   .     A
C85    C87     1.414   .     A
C85    O114    1.381   .     S
C86    C279    1.451   1_545 S
C87    C278    1.451   .     S
C88    O115    1.380   .     S
C88    C90     1.413   .     A
C89    C91     1.412   .     A
C89    O116    1.380   .     S
C90    N111    1.379   .     A
C90    O117    1.374   .     S
C91    N112    1.379   .     A
C91    O118    1.373   .     S
C92    N111    1.373   .     A
C92    C94     1.405   .     A
C93    N112    1.372   .     A
C94    H110    1.082   .     S
H95    C137    1.086   .     S
H97    O126    0.990   .     S
H98    O114    0.990   .     S
H99    O499    0.990   .     S
H100   O116    0.990   .     S
H101   O117    0.984   .     S
H102   O118    0.983   .     S
N111   Zn128   2.021   .     S
N112   Zn127   2.021   .     S
O113   Zn127   1.977   .     S
O115   H483    0.990   1_554 S
O119   Zn128   1.977   .     S
O120   Zn128   1.981   .     S
O121   Zn127   1.981   .     S
O122   Zn127   1.970   .     S
O123   Zn128   1.970   .     S
O124   Zn128   1.981   .     S
O125   Zn127   1.981   .     S
Br129  C156    1.911   .     S
Br130  C157    1.909   .     S
C131   C144    1.447   .     S
C131   O184    1.293   .     A
C131   O177    1.296   .     A
C132   C157    1.406   .     A
C132   H160    1.082   .     S
C132   C134    1.406   .     A
C133   C152    1.420   .     A
C133   C158    1.406   .     A
C133   C518    1.524   1_554 S
C134   C153    1.420   .     A
C134   C517    1.524   .     S
C135   O186    1.281   .     A
C135   C137    1.403   .     S
C135   O188    1.286   .     A
C136   O189    1.285   .     A
C136   C138    1.404   .     S
C136   O187    1.283   .     A
C138   C9      1.331   1_655 S
C138   H39     1.088   1_655 S
C139   C141    1.380   .     A
C139   H168    1.084   .     S
C139   C150    1.400   .     A
C140   H169    1.084   .     S
C140   C143    1.381   .     A
C140   C151    1.401   .     A
C141   H170    1.080   .     S
C141   C144    1.395   .     A
C142   O183    1.292   .     A
C142   C145    1.440   .     S
C142   O185    1.294   .     A
C143   H171    1.084   .     S
C143   C145    1.395   .     A
C144   C146    1.402   .     A
C145   C147    1.400   .     A
C146   H172    1.084   .     S
C146   C148    1.387   .     A
C147   C149    1.387   .     A
C147   H173    1.082   .     S
C148   O190    1.381   .     S
C148   C150    1.413   .     A
C149   C151    1.414   .     A
C149   O178    1.381   .     S
C150   C343    1.451   1_545 S
C151   C342    1.451   .     S
C152   O179    1.380   .     S
C152   C154    1.413   .     A
C153   C155    1.412   .     A
C153   O180    1.380   .     S
C154   N175    1.379   .     A
C154   O181    1.374   .     S
C155   N176    1.379   .     A
C155   O182    1.373   .     S
C156   N175    1.373   .     A
C156   C158    1.405   .     A
C157   N176    1.372   .     A
C158   H174    1.082   .     S
H159   C9      1.086   1_655 S
H161   O190    0.990   .     S
H162   O178    0.990   .     S
H163   O563    0.990   .     S
H164   O180    0.990   .     S
H165   O181    0.984   .     S
H166   O182    0.983   .     S
N175   Zn192   2.021   .     S
N176   Zn191   2.021   .     S
O177   Zn191   1.977   .     S
O179   H547    0.990   1_554 S
O183   Zn192   1.977   .     S
O184   Zn192   1.981   .     S
O185   Zn191   1.981   .     S
O186   Zn191   1.970   .     S
O187   Zn192   1.970   .     S
O188   Zn192   1.981   .     S
O189   Zn191   1.981   .     S
Br193  C220    1.911   .     S
Br194  C221    1.909   .     S
C195   C208    1.447   .     S
C195   O248    1.293   .     A
C195   O241    1.296   .     A
C196   C221    1.406   .     A
C196   H224    1.082   .     S
C196   C198    1.406   .     A
C197   C216    1.420   .     A
C197   C222    1.406   .     A
C197   C582    1.524   1_554 S
C198   C217    1.420   .     A
C198   C581    1.524   .     S
C199   O250    1.281   .     A
C199   C201    1.403   .     S
C199   O252    1.286   .     A
C200   O253    1.285   .     A
C200   C202    1.404   .     S
C200   O251    1.283   .     A
C201   C330    1.331   1_455 S
C201   H351    1.086   1_455 S
C202   C265    1.331   .     S
C202   H295    1.088   .     S
C203   C205    1.380   .     A
C203   H232    1.084   .     S
C203   C214    1.400   .     A
C204   H233    1.084   .     S
C204   C207    1.381   .     A
C204   C215    1.401   .     A
C205   H234    1.080   .     S
C205   C208    1.395   .     A
C206   O247    1.292   .     A
C206   C209    1.440   .     S
C206   O249    1.294   .     A
C207   H235    1.084   .     S
C207   C209    1.395   .     A
C208   C210    1.402   .     A
C209   C211    1.400   .     A
C210   H236    1.084   .     S
C210   C212    1.387   .     A
C211   C213    1.387   .     A
C211   H237    1.082   .     S
C212   O254    1.381   .     S
C212   C214    1.413   .     A
C213   C215    1.414   .     A
C213   O242    1.381   .     S
C215   C22     1.451   1_565 S
C216   O243    1.380   .     S
C216   C218    1.413   .     A
C217   C219    1.412   .     A
C217   O244    1.380   .     S
C218   N239    1.379   .     A
C218   O245    1.374   .     S
C219   N240    1.379   .     A
C219   O246    1.373   .     S
C220   N239    1.373   .     A
C220   C222    1.405   .     A
C221   N240    1.372   .     A
C222   H238    1.082   .     S
H223   C265    1.086   .     S
H225   O254    0.990   .     S
H226   O242    0.990   .     S
H227   O627    0.990   .     S
H228   O244    0.990   .     S
H229   O245    0.984   .     S
H230   O246    0.983   .     S
H231   C330    1.088   1_455 S
N239   Zn256   2.021   .     S
N240   Zn255   2.021   .     S
O241   Zn255   1.977   .     S
O243   H611    0.990   1_554 S
O247   Zn256   1.977   .     S
O248   Zn256   1.981   .     S
O249   Zn255   1.981   .     S
O250   Zn255   1.970   .     S
O251   Zn256   1.970   .     S
O252   Zn256   1.981   .     S
O253   Zn255   1.981   .     S
Br257  C284    1.911   .     S
Br258  C285    1.909   .     S
C259   C272    1.447   .     S
C259   O312    1.293   .     A
C259   O305    1.296   .     A
C260   C285    1.406   .     A
C260   H288    1.082   .     S
C260   C262    1.406   .     A
C261   C280    1.420   .     A
C261   C286    1.406   .     A
C261   C646    1.524   1_554 S
C262   C281    1.420   .     A
C262   C645    1.524   .     S
C263   O314    1.281   .     A
C263   C265    1.403   .     S
C263   O316    1.286   .     A
C264   O317    1.285   .     A
C264   C266    1.404   .     S
C264   O315    1.283   .     A
C266   C329    1.331   .     S
C266   H359    1.088   .     S
C267   C269    1.380   .     A
C267   H296    1.084   .     S
C267   C278    1.400   .     A
C268   H297    1.084   .     S
C268   C271    1.381   .     A
C268   C279    1.401   .     A
C269   H298    1.080   .     S
C269   C272    1.395   .     A
C270   O311    1.292   .     A
C270   C273    1.440   .     S
C270   O313    1.294   .     A
C271   H299    1.084   .     S
C271   C273    1.395   .     A
C272   C274    1.402   .     A
C273   C275    1.400   .     A
C274   H300    1.084   .     S
C274   C276    1.387   .     A
C275   C277    1.387   .     A
C275   H301    1.082   .     S
C276   O318    1.381   .     S
C276   C278    1.413   .     A
C277   C279    1.414   .     A
C277   O306    1.381   .     S
C279   C86     1.451   1_565 S
C280   O307    1.380   .     S
C280   C282    1.413   .     A
C281   C283    1.412   .     A
C281   O308    1.380   .     S
C282   N303    1.379   .     A
C282   O309    1.374   .     S
C283   N304    1.379   .     A
C283   O310    1.373   .     S
C284   N303    1.373   .     A
C284   C286    1.405   .     A
C285   N304    1.372   .     A
C286   H302    1.082   .     S
H287   C329    1.086   .     S
H289   O318    0.990   .     S
H290   O306    0.990   .     S
H291   O691    0.990   .     S
H292   O308    0.990   .     S
H293   O309    0.984   .     S
H294   O310    0.983   .     S
N303   Zn320   2.021   .     S
N304   Zn319   2.021   .     S
O305   Zn319   1.977   .     S
O307   H675    0.990   1_554 S
O311   Zn320   1.977   .     S
O312   Zn320   1.981   .     S
O313   Zn319   1.981   .     S
O314   Zn319   1.970   .     S
O315   Zn320   1.970   .     S
O316   Zn320   1.981   .     S
O317   Zn319   1.981   .     S
Br321  C348    1.911   .     S
Br322  C349    1.909   .     S
C323   C336    1.447   .     S
C323   O376    1.293   .     A
C323   O369    1.296   .     A
C324   C349    1.406   .     A
C324   H352    1.082   .     S
C324   C326    1.406   .     A
C325   C344    1.420   .     A
C325   C350    1.406   .     A
C325   C710    1.524   1_554 S
C326   C345    1.420   .     A
C326   C709    1.524   .     S
C327   O378    1.281   .     A
C327   C329    1.403   .     S
C327   O380    1.286   .     A
C328   O381    1.285   .     A
C328   C330    1.404   .     S
C328   O379    1.283   .     A
C330   C201    1.331   1_655 S
C330   H231    1.088   1_655 S
C331   C333    1.380   .     A
C331   H360    1.084   .     S
C331   C342    1.400   .     A
C332   H361    1.084   .     S
C332   C335    1.381   .     A
C332   C343    1.401   .     A
C333   H362    1.080   .     S
C333   C336    1.395   .     A
C334   O375    1.292   .     A
C334   C337    1.440   .     S
C334   O377    1.294   .     A
C335   H363    1.084   .     S
C335   C337    1.395   .     A
C336   C338    1.402   .     A
C337   C339    1.400   .     A
C338   H364    1.084   .     S
C338   C340    1.387   .     A
C339   C341    1.387   .     A
C339   H365    1.082   .     S
C340   O382    1.381   .     S
C340   C342    1.413   .     A
C341   C343    1.414   .     A
C341   O370    1.381   .     S
C343   C150    1.451   1_565 S
C344   O371    1.380   .     S
C344   C346    1.413   .     A
C345   C347    1.412   .     A
C345   O372    1.380   .     S
C346   N367    1.379   .     A
C346   O373    1.374   .     S
C347   N368    1.379   .     A
C347   O374    1.373   .     S
C348   N367    1.373   .     A
C348   C350    1.405   .     A
C349   N368    1.372   .     A
C350   H366    1.082   .     S
H351   C201    1.086   1_655 S
H353   O382    0.990   .     S
H354   O370    0.990   .     S
H355   O755    0.990   .     S
H356   O372    0.990   .     S
H357   O373    0.984   .     S
H358   O374    0.983   .     S
N367   Zn384   2.021   .     S
N368   Zn383   2.021   .     S
O369   Zn383   1.977   .     S
O371   H739    0.990   1_554 S
O375   Zn384   1.977   .     S
O376   Zn384   1.981   .     S
O377   Zn383   1.981   .     S
O378   Zn383   1.970   .     S
O379   Zn384   1.970   .     S
O380   Zn384   1.981   .     S
O381   Zn383   1.981   .     S
Br385  C412    1.911   .     S
Br386  C413    1.909   .     S
C387   C400    1.447   .     S
C387   O440    1.293   .     A
C387   O433    1.296   .     A
C388   C413    1.406   .     A
C388   H416    1.082   .     S
C388   C390    1.406   .     A
C389   C408    1.420   .     A
C389   C414    1.406   .     A
C390   C409    1.420   .     A
C390   C5      1.524   1_556 S
C391   O442    1.281   .     A
C391   C393    1.403   .     S
C391   O444    1.286   .     A
C392   O445    1.285   .     A
C392   C394    1.404   .     S
C392   O443    1.283   .     A
C393   C522    1.331   1_455 S
C393   H543    1.086   1_455 S
C394   C457    1.331   .     S
C394   H487    1.088   .     S
C395   C397    1.380   .     A
C395   H424    1.084   .     S
C395   C406    1.400   .     A
C396   H425    1.084   .     S
C396   C399    1.381   .     A
C396   C407    1.401   .     A
C397   H426    1.080   .     S
C397   C400    1.395   .     A
C398   O439    1.292   .     A
C398   C401    1.440   .     S
C398   O441    1.294   .     A
C399   H427    1.084   .     S
C399   C401    1.395   .     A
C400   C402    1.402   .     A
C401   C403    1.400   .     A
C402   H428    1.084   .     S
C402   C404    1.387   .     A
C403   C405    1.387   .     A
C403   H429    1.082   .     S
C404   O446    1.381   .     S
C404   C406    1.413   .     A
C405   C407    1.414   .     A
C405   O434    1.381   .     S
C406   C599    1.451   1_545 S
C407   C598    1.451   .     S
C408   O435    1.380   .     S
C408   C410    1.413   .     A
C409   C411    1.412   .     A
C409   O436    1.380   .     S
C410   N431    1.379   .     A
C410   O437    1.374   .     S
C411   N432    1.379   .     A
C411   O438    1.373   .     S
C412   N431    1.373   .     A
C412   C414    1.405   .     A
C413   N432    1.372   .     A
C414   H430    1.082   .     S
H415   C457    1.086   .     S
H417   O446    0.990   .     S
H418   O434    0.990   .     S
H419   O51     0.990   1_556 S
H420   O436    0.990   .     S
H421   O437    0.984   .     S
H422   O438    0.983   .     S
H423   C522    1.088   1_455 S
N431   Zn448   2.021   .     S
N432   Zn447   2.021   .     S
O433   Zn447   1.977   .     S
O439   Zn448   1.977   .     S
O440   Zn448   1.981   .     S
O441   Zn447   1.981   .     S
O442   Zn447   1.970   .     S
O443   Zn448   1.970   .     S
O444   Zn448   1.981   .     S
O445   Zn447   1.981   .     S
Br449  C476    1.911   .     S
Br450  C477    1.909   .     S
C451   C464    1.447   .     S
C451   O504    1.293   .     A
C451   O497    1.296   .     A
C452   C477    1.406   .     A
C452   H480    1.082   .     S
C452   C454    1.406   .     A
C453   C472    1.420   .     A
C453   C478    1.406   .     A
C454   C473    1.420   .     A
C454   C69     1.524   1_556 S
C455   O506    1.281   .     A
C455   C457    1.403   .     S
C455   O508    1.286   .     A
C456   O509    1.285   .     A
C456   C458    1.404   .     S
C456   O507    1.283   .     A
C458   C521    1.331   .     S
C458   H551    1.088   .     S
C459   C461    1.380   .     A
C459   H488    1.084   .     S
C459   C470    1.400   .     A
C460   H489    1.084   .     S
C460   C463    1.381   .     A
C460   C471    1.401   .     A
C461   H490    1.080   .     S
C461   C464    1.395   .     A
C462   O503    1.292   .     A
C462   C465    1.440   .     S
C462   O505    1.294   .     A
C463   H491    1.084   .     S
C463   C465    1.395   .     A
C464   C466    1.402   .     A
C465   C467    1.400   .     A
C466   H492    1.084   .     S
C466   C468    1.387   .     A
C467   C469    1.387   .     A
C467   H493    1.082   .     S
C468   O510    1.381   .     S
C468   C470    1.413   .     A
C469   C471    1.414   .     A
C469   O498    1.381   .     S
C470   C663    1.451   1_545 S
C471   C662    1.451   .     S
C472   O499    1.380   .     S
C472   C474    1.413   .     A
C473   C475    1.412   .     A
C473   O500    1.380   .     S
C474   N495    1.379   .     A
C474   O501    1.374   .     S
C475   N496    1.379   .     A
C475   O502    1.373   .     S
C476   N495    1.373   .     A
C476   C478    1.405   .     A
C477   N496    1.372   .     A
C478   H494    1.082   .     S
H479   C521    1.086   .     S
H481   O510    0.990   .     S
H482   O498    0.990   .     S
H483   O115    0.990   1_556 S
H484   O500    0.990   .     S
H485   O501    0.984   .     S
H486   O502    0.983   .     S
N495   Zn512   2.021   .     S
N496   Zn511   2.021   .     S
O497   Zn511   1.977   .     S
O503   Zn512   1.977   .     S
O504   Zn512   1.981   .     S
O505   Zn511   1.981   .     S
O506   Zn511   1.970   .     S
O507   Zn512   1.970   .     S
O508   Zn512   1.981   .     S
O509   Zn511   1.981   .     S
Br513  C540    1.911   .     S
Br514  C541    1.909   .     S
C515   C528    1.447   .     S
C515   O568    1.293   .     A
C515   O561    1.296   .     A
C516   C541    1.406   .     A
C516   H544    1.082   .     S
C516   C518    1.406   .     A
C517   C536    1.420   .     A
C517   C542    1.406   .     A
C518   C537    1.420   .     A
C518   C133    1.524   1_556 S
C519   O570    1.281   .     A
C519   C521    1.403   .     S
C519   O572    1.286   .     A
C520   O573    1.285   .     A
C520   C522    1.404   .     S
C520   O571    1.283   .     A
C522   C393    1.331   1_655 S
C522   H423    1.088   1_655 S
C523   C525    1.380   .     A
C523   H552    1.084   .     S
C523   C534    1.400   .     A
C524   H553    1.084   .     S
C524   C527    1.381   .     A
C524   C535    1.401   .     A
C525   H554    1.080   .     S
C525   C528    1.395   .     A
C526   O567    1.292   .     A
C526   C529    1.440   .     S
C526   O569    1.294   .     A
C527   H555    1.084   .     S
C527   C529    1.395   .     A
C528   C530    1.402   .     A
C529   C531    1.400   .     A
C530   H556    1.084   .     S
C530   C532    1.387   .     A
C531   C533    1.387   .     A
C531   H557    1.082   .     S
C532   O574    1.381   .     S
C532   C534    1.413   .     A
C533   C535    1.414   .     A
C533   O562    1.381   .     S
C534   C727    1.451   1_545 S
C535   C726    1.451   .     S
C536   O563    1.380   .     S
C536   C538    1.413   .     A
C537   C539    1.412   .     A
C537   O564    1.380   .     S
C538   N559    1.379   .     A
C538   O565    1.374   .     S
C539   N560    1.379   .     A
C539   O566    1.373   .     S
C540   N559    1.373   .     A
C540   C542    1.405   .     A
C541   N560    1.372   .     A
C542   H558    1.082   .     S
H543   C393    1.086   1_655 S
H545   O574    0.990   .     S
H546   O562    0.990   .     S
H547   O179    0.990   1_556 S
H548   O564    0.990   .     S
H549   O565    0.984   .     S
H550   O566    0.983   .     S
N559   Zn576   2.021   .     S
N560   Zn575   2.021   .     S
O561   Zn575   1.977   .     S
O567   Zn576   1.977   .     S
O568   Zn576   1.981   .     S
O569   Zn575   1.981   .     S
O570   Zn575   1.970   .     S
O571   Zn576   1.970   .     S
O572   Zn576   1.981   .     S
O573   Zn575   1.981   .     S
Br577  C604    1.911   .     S
Br578  C605    1.909   .     S
C579   C592    1.447   .     S
C579   O632    1.293   .     A
C579   O625    1.296   .     A
C580   C605    1.406   .     A
C580   H608    1.082   .     S
C580   C582    1.406   .     A
C581   C600    1.420   .     A
C581   C606    1.406   .     A
C582   C601    1.420   .     A
C582   C197    1.524   1_556 S
C583   O634    1.281   .     A
C583   C585    1.403   .     S
C583   O636    1.286   .     A
C584   O637    1.285   .     A
C584   C586    1.404   .     S
C584   O635    1.283   .     A
C585   C714    1.331   1_455 S
C585   H735    1.086   1_455 S
C586   C649    1.331   .     S
C586   H679    1.088   .     S
C587   C589    1.380   .     A
C587   H616    1.084   .     S
C587   C598    1.400   .     A
C588   H617    1.084   .     S
C588   C591    1.381   .     A
C588   C599    1.401   .     A
C589   H618    1.080   .     S
C589   C592    1.395   .     A
C590   O631    1.292   .     A
C590   C593    1.440   .     S
C590   O633    1.294   .     A
C591   H619    1.084   .     S
C591   C593    1.395   .     A
C592   C594    1.402   .     A
C593   C595    1.400   .     A
C594   H620    1.084   .     S
C594   C596    1.387   .     A
C595   C597    1.387   .     A
C595   H621    1.082   .     S
C596   O638    1.381   .     S
C596   C598    1.413   .     A
C597   C599    1.414   .     A
C597   O626    1.381   .     S
C599   C406    1.451   1_565 S
C600   O627    1.380   .     S
C600   C602    1.413   .     A
C601   C603    1.412   .     A
C601   O628    1.380   .     S
C602   N623    1.379   .     A
C602   O629    1.374   .     S
C603   N624    1.379   .     A
C603   O630    1.373   .     S
C604   N623    1.373   .     A
C604   C606    1.405   .     A
C605   N624    1.372   .     A
C606   H622    1.082   .     S
H607   C649    1.086   .     S
H609   O638    0.990   .     S
H610   O626    0.990   .     S
H611   O243    0.990   1_556 S
H612   O628    0.990   .     S
H613   O629    0.984   .     S
H614   O630    0.983   .     S
H615   C714    1.088   1_455 S
N623   Zn640   2.021   .     S
N624   Zn639   2.021   .     S
O625   Zn639   1.977   .     S
O631   Zn640   1.977   .     S
O632   Zn640   1.981   .     S
O633   Zn639   1.981   .     S
O634   Zn639   1.970   .     S
O635   Zn640   1.970   .     S
O636   Zn640   1.981   .     S
O637   Zn639   1.981   .     S
Br641  C668    1.911   .     S
Br642  C669    1.909   .     S
C643   C656    1.447   .     S
C643   O696    1.293   .     A
C643   O689    1.296   .     A
C644   C669    1.406   .     A
C644   H672    1.082   .     S
C644   C646    1.406   .     A
C645   C664    1.420   .     A
C645   C670    1.406   .     A
C646   C665    1.420   .     A
C646   C261    1.524   1_556 S
C647   O698    1.281   .     A
C647   C649    1.403   .     S
C647   O700    1.286   .     A
C648   O701    1.285   .     A
C648   C650    1.404   .     S
C648   O699    1.283   .     A
C650   C713    1.331   .     S
C650   H743    1.088   .     S
C651   C653    1.380   .     A
C651   H680    1.084   .     S
C651   C662    1.400   .     A
C652   H681    1.084   .     S
C652   C655    1.381   .     A
C652   C663    1.401   .     A
C653   H682    1.080   .     S
C653   C656    1.395   .     A
C654   O695    1.292   .     A
C654   C657    1.440   .     S
C654   O697    1.294   .     A
C655   H683    1.084   .     S
C655   C657    1.395   .     A
C656   C658    1.402   .     A
C657   C659    1.400   .     A
C658   H684    1.084   .     S
C658   C660    1.387   .     A
C659   C661    1.387   .     A
C659   H685    1.082   .     S
C660   O702    1.381   .     S
C660   C662    1.413   .     A
C661   C663    1.414   .     A
C661   O690    1.381   .     S
C663   C470    1.451   1_565 S
C664   O691    1.380   .     S
C664   C666    1.413   .     A
C665   C667    1.412   .     A
C665   O692    1.380   .     S
C666   N687    1.379   .     A
C666   O693    1.374   .     S
C667   N688    1.379   .     A
C667   O694    1.373   .     S
C668   N687    1.373   .     A
C668   C670    1.405   .     A
C669   N688    1.372   .     A
C670   H686    1.082   .     S
H671   C713    1.086   .     S
H673   O702    0.990   .     S
H674   O690    0.990   .     S
H675   O307    0.990   1_556 S
H676   O692    0.990   .     S
H677   O693    0.984   .     S
H678   O694    0.983   .     S
N687   Zn704   2.021   .     S
N688   Zn703   2.021   .     S
O689   Zn703   1.977   .     S
O695   Zn704   1.977   .     S
O696   Zn704   1.981   .     S
O697   Zn703   1.981   .     S
O698   Zn703   1.970   .     S
O699   Zn704   1.970   .     S
O700   Zn704   1.981   .     S
O701   Zn703   1.981   .     S
Br705  C732    1.911   .     S
Br706  C733    1.909   .     S
C707   C720    1.447   .     S
C707   O760    1.293   .     A
C707   O753    1.296   .     A
C708   C733    1.406   .     A
C708   H736    1.082   .     S
C708   C710    1.406   .     A
C709   C728    1.420   .     A
C709   C734    1.406   .     A
C710   C729    1.420   .     A
C710   C325    1.524   1_556 S
C711   O762    1.281   .     A
C711   C713    1.403   .     S
C711   O764    1.286   .     A
C712   O765    1.285   .     A
C712   C714    1.404   .     S
C712   O763    1.283   .     A
C714   C585    1.331   1_655 S
C714   H615    1.088   1_655 S
C715   C717    1.380   .     A
C715   H744    1.084   .     S
C715   C726    1.400   .     A
C716   H745    1.084   .     S
C716   C719    1.381   .     A
C716   C727    1.401   .     A
C717   H746    1.080   .     S
C717   C720    1.395   .     A
C718   O759    1.292   .     A
C718   C721    1.440   .     S
C718   O761    1.294   .     A
C719   H747    1.084   .     S
C719   C721    1.395   .     A
C720   C722    1.402   .     A
C721   C723    1.400   .     A
C722   H748    1.084   .     S
C722   C724    1.387   .     A
C723   C725    1.387   .     A
C723   H749    1.082   .     S
C724   O766    1.381   .     S
C724   C726    1.413   .     A
C725   C727    1.414   .     A
C725   O754    1.381   .     S
C727   C534    1.451   1_565 S
C728   O755    1.380   .     S
C728   C730    1.413   .     A
C729   C731    1.412   .     A
C729   O756    1.380   .     S
C730   N751    1.379   .     A
C730   O757    1.374   .     S
C731   N752    1.379   .     A
C731   O758    1.373   .     S
C732   N751    1.373   .     A
C732   C734    1.405   .     A
C733   N752    1.372   .     A
C734   H750    1.082   .     S
H735   C585    1.086   1_655 S
H737   O766    0.990   .     S
H738   O754    0.990   .     S
H739   O371    0.990   1_556 S
H740   O756    0.990   .     S
H741   O757    0.984   .     S
H742   O758    0.983   .     S
N751   Zn768   2.021   .     S
N752   Zn767   2.021   .     S
O753   Zn767   1.977   .     S
O759   Zn768   1.977   .     S
O760   Zn768   1.981   .     S
O761   Zn767   1.981   .     S
O762   Zn767   1.970   .     S
O763   Zn768   1.970   .     S
O764   Zn768   1.981   .     S
O765   Zn767   1.981   .     S
