data_str_m3_o10_o18_pcu_sym.125
_audit_creation_date              2020-01-03
_audit_creation_method            'Materials Studio'
_symmetry_space_group_name_H-M    'P1'
_symmetry_Int_Tables_number       1
_symmetry_cell_setting            triclinic
loop_
_symmetry_equiv_pos_as_xyz
  x,y,z
_cell_length_a                    23.4658
_cell_length_b                    25.6786
_cell_length_c                    27.6659
_cell_angle_alpha                 93.0205
_cell_angle_beta                  94.3332
_cell_angle_gamma                 94.0714
loop_
_atom_site_label
_atom_site_type_symbol
_atom_site_fract_x
_atom_site_fract_y
_atom_site_fract_z
_atom_site_U_iso_or_equiv
_atom_site_adp_type
_atom_site_occupancy
C1     C     0.01502   0.26488   0.24876   0.00000  Uiso   1.00
C2     C     0.31153   0.16261   0.15907   0.00000  Uiso   1.00
C3     C     0.03078   0.16631   0.39385   0.00000  Uiso   1.00
C4     C     0.29709   0.14824   0.10803   0.00000  Uiso   1.00
C5     C     0.00604   0.19798   0.47282   0.00000  Uiso   1.00
C6     C     0.29255   0.07682   0.04703   0.00000  Uiso   1.00
C7     C     0.32743   0.19226   0.42298   0.00000  Uiso   1.00
C8     C     0.32043   0.10417   0.08770   0.00000  Uiso   1.00
C9     C     0.07669   0.14055   0.41555   0.00000  Uiso   1.00
C10    C     0.24848   0.16795   0.08510   0.00000  Uiso   1.00
C11    C     0.08651   0.14354   0.46678   0.00000  Uiso   1.00
C12    C     0.31829   0.06845   0.25116   0.00000  Uiso   1.00
C13    C     0.21449   0.13484   0.05012   0.00000  Uiso   1.00
C14    C     0.05392   0.17669   0.49454   0.00000  Uiso   1.00
C15    C     0.23871   0.09063   0.02910   0.00000  Uiso   1.00
C16    C     0.13281   0.12033   0.49073   0.00000  Uiso   1.00
C17    C     0.15746   0.14432   0.03501   0.00000  Uiso   1.00
C18    C     0.23739   0.25685   0.06004   0.00000  Uiso   1.00
C19    C     0.16886   0.14768   0.38060   0.00000  Uiso   1.00
C20    C     0.12349   0.17545   0.06295   0.00000  Uiso   1.00
C21    C     0.15578   0.07486   0.47202   0.00000  Uiso   1.00
C22    C     0.07137   0.19028   0.04316   0.00000  Uiso   1.00
C23    C     0.20800   0.05987   0.49146   0.00000  Uiso   1.00
C24    C     0.02285   0.31944   0.24801   0.00000  Uiso   1.00
C25    C     0.31044   0.01388   0.25177   0.00000  Uiso   1.00
C26    C     0.02140   0.16840   0.34108   0.00000  Uiso   1.00
H27    H     0.04659   0.21512   0.06498   0.00000  Uiso   1.00
H28    H     0.28279   0.27091   0.05722   0.00000  Uiso   1.00
H29    H     0.21335   0.29113   0.06968   0.00000  Uiso   1.00
H30    H     0.21842   0.23924   0.02440   0.00000  Uiso   1.00
H31    H     0.09897   0.09407   0.35596   0.00000  Uiso   1.00
H32    H     0.19573   0.12587   0.35642   0.00000  Uiso   1.00
H33    H     0.19370   0.15649   0.41617   0.00000  Uiso   1.00
H34    H     0.15955   0.18526   0.36483   0.00000  Uiso   1.00
H35    H     0.31296   0.22155   0.49392   0.00000  Uiso   1.00
H36    H     0.31105   0.04273   0.03180   0.00000  Uiso   1.00
H37    H     0.16227   0.12421   0.21477   0.00000  Uiso   1.00
H38    H     0.22501   0.02500   0.47623   0.00000  Uiso   1.00
H39    H     0.17107   0.20974   0.28452   0.00000  Uiso   1.00
H40    H     0.02503   0.08910   0.10496   0.00000  Uiso   1.00
H41    H     0.29156   0.21143   0.40692   0.00000  Uiso   1.00
H42    H     0.13601   0.18751   0.10048   0.00000  Uiso   1.00
H43    H     0.13320   0.05021   0.44279   0.00000  Uiso   1.00
H44    H     0.06597   0.00322   0.24444   0.00000  Uiso   1.00
H45    H     0.26731   0.33010   0.25533   0.00000  Uiso   1.00
H46    H     0.25145   0.23687   0.13062   0.00000  Uiso   1.00
N47    N     0.14695   0.15216   0.23740   0.00000  Uiso   1.00
N48    N     0.18638   0.18117   0.26261   0.00000  Uiso   1.00
N49    N     0.23391   0.22003   0.09776   0.00000  Uiso   1.00
N50    N     0.11617   0.11636   0.38633   0.00000  Uiso   1.00
O51    O     0.29719   0.24631   0.25310   0.00000  Uiso   1.00
O52    O     0.03614   0.08702   0.24691   0.00000  Uiso   1.00
O53    O     0.05822   0.23702   0.24502   0.00000  Uiso   1.00
O54    O     0.27512   0.09632   0.25499   0.00000  Uiso   1.00
O55    O     0.30328   0.17397   0.32247   0.00000  Uiso   1.00
O56    O     0.03005   0.15937   0.17753   0.00000  Uiso   1.00
O57    O     0.06431   0.16467   0.31439   0.00000  Uiso   1.00
O58    O     0.26902   0.16866   0.18561   0.00000  Uiso   1.00
Zn59   Zn    0.27033   0.17287   0.25540   0.00000  Uiso   1.00
Zn60   Zn    0.06300   0.16046   0.24461   0.00000  Uiso   1.00
C61    C     0.34836   0.26488   0.24876   0.00000  Uiso   1.00
C62    C     0.64487   0.16261   0.15907   0.00000  Uiso   1.00
C63    C     0.36412   0.16631   0.39385   0.00000  Uiso   1.00
C64    C     0.63042   0.14824   0.10803   0.00000  Uiso   1.00
C65    C     0.33937   0.19798   0.47282   0.00000  Uiso   1.00
C66    C     0.62588   0.07682   0.04703   0.00000  Uiso   1.00
C67    C     0.66077   0.19226   0.42298   0.00000  Uiso   1.00
C68    C     0.65376   0.10417   0.08770   0.00000  Uiso   1.00
C69    C     0.41003   0.14055   0.41555   0.00000  Uiso   1.00
C70    C     0.58181   0.16795   0.08510   0.00000  Uiso   1.00
C71    C     0.41984   0.14354   0.46678   0.00000  Uiso   1.00
C72    C     0.65162   0.06845   0.25116   0.00000  Uiso   1.00
C73    C     0.54783   0.13484   0.05012   0.00000  Uiso   1.00
C74    C     0.38725   0.17669   0.49454   0.00000  Uiso   1.00
C75    C     0.57205   0.09063   0.02910   0.00000  Uiso   1.00
C76    C     0.46615   0.12033   0.49073   0.00000  Uiso   1.00
C77    C     0.49079   0.14432   0.03501   0.00000  Uiso   1.00
C78    C     0.57072   0.25685   0.06004   0.00000  Uiso   1.00
C79    C     0.50219   0.14768   0.38060   0.00000  Uiso   1.00
C80    C     0.45682   0.17545   0.06295   0.00000  Uiso   1.00
C81    C     0.48911   0.07486   0.47202   0.00000  Uiso   1.00
C82    C     0.40470   0.19028   0.04316   0.00000  Uiso   1.00
C83    C     0.54133   0.05987   0.49146   0.00000  Uiso   1.00
C84    C     0.35619   0.31944   0.24801   0.00000  Uiso   1.00
C85    C     0.64377   0.01388   0.25177   0.00000  Uiso   1.00
C86    C     0.35473   0.16840   0.34108   0.00000  Uiso   1.00
H87    H     0.37993   0.21512   0.06498   0.00000  Uiso   1.00
H88    H     0.61612   0.27091   0.05722   0.00000  Uiso   1.00
H89    H     0.54668   0.29113   0.06968   0.00000  Uiso   1.00
H90    H     0.55175   0.23924   0.02440   0.00000  Uiso   1.00
H91    H     0.43230   0.09407   0.35596   0.00000  Uiso   1.00
H92    H     0.52907   0.12587   0.35642   0.00000  Uiso   1.00
H93    H     0.52704   0.15649   0.41617   0.00000  Uiso   1.00
H94    H     0.49288   0.18526   0.36483   0.00000  Uiso   1.00
H95    H     0.64629   0.22155   0.49392   0.00000  Uiso   1.00
H96    H     0.64438   0.04273   0.03180   0.00000  Uiso   1.00
H97    H     0.49561   0.12421   0.21477   0.00000  Uiso   1.00
H98    H     0.55834   0.02500   0.47623   0.00000  Uiso   1.00
H99    H     0.50441   0.20974   0.28452   0.00000  Uiso   1.00
H100   H     0.35836   0.08910   0.10496   0.00000  Uiso   1.00
H101   H     0.62489   0.21143   0.40692   0.00000  Uiso   1.00
H102   H     0.46935   0.18751   0.10048   0.00000  Uiso   1.00
H103   H     0.46653   0.05021   0.44279   0.00000  Uiso   1.00
H104   H     0.39931   0.00322   0.24444   0.00000  Uiso   1.00
H105   H     0.60065   0.33010   0.25533   0.00000  Uiso   1.00
H106   H     0.58478   0.23687   0.13062   0.00000  Uiso   1.00
N107   N     0.48029   0.15216   0.23740   0.00000  Uiso   1.00
N108   N     0.51971   0.18117   0.26261   0.00000  Uiso   1.00
N109   N     0.56725   0.22003   0.09776   0.00000  Uiso   1.00
N110   N     0.44950   0.11636   0.38633   0.00000  Uiso   1.00
O111   O     0.63052   0.24631   0.25310   0.00000  Uiso   1.00
O112   O     0.36948   0.08702   0.24691   0.00000  Uiso   1.00
O113   O     0.39155   0.23702   0.24502   0.00000  Uiso   1.00
O114   O     0.60845   0.09632   0.25499   0.00000  Uiso   1.00
O115   O     0.63662   0.17397   0.32247   0.00000  Uiso   1.00
O116   O     0.36338   0.15937   0.17753   0.00000  Uiso   1.00
O117   O     0.39764   0.16467   0.31439   0.00000  Uiso   1.00
O118   O     0.60236   0.16866   0.18561   0.00000  Uiso   1.00
Zn119  Zn    0.60366   0.17287   0.25540   0.00000  Uiso   1.00
Zn120  Zn    0.39634   0.16046   0.24461   0.00000  Uiso   1.00
C121   C     0.68169   0.26488   0.24876   0.00000  Uiso   1.00
C122   C     0.97820   0.16261   0.15907   0.00000  Uiso   1.00
C123   C     0.69745   0.16631   0.39385   0.00000  Uiso   1.00
C124   C     0.96375   0.14824   0.10803   0.00000  Uiso   1.00
C125   C     0.67270   0.19798   0.47282   0.00000  Uiso   1.00
C126   C     0.95922   0.07682   0.04703   0.00000  Uiso   1.00
C127   C     0.99410   0.19226   0.42298   0.00000  Uiso   1.00
C128   C     0.98709   0.10417   0.08770   0.00000  Uiso   1.00
C129   C     0.74336   0.14055   0.41555   0.00000  Uiso   1.00
C130   C     0.91514   0.16795   0.08510   0.00000  Uiso   1.00
C131   C     0.75317   0.14354   0.46678   0.00000  Uiso   1.00
C132   C     0.98496   0.06845   0.25116   0.00000  Uiso   1.00
C133   C     0.88116   0.13484   0.05012   0.00000  Uiso   1.00
C134   C     0.72058   0.17669   0.49454   0.00000  Uiso   1.00
C135   C     0.90538   0.09063   0.02910   0.00000  Uiso   1.00
C136   C     0.79948   0.12033   0.49073   0.00000  Uiso   1.00
C137   C     0.82413   0.14432   0.03501   0.00000  Uiso   1.00
C138   C     0.90406   0.25685   0.06004   0.00000  Uiso   1.00
C139   C     0.83553   0.14768   0.38060   0.00000  Uiso   1.00
C140   C     0.79015   0.17545   0.06295   0.00000  Uiso   1.00
C141   C     0.82245   0.07486   0.47202   0.00000  Uiso   1.00
C142   C     0.73804   0.19028   0.04316   0.00000  Uiso   1.00
C143   C     0.87466   0.05987   0.49146   0.00000  Uiso   1.00
C144   C     0.68952   0.31944   0.24801   0.00000  Uiso   1.00
C145   C     0.97710   0.01388   0.25177   0.00000  Uiso   1.00
C146   C     0.68807   0.16840   0.34108   0.00000  Uiso   1.00
H147   H     0.71326   0.21512   0.06498   0.00000  Uiso   1.00
H148   H     0.94946   0.27091   0.05722   0.00000  Uiso   1.00
H149   H     0.88001   0.29113   0.06968   0.00000  Uiso   1.00
H150   H     0.88508   0.23924   0.02440   0.00000  Uiso   1.00
H151   H     0.76563   0.09407   0.35596   0.00000  Uiso   1.00
H152   H     0.86240   0.12587   0.35642   0.00000  Uiso   1.00
H153   H     0.86037   0.15649   0.41617   0.00000  Uiso   1.00
H154   H     0.82621   0.18526   0.36483   0.00000  Uiso   1.00
H155   H     0.97963   0.22155   0.49392   0.00000  Uiso   1.00
H156   H     0.97771   0.04273   0.03180   0.00000  Uiso   1.00
H157   H     0.82894   0.12421   0.21477   0.00000  Uiso   1.00
H158   H     0.89167   0.02500   0.47623   0.00000  Uiso   1.00
H159   H     0.83774   0.20974   0.28452   0.00000  Uiso   1.00
H160   H     0.69169   0.08910   0.10496   0.00000  Uiso   1.00
H161   H     0.95823   0.21143   0.40692   0.00000  Uiso   1.00
H162   H     0.80268   0.18751   0.10048   0.00000  Uiso   1.00
H163   H     0.79986   0.05021   0.44279   0.00000  Uiso   1.00
H164   H     0.73264   0.00322   0.24444   0.00000  Uiso   1.00
H165   H     0.93398   0.33010   0.25533   0.00000  Uiso   1.00
H166   H     0.91811   0.23687   0.13062   0.00000  Uiso   1.00
N167   N     0.81362   0.15216   0.23740   0.00000  Uiso   1.00
N168   N     0.85305   0.18117   0.26261   0.00000  Uiso   1.00
N169   N     0.90058   0.22003   0.09776   0.00000  Uiso   1.00
N170   N     0.78283   0.11636   0.38633   0.00000  Uiso   1.00
O171   O     0.96386   0.24631   0.25310   0.00000  Uiso   1.00
O172   O     0.70281   0.08702   0.24691   0.00000  Uiso   1.00
O173   O     0.72488   0.23702   0.24502   0.00000  Uiso   1.00
O174   O     0.94178   0.09632   0.25499   0.00000  Uiso   1.00
O175   O     0.96995   0.17397   0.32247   0.00000  Uiso   1.00
O176   O     0.69672   0.15937   0.17753   0.00000  Uiso   1.00
O177   O     0.73098   0.16467   0.31439   0.00000  Uiso   1.00
O178   O     0.93569   0.16866   0.18561   0.00000  Uiso   1.00
Zn179  Zn    0.93700   0.17287   0.25540   0.00000  Uiso   1.00
Zn180  Zn    0.72967   0.16046   0.24461   0.00000  Uiso   1.00
C181   C     0.01502   0.59822   0.24876   0.00000  Uiso   1.00
C182   C     0.31153   0.49594   0.15907   0.00000  Uiso   1.00
C183   C     0.03078   0.49964   0.39385   0.00000  Uiso   1.00
C184   C     0.29709   0.48158   0.10803   0.00000  Uiso   1.00
C185   C     0.00604   0.53131   0.47282   0.00000  Uiso   1.00
C186   C     0.29255   0.41015   0.04703   0.00000  Uiso   1.00
C187   C     0.32743   0.52559   0.42298   0.00000  Uiso   1.00
C188   C     0.32043   0.43750   0.08770   0.00000  Uiso   1.00
C189   C     0.07669   0.47388   0.41555   0.00000  Uiso   1.00
C190   C     0.24848   0.50128   0.08510   0.00000  Uiso   1.00
C191   C     0.08651   0.47687   0.46678   0.00000  Uiso   1.00
C192   C     0.31829   0.40178   0.25116   0.00000  Uiso   1.00
C193   C     0.21449   0.46818   0.05012   0.00000  Uiso   1.00
C194   C     0.05392   0.51003   0.49454   0.00000  Uiso   1.00
C195   C     0.23871   0.42396   0.02910   0.00000  Uiso   1.00
C196   C     0.13281   0.45367   0.49073   0.00000  Uiso   1.00
C197   C     0.15746   0.47766   0.03501   0.00000  Uiso   1.00
C198   C     0.23739   0.59018   0.06004   0.00000  Uiso   1.00
C199   C     0.16886   0.48101   0.38060   0.00000  Uiso   1.00
C200   C     0.12349   0.50878   0.06295   0.00000  Uiso   1.00
C201   C     0.15578   0.40820   0.47202   0.00000  Uiso   1.00
C202   C     0.07137   0.52361   0.04316   0.00000  Uiso   1.00
C203   C     0.20800   0.39321   0.49146   0.00000  Uiso   1.00
C204   C     0.02285   0.65277   0.24801   0.00000  Uiso   1.00
C205   C     0.31044   0.34722   0.25177   0.00000  Uiso   1.00
C206   C     0.02140   0.50174   0.34108   0.00000  Uiso   1.00
H207   H     0.04659   0.54845   0.06498   0.00000  Uiso   1.00
H208   H     0.28279   0.60424   0.05722   0.00000  Uiso   1.00
H209   H     0.21335   0.62446   0.06968   0.00000  Uiso   1.00
H210   H     0.21842   0.57257   0.02440   0.00000  Uiso   1.00
H211   H     0.09897   0.42740   0.35596   0.00000  Uiso   1.00
H212   H     0.19573   0.45921   0.35642   0.00000  Uiso   1.00
H213   H     0.19370   0.48982   0.41617   0.00000  Uiso   1.00
H214   H     0.15955   0.51859   0.36483   0.00000  Uiso   1.00
H215   H     0.31296   0.55488   0.49392   0.00000  Uiso   1.00
H216   H     0.31105   0.37606   0.03180   0.00000  Uiso   1.00
H217   H     0.16227   0.45755   0.21477   0.00000  Uiso   1.00
H218   H     0.22501   0.35834   0.47623   0.00000  Uiso   1.00
H219   H     0.17107   0.54307   0.28452   0.00000  Uiso   1.00
H220   H     0.02503   0.42244   0.10496   0.00000  Uiso   1.00
H221   H     0.29156   0.54476   0.40692   0.00000  Uiso   1.00
H222   H     0.13601   0.52085   0.10048   0.00000  Uiso   1.00
H223   H     0.13320   0.38354   0.44279   0.00000  Uiso   1.00
H224   H     0.06597   0.33656   0.24444   0.00000  Uiso   1.00
H225   H     0.26731   0.66343   0.25533   0.00000  Uiso   1.00
H226   H     0.25145   0.57020   0.13062   0.00000  Uiso   1.00
N227   N     0.14695   0.48550   0.23740   0.00000  Uiso   1.00
N228   N     0.18638   0.51450   0.26261   0.00000  Uiso   1.00
N229   N     0.23391   0.55336   0.09776   0.00000  Uiso   1.00
N230   N     0.11617   0.44970   0.38633   0.00000  Uiso   1.00
O231   O     0.29719   0.57964   0.25310   0.00000  Uiso   1.00
O232   O     0.03614   0.42036   0.24691   0.00000  Uiso   1.00
O233   O     0.05822   0.57035   0.24502   0.00000  Uiso   1.00
O234   O     0.27512   0.42965   0.25499   0.00000  Uiso   1.00
O235   O     0.30328   0.50730   0.32247   0.00000  Uiso   1.00
O236   O     0.03005   0.49270   0.17753   0.00000  Uiso   1.00
O237   O     0.06431   0.49801   0.31439   0.00000  Uiso   1.00
O238   O     0.26902   0.50199   0.18561   0.00000  Uiso   1.00
Zn239  Zn    0.27033   0.50621   0.25540   0.00000  Uiso   1.00
Zn240  Zn    0.06300   0.49379   0.24461   0.00000  Uiso   1.00
C241   C     0.34836   0.59822   0.24876   0.00000  Uiso   1.00
C242   C     0.64487   0.49594   0.15907   0.00000  Uiso   1.00
C243   C     0.36412   0.49964   0.39385   0.00000  Uiso   1.00
C244   C     0.63042   0.48158   0.10803   0.00000  Uiso   1.00
C245   C     0.33937   0.53131   0.47282   0.00000  Uiso   1.00
C246   C     0.62588   0.41015   0.04703   0.00000  Uiso   1.00
C247   C     0.66077   0.52559   0.42298   0.00000  Uiso   1.00
C248   C     0.65376   0.43750   0.08770   0.00000  Uiso   1.00
C249   C     0.41003   0.47388   0.41555   0.00000  Uiso   1.00
C250   C     0.58181   0.50128   0.08510   0.00000  Uiso   1.00
C251   C     0.41984   0.47687   0.46678   0.00000  Uiso   1.00
C252   C     0.65162   0.40178   0.25116   0.00000  Uiso   1.00
C253   C     0.54783   0.46818   0.05012   0.00000  Uiso   1.00
C254   C     0.38725   0.51003   0.49454   0.00000  Uiso   1.00
C255   C     0.57205   0.42396   0.02910   0.00000  Uiso   1.00
C256   C     0.46615   0.45367   0.49073   0.00000  Uiso   1.00
C257   C     0.49079   0.47766   0.03501   0.00000  Uiso   1.00
C258   C     0.57072   0.59018   0.06004   0.00000  Uiso   1.00
C259   C     0.50219   0.48101   0.38060   0.00000  Uiso   1.00
C260   C     0.45682   0.50878   0.06295   0.00000  Uiso   1.00
C261   C     0.48911   0.40820   0.47202   0.00000  Uiso   1.00
C262   C     0.40470   0.52361   0.04316   0.00000  Uiso   1.00
C263   C     0.54133   0.39321   0.49146   0.00000  Uiso   1.00
C264   C     0.35619   0.65277   0.24801   0.00000  Uiso   1.00
C265   C     0.64377   0.34722   0.25177   0.00000  Uiso   1.00
C266   C     0.35473   0.50174   0.34108   0.00000  Uiso   1.00
H267   H     0.37993   0.54845   0.06498   0.00000  Uiso   1.00
H268   H     0.61612   0.60424   0.05722   0.00000  Uiso   1.00
H269   H     0.54668   0.62446   0.06968   0.00000  Uiso   1.00
H270   H     0.55175   0.57257   0.02440   0.00000  Uiso   1.00
H271   H     0.43230   0.42740   0.35596   0.00000  Uiso   1.00
H272   H     0.52907   0.45921   0.35642   0.00000  Uiso   1.00
H273   H     0.52704   0.48982   0.41617   0.00000  Uiso   1.00
H274   H     0.49288   0.51859   0.36483   0.00000  Uiso   1.00
H275   H     0.64629   0.55488   0.49392   0.00000  Uiso   1.00
H276   H     0.64438   0.37606   0.03180   0.00000  Uiso   1.00
H277   H     0.49561   0.45755   0.21477   0.00000  Uiso   1.00
H278   H     0.55834   0.35834   0.47623   0.00000  Uiso   1.00
H279   H     0.50441   0.54307   0.28452   0.00000  Uiso   1.00
H280   H     0.35836   0.42244   0.10496   0.00000  Uiso   1.00
H281   H     0.62489   0.54476   0.40692   0.00000  Uiso   1.00
H282   H     0.46935   0.52085   0.10048   0.00000  Uiso   1.00
H283   H     0.46653   0.38354   0.44279   0.00000  Uiso   1.00
H284   H     0.39931   0.33656   0.24444   0.00000  Uiso   1.00
H285   H     0.60065   0.66343   0.25533   0.00000  Uiso   1.00
H286   H     0.58478   0.57020   0.13062   0.00000  Uiso   1.00
N287   N     0.48029   0.48550   0.23740   0.00000  Uiso   1.00
N288   N     0.51971   0.51450   0.26261   0.00000  Uiso   1.00
N289   N     0.56725   0.55336   0.09776   0.00000  Uiso   1.00
N290   N     0.44950   0.44970   0.38633   0.00000  Uiso   1.00
O291   O     0.63052   0.57964   0.25310   0.00000  Uiso   1.00
O292   O     0.36948   0.42036   0.24691   0.00000  Uiso   1.00
O293   O     0.39155   0.57035   0.24502   0.00000  Uiso   1.00
O294   O     0.60845   0.42965   0.25499   0.00000  Uiso   1.00
O295   O     0.63662   0.50730   0.32247   0.00000  Uiso   1.00
O296   O     0.36338   0.49270   0.17753   0.00000  Uiso   1.00
O297   O     0.39764   0.49801   0.31439   0.00000  Uiso   1.00
O298   O     0.60236   0.50199   0.18561   0.00000  Uiso   1.00
Zn299  Zn    0.60366   0.50621   0.25540   0.00000  Uiso   1.00
Zn300  Zn    0.39634   0.49379   0.24461   0.00000  Uiso   1.00
C301   C     0.68169   0.59822   0.24876   0.00000  Uiso   1.00
C302   C     0.97820   0.49594   0.15907   0.00000  Uiso   1.00
C303   C     0.69745   0.49964   0.39385   0.00000  Uiso   1.00
C304   C     0.96375   0.48158   0.10803   0.00000  Uiso   1.00
C305   C     0.67270   0.53131   0.47282   0.00000  Uiso   1.00
C306   C     0.95922   0.41015   0.04703   0.00000  Uiso   1.00
C307   C     0.99410   0.52559   0.42298   0.00000  Uiso   1.00
C308   C     0.98709   0.43750   0.08770   0.00000  Uiso   1.00
C309   C     0.74336   0.47388   0.41555   0.00000  Uiso   1.00
C310   C     0.91514   0.50128   0.08510   0.00000  Uiso   1.00
C311   C     0.75317   0.47687   0.46678   0.00000  Uiso   1.00
C312   C     0.98496   0.40178   0.25116   0.00000  Uiso   1.00
C313   C     0.88116   0.46818   0.05012   0.00000  Uiso   1.00
C314   C     0.72058   0.51003   0.49454   0.00000  Uiso   1.00
C315   C     0.90538   0.42396   0.02910   0.00000  Uiso   1.00
C316   C     0.79948   0.45367   0.49073   0.00000  Uiso   1.00
C317   C     0.82413   0.47766   0.03501   0.00000  Uiso   1.00
C318   C     0.90406   0.59018   0.06004   0.00000  Uiso   1.00
C319   C     0.83553   0.48101   0.38060   0.00000  Uiso   1.00
C320   C     0.79015   0.50878   0.06295   0.00000  Uiso   1.00
C321   C     0.82245   0.40820   0.47202   0.00000  Uiso   1.00
C322   C     0.73804   0.52361   0.04316   0.00000  Uiso   1.00
C323   C     0.87466   0.39321   0.49146   0.00000  Uiso   1.00
C324   C     0.68952   0.65277   0.24801   0.00000  Uiso   1.00
C325   C     0.97710   0.34722   0.25177   0.00000  Uiso   1.00
C326   C     0.68807   0.50174   0.34108   0.00000  Uiso   1.00
H327   H     0.71326   0.54845   0.06498   0.00000  Uiso   1.00
H328   H     0.94946   0.60424   0.05722   0.00000  Uiso   1.00
H329   H     0.88001   0.62446   0.06968   0.00000  Uiso   1.00
H330   H     0.88508   0.57257   0.02440   0.00000  Uiso   1.00
H331   H     0.76563   0.42740   0.35596   0.00000  Uiso   1.00
H332   H     0.86240   0.45921   0.35642   0.00000  Uiso   1.00
H333   H     0.86037   0.48982   0.41617   0.00000  Uiso   1.00
H334   H     0.82621   0.51859   0.36483   0.00000  Uiso   1.00
H335   H     0.97963   0.55488   0.49392   0.00000  Uiso   1.00
H336   H     0.97771   0.37606   0.03180   0.00000  Uiso   1.00
H337   H     0.82894   0.45755   0.21477   0.00000  Uiso   1.00
H338   H     0.89167   0.35834   0.47623   0.00000  Uiso   1.00
H339   H     0.83774   0.54307   0.28452   0.00000  Uiso   1.00
H340   H     0.69169   0.42244   0.10496   0.00000  Uiso   1.00
H341   H     0.95823   0.54476   0.40692   0.00000  Uiso   1.00
H342   H     0.80268   0.52085   0.10048   0.00000  Uiso   1.00
H343   H     0.79986   0.38354   0.44279   0.00000  Uiso   1.00
H344   H     0.73264   0.33656   0.24444   0.00000  Uiso   1.00
H345   H     0.93398   0.66343   0.25533   0.00000  Uiso   1.00
H346   H     0.91811   0.57020   0.13062   0.00000  Uiso   1.00
N347   N     0.81362   0.48550   0.23740   0.00000  Uiso   1.00
N348   N     0.85305   0.51450   0.26261   0.00000  Uiso   1.00
N349   N     0.90058   0.55336   0.09776   0.00000  Uiso   1.00
N350   N     0.78283   0.44970   0.38633   0.00000  Uiso   1.00
O351   O     0.96386   0.57964   0.25310   0.00000  Uiso   1.00
O352   O     0.70281   0.42036   0.24691   0.00000  Uiso   1.00
O353   O     0.72488   0.57035   0.24502   0.00000  Uiso   1.00
O354   O     0.94178   0.42965   0.25499   0.00000  Uiso   1.00
O355   O     0.96995   0.50730   0.32247   0.00000  Uiso   1.00
O356   O     0.69672   0.49270   0.17753   0.00000  Uiso   1.00
O357   O     0.73098   0.49801   0.31439   0.00000  Uiso   1.00
O358   O     0.93569   0.50199   0.18561   0.00000  Uiso   1.00
Zn359  Zn    0.93700   0.50621   0.25540   0.00000  Uiso   1.00
Zn360  Zn    0.72967   0.49379   0.24461   0.00000  Uiso   1.00
C361   C     0.01502   0.93155   0.24876   0.00000  Uiso   1.00
C362   C     0.31153   0.82928   0.15907   0.00000  Uiso   1.00
C363   C     0.03078   0.83298   0.39385   0.00000  Uiso   1.00
C364   C     0.29709   0.81491   0.10803   0.00000  Uiso   1.00
C365   C     0.00604   0.86465   0.47282   0.00000  Uiso   1.00
C366   C     0.29255   0.74348   0.04703   0.00000  Uiso   1.00
C367   C     0.32743   0.85892   0.42298   0.00000  Uiso   1.00
C368   C     0.32043   0.77084   0.08770   0.00000  Uiso   1.00
C369   C     0.07669   0.80722   0.41555   0.00000  Uiso   1.00
C370   C     0.24848   0.83461   0.08510   0.00000  Uiso   1.00
C371   C     0.08651   0.81020   0.46678   0.00000  Uiso   1.00
C372   C     0.31829   0.73511   0.25116   0.00000  Uiso   1.00
C373   C     0.21449   0.80151   0.05012   0.00000  Uiso   1.00
C374   C     0.05392   0.84336   0.49454   0.00000  Uiso   1.00
C375   C     0.23871   0.75729   0.02910   0.00000  Uiso   1.00
C376   C     0.13281   0.78700   0.49073   0.00000  Uiso   1.00
C377   C     0.15746   0.81099   0.03501   0.00000  Uiso   1.00
C378   C     0.23739   0.92351   0.06004   0.00000  Uiso   1.00
C379   C     0.16886   0.81435   0.38060   0.00000  Uiso   1.00
C380   C     0.12349   0.84212   0.06295   0.00000  Uiso   1.00
C381   C     0.15578   0.74153   0.47202   0.00000  Uiso   1.00
C382   C     0.07137   0.85695   0.04316   0.00000  Uiso   1.00
C383   C     0.20800   0.72654   0.49146   0.00000  Uiso   1.00
C384   C     0.02285   0.98611   0.24801   0.00000  Uiso   1.00
C385   C     0.31044   0.68055   0.25177   0.00000  Uiso   1.00
C386   C     0.02140   0.83507   0.34108   0.00000  Uiso   1.00
H387   H     0.04659   0.88179   0.06498   0.00000  Uiso   1.00
H388   H     0.28279   0.93758   0.05722   0.00000  Uiso   1.00
H389   H     0.21335   0.95780   0.06968   0.00000  Uiso   1.00
H390   H     0.21842   0.90591   0.02440   0.00000  Uiso   1.00
H391   H     0.09897   0.76074   0.35596   0.00000  Uiso   1.00
H392   H     0.19573   0.79254   0.35642   0.00000  Uiso   1.00
H393   H     0.19370   0.82315   0.41617   0.00000  Uiso   1.00
H394   H     0.15955   0.85192   0.36483   0.00000  Uiso   1.00
H395   H     0.31296   0.88821   0.49392   0.00000  Uiso   1.00
H396   H     0.31105   0.70939   0.03180   0.00000  Uiso   1.00
H397   H     0.16227   0.79088   0.21477   0.00000  Uiso   1.00
H398   H     0.22501   0.69167   0.47623   0.00000  Uiso   1.00
H399   H     0.17107   0.87641   0.28452   0.00000  Uiso   1.00
H400   H     0.02503   0.75577   0.10496   0.00000  Uiso   1.00
H401   H     0.29156   0.87809   0.40692   0.00000  Uiso   1.00
H402   H     0.13601   0.85418   0.10048   0.00000  Uiso   1.00
H403   H     0.13320   0.71687   0.44279   0.00000  Uiso   1.00
H404   H     0.06597   0.66989   0.24444   0.00000  Uiso   1.00
H405   H     0.26731   0.99677   0.25533   0.00000  Uiso   1.00
H406   H     0.25145   0.90354   0.13062   0.00000  Uiso   1.00
N407   N     0.14695   0.81883   0.23740   0.00000  Uiso   1.00
N408   N     0.18638   0.84784   0.26261   0.00000  Uiso   1.00
N409   N     0.23391   0.88669   0.09776   0.00000  Uiso   1.00
N410   N     0.11617   0.78303   0.38633   0.00000  Uiso   1.00
O411   O     0.29719   0.91298   0.25310   0.00000  Uiso   1.00
O412   O     0.03614   0.75369   0.24691   0.00000  Uiso   1.00
O413   O     0.05822   0.90368   0.24502   0.00000  Uiso   1.00
O414   O     0.27512   0.76298   0.25499   0.00000  Uiso   1.00
O415   O     0.30328   0.84063   0.32247   0.00000  Uiso   1.00
O416   O     0.03005   0.82603   0.17753   0.00000  Uiso   1.00
O417   O     0.06431   0.83134   0.31439   0.00000  Uiso   1.00
O418   O     0.26902   0.83533   0.18561   0.00000  Uiso   1.00
Zn419  Zn    0.27033   0.83954   0.25540   0.00000  Uiso   1.00
Zn420  Zn    0.06300   0.82713   0.24461   0.00000  Uiso   1.00
C421   C     0.34836   0.93155   0.24876   0.00000  Uiso   1.00
C422   C     0.64487   0.82928   0.15907   0.00000  Uiso   1.00
C423   C     0.36412   0.83298   0.39385   0.00000  Uiso   1.00
C424   C     0.63042   0.81491   0.10803   0.00000  Uiso   1.00
C425   C     0.33937   0.86465   0.47282   0.00000  Uiso   1.00
C426   C     0.62588   0.74348   0.04703   0.00000  Uiso   1.00
C427   C     0.66077   0.85892   0.42298   0.00000  Uiso   1.00
C428   C     0.65376   0.77084   0.08770   0.00000  Uiso   1.00
C429   C     0.41003   0.80722   0.41555   0.00000  Uiso   1.00
C430   C     0.58181   0.83461   0.08510   0.00000  Uiso   1.00
C431   C     0.41984   0.81020   0.46678   0.00000  Uiso   1.00
C432   C     0.65162   0.73511   0.25116   0.00000  Uiso   1.00
C433   C     0.54783   0.80151   0.05012   0.00000  Uiso   1.00
C434   C     0.38725   0.84336   0.49454   0.00000  Uiso   1.00
C435   C     0.57205   0.75729   0.02910   0.00000  Uiso   1.00
C436   C     0.46615   0.78700   0.49073   0.00000  Uiso   1.00
C437   C     0.49079   0.81099   0.03501   0.00000  Uiso   1.00
C438   C     0.57072   0.92351   0.06004   0.00000  Uiso   1.00
C439   C     0.50219   0.81435   0.38060   0.00000  Uiso   1.00
C440   C     0.45682   0.84212   0.06295   0.00000  Uiso   1.00
C441   C     0.48911   0.74153   0.47202   0.00000  Uiso   1.00
C442   C     0.40470   0.85695   0.04316   0.00000  Uiso   1.00
C443   C     0.54133   0.72654   0.49146   0.00000  Uiso   1.00
C444   C     0.35619   0.98611   0.24801   0.00000  Uiso   1.00
C445   C     0.64377   0.68055   0.25177   0.00000  Uiso   1.00
C446   C     0.35473   0.83507   0.34108   0.00000  Uiso   1.00
H447   H     0.37993   0.88179   0.06498   0.00000  Uiso   1.00
H448   H     0.61612   0.93758   0.05722   0.00000  Uiso   1.00
H449   H     0.54668   0.95780   0.06968   0.00000  Uiso   1.00
H450   H     0.55175   0.90591   0.02440   0.00000  Uiso   1.00
H451   H     0.43230   0.76074   0.35596   0.00000  Uiso   1.00
H452   H     0.52907   0.79254   0.35642   0.00000  Uiso   1.00
H453   H     0.52704   0.82315   0.41617   0.00000  Uiso   1.00
H454   H     0.49288   0.85192   0.36483   0.00000  Uiso   1.00
H455   H     0.64629   0.88821   0.49392   0.00000  Uiso   1.00
H456   H     0.64438   0.70939   0.03180   0.00000  Uiso   1.00
H457   H     0.49561   0.79088   0.21477   0.00000  Uiso   1.00
H458   H     0.55834   0.69167   0.47623   0.00000  Uiso   1.00
H459   H     0.50441   0.87641   0.28452   0.00000  Uiso   1.00
H460   H     0.35836   0.75577   0.10496   0.00000  Uiso   1.00
H461   H     0.62489   0.87809   0.40692   0.00000  Uiso   1.00
H462   H     0.46935   0.85418   0.10048   0.00000  Uiso   1.00
H463   H     0.46653   0.71687   0.44279   0.00000  Uiso   1.00
H464   H     0.39931   0.66989   0.24444   0.00000  Uiso   1.00
H465   H     0.60065   0.99677   0.25533   0.00000  Uiso   1.00
H466   H     0.58478   0.90354   0.13062   0.00000  Uiso   1.00
N467   N     0.48029   0.81883   0.23740   0.00000  Uiso   1.00
N468   N     0.51971   0.84784   0.26261   0.00000  Uiso   1.00
N469   N     0.56725   0.88669   0.09776   0.00000  Uiso   1.00
N470   N     0.44950   0.78303   0.38633   0.00000  Uiso   1.00
O471   O     0.63052   0.91298   0.25310   0.00000  Uiso   1.00
O472   O     0.36948   0.75369   0.24691   0.00000  Uiso   1.00
O473   O     0.39155   0.90368   0.24502   0.00000  Uiso   1.00
O474   O     0.60845   0.76298   0.25499   0.00000  Uiso   1.00
O475   O     0.63662   0.84063   0.32247   0.00000  Uiso   1.00
O476   O     0.36338   0.82603   0.17753   0.00000  Uiso   1.00
O477   O     0.39764   0.83134   0.31439   0.00000  Uiso   1.00
O478   O     0.60236   0.83533   0.18561   0.00000  Uiso   1.00
Zn479  Zn    0.60366   0.83954   0.25540   0.00000  Uiso   1.00
Zn480  Zn    0.39634   0.82713   0.24461   0.00000  Uiso   1.00
C481   C     0.68169   0.93155   0.24876   0.00000  Uiso   1.00
C482   C     0.97820   0.82928   0.15907   0.00000  Uiso   1.00
C483   C     0.69745   0.83298   0.39385   0.00000  Uiso   1.00
C484   C     0.96375   0.81491   0.10803   0.00000  Uiso   1.00
C485   C     0.67270   0.86465   0.47282   0.00000  Uiso   1.00
C486   C     0.95922   0.74348   0.04703   0.00000  Uiso   1.00
C487   C     0.99410   0.85892   0.42298   0.00000  Uiso   1.00
C488   C     0.98709   0.77084   0.08770   0.00000  Uiso   1.00
C489   C     0.74336   0.80722   0.41555   0.00000  Uiso   1.00
C490   C     0.91514   0.83461   0.08510   0.00000  Uiso   1.00
C491   C     0.75317   0.81020   0.46678   0.00000  Uiso   1.00
C492   C     0.98496   0.73511   0.25116   0.00000  Uiso   1.00
C493   C     0.88116   0.80151   0.05012   0.00000  Uiso   1.00
C494   C     0.72058   0.84336   0.49454   0.00000  Uiso   1.00
C495   C     0.90538   0.75729   0.02910   0.00000  Uiso   1.00
C496   C     0.79948   0.78700   0.49073   0.00000  Uiso   1.00
C497   C     0.82413   0.81099   0.03501   0.00000  Uiso   1.00
C498   C     0.90406   0.92351   0.06004   0.00000  Uiso   1.00
C499   C     0.83553   0.81435   0.38060   0.00000  Uiso   1.00
C500   C     0.79015   0.84212   0.06295   0.00000  Uiso   1.00
C501   C     0.82245   0.74153   0.47202   0.00000  Uiso   1.00
C502   C     0.73804   0.85695   0.04316   0.00000  Uiso   1.00
C503   C     0.87466   0.72654   0.49146   0.00000  Uiso   1.00
C504   C     0.68952   0.98611   0.24801   0.00000  Uiso   1.00
C505   C     0.97710   0.68055   0.25177   0.00000  Uiso   1.00
C506   C     0.68807   0.83507   0.34108   0.00000  Uiso   1.00
H507   H     0.71326   0.88179   0.06498   0.00000  Uiso   1.00
H508   H     0.94946   0.93758   0.05722   0.00000  Uiso   1.00
H509   H     0.88001   0.95780   0.06968   0.00000  Uiso   1.00
H510   H     0.88508   0.90591   0.02440   0.00000  Uiso   1.00
H511   H     0.76563   0.76074   0.35596   0.00000  Uiso   1.00
H512   H     0.86240   0.79254   0.35642   0.00000  Uiso   1.00
H513   H     0.86037   0.82315   0.41617   0.00000  Uiso   1.00
H514   H     0.82621   0.85192   0.36483   0.00000  Uiso   1.00
H515   H     0.97963   0.88821   0.49392   0.00000  Uiso   1.00
H516   H     0.97771   0.70939   0.03180   0.00000  Uiso   1.00
H517   H     0.82894   0.79088   0.21477   0.00000  Uiso   1.00
H518   H     0.89167   0.69167   0.47623   0.00000  Uiso   1.00
H519   H     0.83774   0.87641   0.28452   0.00000  Uiso   1.00
H520   H     0.69169   0.75577   0.10496   0.00000  Uiso   1.00
H521   H     0.95823   0.87809   0.40692   0.00000  Uiso   1.00
H522   H     0.80268   0.85418   0.10048   0.00000  Uiso   1.00
H523   H     0.79986   0.71687   0.44279   0.00000  Uiso   1.00
H524   H     0.73264   0.66989   0.24444   0.00000  Uiso   1.00
H525   H     0.93398   0.99677   0.25533   0.00000  Uiso   1.00
H526   H     0.91811   0.90354   0.13062   0.00000  Uiso   1.00
N527   N     0.81362   0.81883   0.23740   0.00000  Uiso   1.00
N528   N     0.85305   0.84784   0.26261   0.00000  Uiso   1.00
N529   N     0.90058   0.88669   0.09776   0.00000  Uiso   1.00
N530   N     0.78283   0.78303   0.38633   0.00000  Uiso   1.00
O531   O     0.96386   0.91298   0.25310   0.00000  Uiso   1.00
O532   O     0.70281   0.75369   0.24691   0.00000  Uiso   1.00
O533   O     0.72488   0.90368   0.24502   0.00000  Uiso   1.00
O534   O     0.94178   0.76298   0.25499   0.00000  Uiso   1.00
O535   O     0.96995   0.84063   0.32247   0.00000  Uiso   1.00
O536   O     0.69672   0.82603   0.17753   0.00000  Uiso   1.00
O537   O     0.73098   0.83134   0.31439   0.00000  Uiso   1.00
O538   O     0.93569   0.83533   0.18561   0.00000  Uiso   1.00
Zn539  Zn    0.93700   0.83954   0.25540   0.00000  Uiso   1.00
Zn540  Zn    0.72967   0.82713   0.24461   0.00000  Uiso   1.00
C541   C     0.01502   0.26488   0.74876   0.00000  Uiso   1.00
C542   C     0.31153   0.16261   0.65907   0.00000  Uiso   1.00
C543   C     0.03078   0.16631   0.89385   0.00000  Uiso   1.00
C544   C     0.29709   0.14824   0.60803   0.00000  Uiso   1.00
C545   C     0.00604   0.19798   0.97282   0.00000  Uiso   1.00
C546   C     0.29255   0.07682   0.54703   0.00000  Uiso   1.00
C547   C     0.32743   0.19226   0.92298   0.00000  Uiso   1.00
C548   C     0.32043   0.10417   0.58770   0.00000  Uiso   1.00
C549   C     0.07669   0.14055   0.91555   0.00000  Uiso   1.00
C550   C     0.24848   0.16795   0.58510   0.00000  Uiso   1.00
C551   C     0.08651   0.14354   0.96678   0.00000  Uiso   1.00
C552   C     0.31829   0.06845   0.75116   0.00000  Uiso   1.00
C553   C     0.21449   0.13484   0.55012   0.00000  Uiso   1.00
C554   C     0.05392   0.17669   0.99454   0.00000  Uiso   1.00
C555   C     0.23871   0.09063   0.52910   0.00000  Uiso   1.00
C556   C     0.13281   0.12033   0.99073   0.00000  Uiso   1.00
C557   C     0.15746   0.14432   0.53501   0.00000  Uiso   1.00
C558   C     0.23739   0.25685   0.56004   0.00000  Uiso   1.00
C559   C     0.16886   0.14768   0.88060   0.00000  Uiso   1.00
C560   C     0.12349   0.17545   0.56295   0.00000  Uiso   1.00
C561   C     0.15578   0.07486   0.97202   0.00000  Uiso   1.00
C562   C     0.07137   0.19028   0.54316   0.00000  Uiso   1.00
C563   C     0.20800   0.05987   0.99146   0.00000  Uiso   1.00
C564   C     0.02285   0.31944   0.74801   0.00000  Uiso   1.00
C565   C     0.31044   0.01388   0.75177   0.00000  Uiso   1.00
C566   C     0.02140   0.16840   0.84108   0.00000  Uiso   1.00
H567   H     0.04659   0.21512   0.56498   0.00000  Uiso   1.00
H568   H     0.28279   0.27091   0.55722   0.00000  Uiso   1.00
H569   H     0.21335   0.29113   0.56968   0.00000  Uiso   1.00
H570   H     0.21842   0.23924   0.52440   0.00000  Uiso   1.00
H571   H     0.09897   0.09407   0.85596   0.00000  Uiso   1.00
H572   H     0.19573   0.12587   0.85642   0.00000  Uiso   1.00
H573   H     0.19370   0.15649   0.91617   0.00000  Uiso   1.00
H574   H     0.15955   0.18526   0.86483   0.00000  Uiso   1.00
H575   H     0.31296   0.22155   0.99392   0.00000  Uiso   1.00
H576   H     0.31105   0.04273   0.53180   0.00000  Uiso   1.00
H577   H     0.16227   0.12421   0.71477   0.00000  Uiso   1.00
H578   H     0.22501   0.02500   0.97623   0.00000  Uiso   1.00
H579   H     0.17107   0.20974   0.78452   0.00000  Uiso   1.00
H580   H     0.02503   0.08910   0.60496   0.00000  Uiso   1.00
H581   H     0.29156   0.21143   0.90692   0.00000  Uiso   1.00
H582   H     0.13601   0.18751   0.60048   0.00000  Uiso   1.00
H583   H     0.13320   0.05021   0.94279   0.00000  Uiso   1.00
H584   H     0.06597   0.00322   0.74444   0.00000  Uiso   1.00
H585   H     0.26731   0.33010   0.75533   0.00000  Uiso   1.00
H586   H     0.25145   0.23687   0.63062   0.00000  Uiso   1.00
N587   N     0.14695   0.15216   0.73740   0.00000  Uiso   1.00
N588   N     0.18638   0.18117   0.76261   0.00000  Uiso   1.00
N589   N     0.23391   0.22003   0.59776   0.00000  Uiso   1.00
N590   N     0.11617   0.11636   0.88633   0.00000  Uiso   1.00
O591   O     0.29719   0.24631   0.75310   0.00000  Uiso   1.00
O592   O     0.03614   0.08702   0.74691   0.00000  Uiso   1.00
O593   O     0.05822   0.23702   0.74502   0.00000  Uiso   1.00
O594   O     0.27512   0.09632   0.75499   0.00000  Uiso   1.00
O595   O     0.30328   0.17397   0.82247   0.00000  Uiso   1.00
O596   O     0.03005   0.15937   0.67753   0.00000  Uiso   1.00
O597   O     0.06431   0.16467   0.81439   0.00000  Uiso   1.00
O598   O     0.26902   0.16866   0.68561   0.00000  Uiso   1.00
Zn599  Zn    0.27033   0.17287   0.75540   0.00000  Uiso   1.00
Zn600  Zn    0.06300   0.16046   0.74461   0.00000  Uiso   1.00
C601   C     0.34836   0.26488   0.74876   0.00000  Uiso   1.00
C602   C     0.64487   0.16261   0.65907   0.00000  Uiso   1.00
C603   C     0.36412   0.16631   0.89385   0.00000  Uiso   1.00
C604   C     0.63042   0.14824   0.60803   0.00000  Uiso   1.00
C605   C     0.33937   0.19798   0.97282   0.00000  Uiso   1.00
C606   C     0.62588   0.07682   0.54703   0.00000  Uiso   1.00
C607   C     0.66077   0.19226   0.92298   0.00000  Uiso   1.00
C608   C     0.65376   0.10417   0.58770   0.00000  Uiso   1.00
C609   C     0.41003   0.14055   0.91555   0.00000  Uiso   1.00
C610   C     0.58181   0.16795   0.58510   0.00000  Uiso   1.00
C611   C     0.41984   0.14354   0.96678   0.00000  Uiso   1.00
C612   C     0.65162   0.06845   0.75116   0.00000  Uiso   1.00
C613   C     0.54783   0.13484   0.55012   0.00000  Uiso   1.00
C614   C     0.38725   0.17669   0.99454   0.00000  Uiso   1.00
C615   C     0.57205   0.09063   0.52910   0.00000  Uiso   1.00
C616   C     0.46615   0.12033   0.99073   0.00000  Uiso   1.00
C617   C     0.49079   0.14432   0.53501   0.00000  Uiso   1.00
C618   C     0.57072   0.25685   0.56004   0.00000  Uiso   1.00
C619   C     0.50219   0.14768   0.88060   0.00000  Uiso   1.00
C620   C     0.45682   0.17545   0.56295   0.00000  Uiso   1.00
C621   C     0.48911   0.07486   0.97202   0.00000  Uiso   1.00
C622   C     0.40470   0.19028   0.54316   0.00000  Uiso   1.00
C623   C     0.54133   0.05987   0.99146   0.00000  Uiso   1.00
C624   C     0.35619   0.31944   0.74801   0.00000  Uiso   1.00
C625   C     0.64377   0.01388   0.75177   0.00000  Uiso   1.00
C626   C     0.35473   0.16840   0.84108   0.00000  Uiso   1.00
H627   H     0.37993   0.21512   0.56498   0.00000  Uiso   1.00
H628   H     0.61612   0.27091   0.55722   0.00000  Uiso   1.00
H629   H     0.54668   0.29113   0.56968   0.00000  Uiso   1.00
H630   H     0.55175   0.23924   0.52440   0.00000  Uiso   1.00
H631   H     0.43230   0.09407   0.85596   0.00000  Uiso   1.00
H632   H     0.52907   0.12587   0.85642   0.00000  Uiso   1.00
H633   H     0.52704   0.15649   0.91617   0.00000  Uiso   1.00
H634   H     0.49288   0.18526   0.86483   0.00000  Uiso   1.00
H635   H     0.64629   0.22155   0.99392   0.00000  Uiso   1.00
H636   H     0.64438   0.04273   0.53180   0.00000  Uiso   1.00
H637   H     0.49561   0.12421   0.71477   0.00000  Uiso   1.00
H638   H     0.55834   0.02500   0.97623   0.00000  Uiso   1.00
H639   H     0.50441   0.20974   0.78452   0.00000  Uiso   1.00
H640   H     0.35836   0.08910   0.60496   0.00000  Uiso   1.00
H641   H     0.62489   0.21143   0.90692   0.00000  Uiso   1.00
H642   H     0.46935   0.18751   0.60048   0.00000  Uiso   1.00
H643   H     0.46653   0.05021   0.94279   0.00000  Uiso   1.00
H644   H     0.39931   0.00322   0.74444   0.00000  Uiso   1.00
H645   H     0.60065   0.33010   0.75533   0.00000  Uiso   1.00
H646   H     0.58478   0.23687   0.63062   0.00000  Uiso   1.00
N647   N     0.48029   0.15216   0.73740   0.00000  Uiso   1.00
N648   N     0.51971   0.18117   0.76261   0.00000  Uiso   1.00
N649   N     0.56725   0.22003   0.59776   0.00000  Uiso   1.00
N650   N     0.44950   0.11636   0.88633   0.00000  Uiso   1.00
O651   O     0.63052   0.24631   0.75310   0.00000  Uiso   1.00
O652   O     0.36948   0.08702   0.74691   0.00000  Uiso   1.00
O653   O     0.39155   0.23702   0.74502   0.00000  Uiso   1.00
O654   O     0.60845   0.09632   0.75499   0.00000  Uiso   1.00
O655   O     0.63662   0.17397   0.82247   0.00000  Uiso   1.00
O656   O     0.36338   0.15937   0.67753   0.00000  Uiso   1.00
O657   O     0.39764   0.16467   0.81439   0.00000  Uiso   1.00
O658   O     0.60236   0.16866   0.68561   0.00000  Uiso   1.00
Zn659  Zn    0.60366   0.17287   0.75540   0.00000  Uiso   1.00
Zn660  Zn    0.39634   0.16046   0.74461   0.00000  Uiso   1.00
C661   C     0.68169   0.26488   0.74876   0.00000  Uiso   1.00
C662   C     0.97820   0.16261   0.65907   0.00000  Uiso   1.00
C663   C     0.69745   0.16631   0.89385   0.00000  Uiso   1.00
C664   C     0.96375   0.14824   0.60803   0.00000  Uiso   1.00
C665   C     0.67270   0.19798   0.97282   0.00000  Uiso   1.00
C666   C     0.95922   0.07682   0.54703   0.00000  Uiso   1.00
C667   C     0.99410   0.19226   0.92298   0.00000  Uiso   1.00
C668   C     0.98709   0.10417   0.58770   0.00000  Uiso   1.00
C669   C     0.74336   0.14055   0.91555   0.00000  Uiso   1.00
C670   C     0.91514   0.16795   0.58510   0.00000  Uiso   1.00
C671   C     0.75317   0.14354   0.96678   0.00000  Uiso   1.00
C672   C     0.98496   0.06845   0.75116   0.00000  Uiso   1.00
C673   C     0.88116   0.13484   0.55012   0.00000  Uiso   1.00
C674   C     0.72058   0.17669   0.99454   0.00000  Uiso   1.00
C675   C     0.90538   0.09063   0.52910   0.00000  Uiso   1.00
C676   C     0.79948   0.12033   0.99073   0.00000  Uiso   1.00
C677   C     0.82413   0.14432   0.53501   0.00000  Uiso   1.00
C678   C     0.90406   0.25685   0.56004   0.00000  Uiso   1.00
C679   C     0.83553   0.14768   0.88060   0.00000  Uiso   1.00
C680   C     0.79015   0.17545   0.56295   0.00000  Uiso   1.00
C681   C     0.82245   0.07486   0.97202   0.00000  Uiso   1.00
C682   C     0.73804   0.19028   0.54316   0.00000  Uiso   1.00
C683   C     0.87466   0.05987   0.99146   0.00000  Uiso   1.00
C684   C     0.68952   0.31944   0.74801   0.00000  Uiso   1.00
C685   C     0.97710   0.01388   0.75177   0.00000  Uiso   1.00
C686   C     0.68807   0.16840   0.84108   0.00000  Uiso   1.00
H687   H     0.71326   0.21512   0.56498   0.00000  Uiso   1.00
H688   H     0.94946   0.27091   0.55722   0.00000  Uiso   1.00
H689   H     0.88001   0.29113   0.56968   0.00000  Uiso   1.00
H690   H     0.88508   0.23924   0.52440   0.00000  Uiso   1.00
H691   H     0.76563   0.09407   0.85596   0.00000  Uiso   1.00
H692   H     0.86240   0.12587   0.85642   0.00000  Uiso   1.00
H693   H     0.86037   0.15649   0.91617   0.00000  Uiso   1.00
H694   H     0.82621   0.18526   0.86483   0.00000  Uiso   1.00
H695   H     0.97963   0.22155   0.99392   0.00000  Uiso   1.00
H696   H     0.97771   0.04273   0.53180   0.00000  Uiso   1.00
H697   H     0.82894   0.12421   0.71477   0.00000  Uiso   1.00
H698   H     0.89167   0.02500   0.97623   0.00000  Uiso   1.00
H699   H     0.83774   0.20974   0.78452   0.00000  Uiso   1.00
H700   H     0.69169   0.08910   0.60496   0.00000  Uiso   1.00
H701   H     0.95823   0.21143   0.90692   0.00000  Uiso   1.00
H702   H     0.80268   0.18751   0.60048   0.00000  Uiso   1.00
H703   H     0.79986   0.05021   0.94279   0.00000  Uiso   1.00
H704   H     0.73264   0.00322   0.74444   0.00000  Uiso   1.00
H705   H     0.93398   0.33010   0.75533   0.00000  Uiso   1.00
H706   H     0.91811   0.23687   0.63062   0.00000  Uiso   1.00
N707   N     0.81362   0.15216   0.73740   0.00000  Uiso   1.00
N708   N     0.85305   0.18117   0.76261   0.00000  Uiso   1.00
N709   N     0.90058   0.22003   0.59776   0.00000  Uiso   1.00
N710   N     0.78283   0.11636   0.88633   0.00000  Uiso   1.00
O711   O     0.96386   0.24631   0.75310   0.00000  Uiso   1.00
O712   O     0.70281   0.08702   0.74691   0.00000  Uiso   1.00
O713   O     0.72488   0.23702   0.74502   0.00000  Uiso   1.00
O714   O     0.94178   0.09632   0.75499   0.00000  Uiso   1.00
O715   O     0.96995   0.17397   0.82247   0.00000  Uiso   1.00
O716   O     0.69672   0.15937   0.67753   0.00000  Uiso   1.00
O717   O     0.73098   0.16467   0.81439   0.00000  Uiso   1.00
O718   O     0.93569   0.16866   0.68561   0.00000  Uiso   1.00
Zn719  Zn    0.93700   0.17287   0.75540   0.00000  Uiso   1.00
Zn720  Zn    0.72967   0.16046   0.74461   0.00000  Uiso   1.00
C721   C     0.01502   0.59822   0.74876   0.00000  Uiso   1.00
C722   C     0.31153   0.49594   0.65907   0.00000  Uiso   1.00
C723   C     0.03078   0.49964   0.89385   0.00000  Uiso   1.00
C724   C     0.29709   0.48158   0.60803   0.00000  Uiso   1.00
C725   C     0.00604   0.53131   0.97282   0.00000  Uiso   1.00
C726   C     0.29255   0.41015   0.54703   0.00000  Uiso   1.00
C727   C     0.32743   0.52559   0.92298   0.00000  Uiso   1.00
C728   C     0.32043   0.43750   0.58770   0.00000  Uiso   1.00
C729   C     0.07669   0.47388   0.91555   0.00000  Uiso   1.00
C730   C     0.24848   0.50128   0.58510   0.00000  Uiso   1.00
C731   C     0.08651   0.47687   0.96678   0.00000  Uiso   1.00
C732   C     0.31829   0.40178   0.75116   0.00000  Uiso   1.00
C733   C     0.21449   0.46818   0.55012   0.00000  Uiso   1.00
C734   C     0.05392   0.51003   0.99454   0.00000  Uiso   1.00
C735   C     0.23871   0.42396   0.52910   0.00000  Uiso   1.00
C736   C     0.13281   0.45367   0.99073   0.00000  Uiso   1.00
C737   C     0.15746   0.47766   0.53501   0.00000  Uiso   1.00
C738   C     0.23739   0.59018   0.56004   0.00000  Uiso   1.00
C739   C     0.16886   0.48101   0.88060   0.00000  Uiso   1.00
C740   C     0.12349   0.50878   0.56295   0.00000  Uiso   1.00
C741   C     0.15578   0.40820   0.97202   0.00000  Uiso   1.00
C742   C     0.07137   0.52361   0.54316   0.00000  Uiso   1.00
C743   C     0.20800   0.39321   0.99146   0.00000  Uiso   1.00
C744   C     0.02285   0.65277   0.74801   0.00000  Uiso   1.00
C745   C     0.31044   0.34722   0.75177   0.00000  Uiso   1.00
C746   C     0.02140   0.50174   0.84108   0.00000  Uiso   1.00
H747   H     0.04659   0.54845   0.56498   0.00000  Uiso   1.00
H748   H     0.28279   0.60424   0.55722   0.00000  Uiso   1.00
H749   H     0.21335   0.62446   0.56968   0.00000  Uiso   1.00
H750   H     0.21842   0.57257   0.52440   0.00000  Uiso   1.00
H751   H     0.09897   0.42740   0.85596   0.00000  Uiso   1.00
H752   H     0.19573   0.45921   0.85642   0.00000  Uiso   1.00
H753   H     0.19370   0.48982   0.91617   0.00000  Uiso   1.00
H754   H     0.15955   0.51859   0.86483   0.00000  Uiso   1.00
H755   H     0.31296   0.55488   0.99392   0.00000  Uiso   1.00
H756   H     0.31105   0.37606   0.53180   0.00000  Uiso   1.00
H757   H     0.16227   0.45755   0.71477   0.00000  Uiso   1.00
H758   H     0.22501   0.35834   0.97623   0.00000  Uiso   1.00
H759   H     0.17107   0.54307   0.78452   0.00000  Uiso   1.00
H760   H     0.02503   0.42244   0.60496   0.00000  Uiso   1.00
H761   H     0.29156   0.54476   0.90692   0.00000  Uiso   1.00
H762   H     0.13601   0.52085   0.60048   0.00000  Uiso   1.00
H763   H     0.13320   0.38354   0.94279   0.00000  Uiso   1.00
H764   H     0.06597   0.33656   0.74444   0.00000  Uiso   1.00
H765   H     0.26731   0.66343   0.75533   0.00000  Uiso   1.00
H766   H     0.25145   0.57020   0.63062   0.00000  Uiso   1.00
N767   N     0.14695   0.48550   0.73740   0.00000  Uiso   1.00
N768   N     0.18638   0.51450   0.76261   0.00000  Uiso   1.00
N769   N     0.23391   0.55336   0.59776   0.00000  Uiso   1.00
N770   N     0.11617   0.44970   0.88633   0.00000  Uiso   1.00
O771   O     0.29719   0.57964   0.75310   0.00000  Uiso   1.00
O772   O     0.03614   0.42036   0.74691   0.00000  Uiso   1.00
O773   O     0.05822   0.57035   0.74502   0.00000  Uiso   1.00
O774   O     0.27512   0.42965   0.75499   0.00000  Uiso   1.00
O775   O     0.30328   0.50730   0.82247   0.00000  Uiso   1.00
O776   O     0.03005   0.49270   0.67753   0.00000  Uiso   1.00
O777   O     0.06431   0.49801   0.81439   0.00000  Uiso   1.00
O778   O     0.26902   0.50199   0.68561   0.00000  Uiso   1.00
Zn779  Zn    0.27033   0.50621   0.75540   0.00000  Uiso   1.00
Zn780  Zn    0.06300   0.49379   0.74461   0.00000  Uiso   1.00
C781   C     0.34836   0.59822   0.74876   0.00000  Uiso   1.00
C782   C     0.64487   0.49594   0.65907   0.00000  Uiso   1.00
C783   C     0.36412   0.49964   0.89385   0.00000  Uiso   1.00
C784   C     0.63042   0.48158   0.60803   0.00000  Uiso   1.00
C785   C     0.33937   0.53131   0.97282   0.00000  Uiso   1.00
C786   C     0.62588   0.41015   0.54703   0.00000  Uiso   1.00
C787   C     0.66077   0.52559   0.92298   0.00000  Uiso   1.00
C788   C     0.65376   0.43750   0.58770   0.00000  Uiso   1.00
C789   C     0.41003   0.47388   0.91555   0.00000  Uiso   1.00
C790   C     0.58181   0.50128   0.58510   0.00000  Uiso   1.00
C791   C     0.41984   0.47687   0.96678   0.00000  Uiso   1.00
C792   C     0.65162   0.40178   0.75116   0.00000  Uiso   1.00
C793   C     0.54783   0.46818   0.55012   0.00000  Uiso   1.00
C794   C     0.38725   0.51003   0.99454   0.00000  Uiso   1.00
C795   C     0.57205   0.42396   0.52910   0.00000  Uiso   1.00
C796   C     0.46615   0.45367   0.99073   0.00000  Uiso   1.00
C797   C     0.49079   0.47766   0.53501   0.00000  Uiso   1.00
C798   C     0.57072   0.59018   0.56004   0.00000  Uiso   1.00
C799   C     0.50219   0.48101   0.88060   0.00000  Uiso   1.00
C800   C     0.45682   0.50878   0.56295   0.00000  Uiso   1.00
C801   C     0.48911   0.40820   0.97202   0.00000  Uiso   1.00
C802   C     0.40470   0.52361   0.54316   0.00000  Uiso   1.00
C803   C     0.54133   0.39321   0.99146   0.00000  Uiso   1.00
C804   C     0.35619   0.65277   0.74801   0.00000  Uiso   1.00
C805   C     0.64377   0.34722   0.75177   0.00000  Uiso   1.00
C806   C     0.35473   0.50174   0.84108   0.00000  Uiso   1.00
H807   H     0.37993   0.54845   0.56498   0.00000  Uiso   1.00
H808   H     0.61612   0.60424   0.55722   0.00000  Uiso   1.00
H809   H     0.54668   0.62446   0.56968   0.00000  Uiso   1.00
H810   H     0.55175   0.57257   0.52440   0.00000  Uiso   1.00
H811   H     0.43230   0.42740   0.85596   0.00000  Uiso   1.00
H812   H     0.52907   0.45921   0.85642   0.00000  Uiso   1.00
H813   H     0.52704   0.48982   0.91617   0.00000  Uiso   1.00
H814   H     0.49288   0.51859   0.86483   0.00000  Uiso   1.00
H815   H     0.64629   0.55488   0.99392   0.00000  Uiso   1.00
H816   H     0.64438   0.37606   0.53180   0.00000  Uiso   1.00
H817   H     0.49561   0.45755   0.71477   0.00000  Uiso   1.00
H818   H     0.55834   0.35834   0.97623   0.00000  Uiso   1.00
H819   H     0.50441   0.54307   0.78452   0.00000  Uiso   1.00
H820   H     0.35836   0.42244   0.60496   0.00000  Uiso   1.00
H821   H     0.62489   0.54476   0.90692   0.00000  Uiso   1.00
H822   H     0.46935   0.52085   0.60048   0.00000  Uiso   1.00
H823   H     0.46653   0.38354   0.94279   0.00000  Uiso   1.00
H824   H     0.39931   0.33656   0.74444   0.00000  Uiso   1.00
H825   H     0.60065   0.66343   0.75533   0.00000  Uiso   1.00
H826   H     0.58478   0.57020   0.63062   0.00000  Uiso   1.00
N827   N     0.48029   0.48550   0.73740   0.00000  Uiso   1.00
N828   N     0.51971   0.51450   0.76261   0.00000  Uiso   1.00
N829   N     0.56725   0.55336   0.59776   0.00000  Uiso   1.00
N830   N     0.44950   0.44970   0.88633   0.00000  Uiso   1.00
O831   O     0.63052   0.57964   0.75310   0.00000  Uiso   1.00
O832   O     0.36948   0.42036   0.74691   0.00000  Uiso   1.00
O833   O     0.39155   0.57035   0.74502   0.00000  Uiso   1.00
O834   O     0.60845   0.42965   0.75499   0.00000  Uiso   1.00
O835   O     0.63662   0.50730   0.82247   0.00000  Uiso   1.00
O836   O     0.36338   0.49270   0.67753   0.00000  Uiso   1.00
O837   O     0.39764   0.49801   0.81439   0.00000  Uiso   1.00
O838   O     0.60236   0.50199   0.68561   0.00000  Uiso   1.00
Zn839  Zn    0.60366   0.50621   0.75540   0.00000  Uiso   1.00
Zn840  Zn    0.39634   0.49379   0.74461   0.00000  Uiso   1.00
C841   C     0.68169   0.59822   0.74876   0.00000  Uiso   1.00
C842   C     0.97820   0.49594   0.65907   0.00000  Uiso   1.00
C843   C     0.69745   0.49964   0.89385   0.00000  Uiso   1.00
C844   C     0.96375   0.48158   0.60803   0.00000  Uiso   1.00
C845   C     0.67270   0.53131   0.97282   0.00000  Uiso   1.00
C846   C     0.95922   0.41015   0.54703   0.00000  Uiso   1.00
C847   C     0.99410   0.52559   0.92298   0.00000  Uiso   1.00
C848   C     0.98709   0.43750   0.58770   0.00000  Uiso   1.00
C849   C     0.74336   0.47388   0.91555   0.00000  Uiso   1.00
C850   C     0.91514   0.50128   0.58510   0.00000  Uiso   1.00
C851   C     0.75317   0.47687   0.96678   0.00000  Uiso   1.00
C852   C     0.98496   0.40178   0.75116   0.00000  Uiso   1.00
C853   C     0.88116   0.46818   0.55012   0.00000  Uiso   1.00
C854   C     0.72058   0.51003   0.99454   0.00000  Uiso   1.00
C855   C     0.90538   0.42396   0.52910   0.00000  Uiso   1.00
C856   C     0.79948   0.45367   0.99073   0.00000  Uiso   1.00
C857   C     0.82413   0.47766   0.53501   0.00000  Uiso   1.00
C858   C     0.90406   0.59018   0.56004   0.00000  Uiso   1.00
C859   C     0.83553   0.48101   0.88060   0.00000  Uiso   1.00
C860   C     0.79015   0.50878   0.56295   0.00000  Uiso   1.00
C861   C     0.82245   0.40820   0.97202   0.00000  Uiso   1.00
C862   C     0.73804   0.52361   0.54316   0.00000  Uiso   1.00
C863   C     0.87466   0.39321   0.99146   0.00000  Uiso   1.00
C864   C     0.68952   0.65277   0.74801   0.00000  Uiso   1.00
C865   C     0.97710   0.34722   0.75177   0.00000  Uiso   1.00
C866   C     0.68807   0.50174   0.84108   0.00000  Uiso   1.00
H867   H     0.71326   0.54845   0.56498   0.00000  Uiso   1.00
H868   H     0.94946   0.60424   0.55722   0.00000  Uiso   1.00
H869   H     0.88001   0.62446   0.56968   0.00000  Uiso   1.00
H870   H     0.88508   0.57257   0.52440   0.00000  Uiso   1.00
H871   H     0.76563   0.42740   0.85596   0.00000  Uiso   1.00
H872   H     0.86240   0.45921   0.85642   0.00000  Uiso   1.00
H873   H     0.86037   0.48982   0.91617   0.00000  Uiso   1.00
H874   H     0.82621   0.51859   0.86483   0.00000  Uiso   1.00
H875   H     0.97963   0.55488   0.99392   0.00000  Uiso   1.00
H876   H     0.97771   0.37606   0.53180   0.00000  Uiso   1.00
H877   H     0.82894   0.45755   0.71477   0.00000  Uiso   1.00
H878   H     0.89167   0.35834   0.97623   0.00000  Uiso   1.00
H879   H     0.83774   0.54307   0.78452   0.00000  Uiso   1.00
H880   H     0.69169   0.42244   0.60496   0.00000  Uiso   1.00
H881   H     0.95823   0.54476   0.90692   0.00000  Uiso   1.00
H882   H     0.80268   0.52085   0.60048   0.00000  Uiso   1.00
H883   H     0.79986   0.38354   0.94279   0.00000  Uiso   1.00
H884   H     0.73264   0.33656   0.74444   0.00000  Uiso   1.00
H885   H     0.93398   0.66343   0.75533   0.00000  Uiso   1.00
H886   H     0.91811   0.57020   0.63062   0.00000  Uiso   1.00
N887   N     0.81362   0.48550   0.73740   0.00000  Uiso   1.00
N888   N     0.85305   0.51450   0.76261   0.00000  Uiso   1.00
N889   N     0.90058   0.55336   0.59776   0.00000  Uiso   1.00
N890   N     0.78283   0.44970   0.88633   0.00000  Uiso   1.00
O891   O     0.96386   0.57964   0.75310   0.00000  Uiso   1.00
O892   O     0.70281   0.42036   0.74691   0.00000  Uiso   1.00
O893   O     0.72488   0.57035   0.74502   0.00000  Uiso   1.00
O894   O     0.94178   0.42965   0.75499   0.00000  Uiso   1.00
O895   O     0.96995   0.50730   0.82247   0.00000  Uiso   1.00
O896   O     0.69672   0.49270   0.67753   0.00000  Uiso   1.00
O897   O     0.73098   0.49801   0.81439   0.00000  Uiso   1.00
O898   O     0.93569   0.50199   0.68561   0.00000  Uiso   1.00
Zn899  Zn    0.93700   0.50621   0.75540   0.00000  Uiso   1.00
Zn900  Zn    0.72967   0.49379   0.74461   0.00000  Uiso   1.00
C901   C     0.01502   0.93155   0.74876   0.00000  Uiso   1.00
C902   C     0.31153   0.82928   0.65907   0.00000  Uiso   1.00
C903   C     0.03078   0.83298   0.89385   0.00000  Uiso   1.00
C904   C     0.29709   0.81491   0.60803   0.00000  Uiso   1.00
C905   C     0.00604   0.86465   0.97282   0.00000  Uiso   1.00
C906   C     0.29255   0.74348   0.54703   0.00000  Uiso   1.00
C907   C     0.32743   0.85892   0.92298   0.00000  Uiso   1.00
C908   C     0.32043   0.77084   0.58770   0.00000  Uiso   1.00
C909   C     0.07669   0.80722   0.91555   0.00000  Uiso   1.00
C910   C     0.24848   0.83461   0.58510   0.00000  Uiso   1.00
C911   C     0.08651   0.81020   0.96678   0.00000  Uiso   1.00
C912   C     0.31829   0.73511   0.75116   0.00000  Uiso   1.00
C913   C     0.21449   0.80151   0.55012   0.00000  Uiso   1.00
C914   C     0.05392   0.84336   0.99454   0.00000  Uiso   1.00
C915   C     0.23871   0.75729   0.52910   0.00000  Uiso   1.00
C916   C     0.13281   0.78700   0.99073   0.00000  Uiso   1.00
C917   C     0.15746   0.81099   0.53501   0.00000  Uiso   1.00
C918   C     0.23739   0.92351   0.56004   0.00000  Uiso   1.00
C919   C     0.16886   0.81435   0.88060   0.00000  Uiso   1.00
C920   C     0.12349   0.84212   0.56295   0.00000  Uiso   1.00
C921   C     0.15578   0.74153   0.97202   0.00000  Uiso   1.00
C922   C     0.07137   0.85695   0.54316   0.00000  Uiso   1.00
C923   C     0.20800   0.72654   0.99146   0.00000  Uiso   1.00
C924   C     0.02285   0.98611   0.74801   0.00000  Uiso   1.00
C925   C     0.31044   0.68055   0.75177   0.00000  Uiso   1.00
C926   C     0.02140   0.83507   0.84108   0.00000  Uiso   1.00
H927   H     0.04659   0.88179   0.56498   0.00000  Uiso   1.00
H928   H     0.28279   0.93758   0.55722   0.00000  Uiso   1.00
H929   H     0.21335   0.95780   0.56968   0.00000  Uiso   1.00
H930   H     0.21842   0.90591   0.52440   0.00000  Uiso   1.00
H931   H     0.09897   0.76074   0.85596   0.00000  Uiso   1.00
H932   H     0.19573   0.79254   0.85642   0.00000  Uiso   1.00
H933   H     0.19370   0.82315   0.91617   0.00000  Uiso   1.00
H934   H     0.15955   0.85192   0.86483   0.00000  Uiso   1.00
H935   H     0.31296   0.88821   0.99392   0.00000  Uiso   1.00
H936   H     0.31105   0.70939   0.53180   0.00000  Uiso   1.00
H937   H     0.16227   0.79088   0.71477   0.00000  Uiso   1.00
H938   H     0.22501   0.69167   0.97623   0.00000  Uiso   1.00
H939   H     0.17107   0.87641   0.78452   0.00000  Uiso   1.00
H940   H     0.02503   0.75577   0.60496   0.00000  Uiso   1.00
H941   H     0.29156   0.87809   0.90692   0.00000  Uiso   1.00
H942   H     0.13601   0.85418   0.60048   0.00000  Uiso   1.00
H943   H     0.13320   0.71687   0.94279   0.00000  Uiso   1.00
H944   H     0.06597   0.66989   0.74444   0.00000  Uiso   1.00
H945   H     0.26731   0.99677   0.75533   0.00000  Uiso   1.00
H946   H     0.25145   0.90354   0.63062   0.00000  Uiso   1.00
N947   N     0.14695   0.81883   0.73740   0.00000  Uiso   1.00
N948   N     0.18638   0.84784   0.76261   0.00000  Uiso   1.00
N949   N     0.23391   0.88669   0.59776   0.00000  Uiso   1.00
N950   N     0.11617   0.78303   0.88633   0.00000  Uiso   1.00
O951   O     0.29719   0.91298   0.75310   0.00000  Uiso   1.00
O952   O     0.03614   0.75369   0.74691   0.00000  Uiso   1.00
O953   O     0.05822   0.90368   0.74502   0.00000  Uiso   1.00
O954   O     0.27512   0.76298   0.75499   0.00000  Uiso   1.00
O955   O     0.30328   0.84063   0.82247   0.00000  Uiso   1.00
O956   O     0.03005   0.82603   0.67753   0.00000  Uiso   1.00
O957   O     0.06431   0.83134   0.81439   0.00000  Uiso   1.00
O958   O     0.26902   0.83533   0.68561   0.00000  Uiso   1.00
Zn959  Zn    0.27033   0.83954   0.75540   0.00000  Uiso   1.00
Zn960  Zn    0.06300   0.82713   0.74461   0.00000  Uiso   1.00
C961   C     0.34836   0.93155   0.74876   0.00000  Uiso   1.00
C962   C     0.64487   0.82928   0.65907   0.00000  Uiso   1.00
C963   C     0.36412   0.83298   0.89385   0.00000  Uiso   1.00
C964   C     0.63042   0.81491   0.60803   0.00000  Uiso   1.00
C965   C     0.33937   0.86465   0.97282   0.00000  Uiso   1.00
C966   C     0.62588   0.74348   0.54703   0.00000  Uiso   1.00
C967   C     0.66077   0.85892   0.92298   0.00000  Uiso   1.00
C968   C     0.65376   0.77084   0.58770   0.00000  Uiso   1.00
C969   C     0.41003   0.80722   0.91555   0.00000  Uiso   1.00
C970   C     0.58181   0.83461   0.58510   0.00000  Uiso   1.00
C971   C     0.41984   0.81020   0.96678   0.00000  Uiso   1.00
C972   C     0.65162   0.73511   0.75116   0.00000  Uiso   1.00
C973   C     0.54783   0.80151   0.55012   0.00000  Uiso   1.00
C974   C     0.38725   0.84336   0.99454   0.00000  Uiso   1.00
C975   C     0.57205   0.75729   0.52910   0.00000  Uiso   1.00
C976   C     0.46615   0.78700   0.99073   0.00000  Uiso   1.00
C977   C     0.49079   0.81099   0.53501   0.00000  Uiso   1.00
C978   C     0.57072   0.92351   0.56004   0.00000  Uiso   1.00
C979   C     0.50219   0.81435   0.88060   0.00000  Uiso   1.00
C980   C     0.45682   0.84212   0.56295   0.00000  Uiso   1.00
C981   C     0.48911   0.74153   0.97202   0.00000  Uiso   1.00
C982   C     0.40470   0.85695   0.54316   0.00000  Uiso   1.00
C983   C     0.54133   0.72654   0.99146   0.00000  Uiso   1.00
C984   C     0.35619   0.98611   0.74801   0.00000  Uiso   1.00
C985   C     0.64377   0.68055   0.75177   0.00000  Uiso   1.00
C986   C     0.35473   0.83507   0.84108   0.00000  Uiso   1.00
H987   H     0.37993   0.88179   0.56498   0.00000  Uiso   1.00
H988   H     0.61612   0.93758   0.55722   0.00000  Uiso   1.00
H989   H     0.54668   0.95780   0.56968   0.00000  Uiso   1.00
H990   H     0.55175   0.90591   0.52440   0.00000  Uiso   1.00
H991   H     0.43230   0.76074   0.85596   0.00000  Uiso   1.00
H992   H     0.52907   0.79254   0.85642   0.00000  Uiso   1.00
H993   H     0.52704   0.82315   0.91617   0.00000  Uiso   1.00
H994   H     0.49288   0.85192   0.86483   0.00000  Uiso   1.00
H995   H     0.64629   0.88821   0.99392   0.00000  Uiso   1.00
H996   H     0.64438   0.70939   0.53180   0.00000  Uiso   1.00
H997   H     0.49561   0.79088   0.71477   0.00000  Uiso   1.00
H998   H     0.55834   0.69167   0.97623   0.00000  Uiso   1.00
H999   H     0.50441   0.87641   0.78452   0.00000  Uiso   1.00
H1000  H     0.35836   0.75577   0.60496   0.00000  Uiso   1.00
H1001  H     0.62489   0.87809   0.90692   0.00000  Uiso   1.00
H1002  H     0.46935   0.85418   0.60048   0.00000  Uiso   1.00
H1003  H     0.46653   0.71687   0.94279   0.00000  Uiso   1.00
H1004  H     0.39931   0.66989   0.74444   0.00000  Uiso   1.00
H1005  H     0.60065   0.99677   0.75533   0.00000  Uiso   1.00
H1006  H     0.58478   0.90354   0.63062   0.00000  Uiso   1.00
N1007  N     0.48029   0.81883   0.73740   0.00000  Uiso   1.00
N1008  N     0.51971   0.84784   0.76261   0.00000  Uiso   1.00
N1009  N     0.56725   0.88669   0.59776   0.00000  Uiso   1.00
N1010  N     0.44950   0.78303   0.88633   0.00000  Uiso   1.00
O1011  O     0.63052   0.91298   0.75310   0.00000  Uiso   1.00
O1012  O     0.36948   0.75369   0.74691   0.00000  Uiso   1.00
O1013  O     0.39155   0.90368   0.74502   0.00000  Uiso   1.00
O1014  O     0.60845   0.76298   0.75499   0.00000  Uiso   1.00
O1015  O     0.63662   0.84063   0.82247   0.00000  Uiso   1.00
O1016  O     0.36338   0.82603   0.67753   0.00000  Uiso   1.00
O1017  O     0.39764   0.83134   0.81439   0.00000  Uiso   1.00
O1018  O     0.60236   0.83533   0.68561   0.00000  Uiso   1.00
Zn1019 Zn    0.60366   0.83954   0.75540   0.00000  Uiso   1.00
Zn1020 Zn    0.39634   0.82713   0.74461   0.00000  Uiso   1.00
C1021  C     0.68169   0.93155   0.74876   0.00000  Uiso   1.00
C1022  C     0.97820   0.82928   0.65907   0.00000  Uiso   1.00
C1023  C     0.69745   0.83298   0.89385   0.00000  Uiso   1.00
C1024  C     0.96375   0.81491   0.60803   0.00000  Uiso   1.00
C1025  C     0.67270   0.86465   0.97282   0.00000  Uiso   1.00
C1026  C     0.95922   0.74348   0.54703   0.00000  Uiso   1.00
C1027  C     0.99410   0.85892   0.92298   0.00000  Uiso   1.00
C1028  C     0.98709   0.77084   0.58770   0.00000  Uiso   1.00
C1029  C     0.74336   0.80722   0.91555   0.00000  Uiso   1.00
C1030  C     0.91514   0.83461   0.58510   0.00000  Uiso   1.00
C1031  C     0.75317   0.81020   0.96678   0.00000  Uiso   1.00
C1032  C     0.98496   0.73511   0.75116   0.00000  Uiso   1.00
C1033  C     0.88116   0.80151   0.55012   0.00000  Uiso   1.00
C1034  C     0.72058   0.84336   0.99454   0.00000  Uiso   1.00
C1035  C     0.90538   0.75729   0.52910   0.00000  Uiso   1.00
C1036  C     0.79948   0.78700   0.99073   0.00000  Uiso   1.00
C1037  C     0.82413   0.81099   0.53501   0.00000  Uiso   1.00
C1038  C     0.90406   0.92351   0.56004   0.00000  Uiso   1.00
C1039  C     0.83553   0.81435   0.88060   0.00000  Uiso   1.00
C1040  C     0.79015   0.84212   0.56295   0.00000  Uiso   1.00
C1041  C     0.82245   0.74153   0.97202   0.00000  Uiso   1.00
C1042  C     0.73804   0.85695   0.54316   0.00000  Uiso   1.00
C1043  C     0.87466   0.72654   0.99146   0.00000  Uiso   1.00
C1044  C     0.68952   0.98611   0.74801   0.00000  Uiso   1.00
C1045  C     0.97710   0.68055   0.75177   0.00000  Uiso   1.00
C1046  C     0.68807   0.83507   0.84108   0.00000  Uiso   1.00
H1047  H     0.71326   0.88179   0.56498   0.00000  Uiso   1.00
H1048  H     0.94946   0.93758   0.55722   0.00000  Uiso   1.00
H1049  H     0.88001   0.95780   0.56968   0.00000  Uiso   1.00
H1050  H     0.88508   0.90591   0.52440   0.00000  Uiso   1.00
H1051  H     0.76563   0.76074   0.85596   0.00000  Uiso   1.00
H1052  H     0.86240   0.79254   0.85642   0.00000  Uiso   1.00
H1053  H     0.86037   0.82315   0.91617   0.00000  Uiso   1.00
H1054  H     0.82621   0.85192   0.86483   0.00000  Uiso   1.00
H1055  H     0.97963   0.88821   0.99392   0.00000  Uiso   1.00
H1056  H     0.97771   0.70939   0.53180   0.00000  Uiso   1.00
H1057  H     0.82894   0.79088   0.71477   0.00000  Uiso   1.00
H1058  H     0.89167   0.69167   0.97623   0.00000  Uiso   1.00
H1059  H     0.83774   0.87641   0.78452   0.00000  Uiso   1.00
H1060  H     0.69169   0.75577   0.60496   0.00000  Uiso   1.00
H1061  H     0.95823   0.87809   0.90692   0.00000  Uiso   1.00
H1062  H     0.80268   0.85418   0.60048   0.00000  Uiso   1.00
H1063  H     0.79986   0.71687   0.94279   0.00000  Uiso   1.00
H1064  H     0.73264   0.66989   0.74444   0.00000  Uiso   1.00
H1065  H     0.93398   0.99677   0.75533   0.00000  Uiso   1.00
H1066  H     0.91811   0.90354   0.63062   0.00000  Uiso   1.00
N1067  N     0.81362   0.81883   0.73740   0.00000  Uiso   1.00
N1068  N     0.85305   0.84784   0.76261   0.00000  Uiso   1.00
N1069  N     0.90058   0.88669   0.59776   0.00000  Uiso   1.00
N1070  N     0.78283   0.78303   0.88633   0.00000  Uiso   1.00
O1071  O     0.96386   0.91298   0.75310   0.00000  Uiso   1.00
O1072  O     0.70281   0.75369   0.74691   0.00000  Uiso   1.00
O1073  O     0.72488   0.90368   0.74502   0.00000  Uiso   1.00
O1074  O     0.94178   0.76298   0.75499   0.00000  Uiso   1.00
O1075  O     0.96995   0.84063   0.82247   0.00000  Uiso   1.00
O1076  O     0.69672   0.82603   0.67753   0.00000  Uiso   1.00
O1077  O     0.73098   0.83134   0.81439   0.00000  Uiso   1.00
O1078  O     0.93569   0.83533   0.68561   0.00000  Uiso   1.00
Zn1079 Zn    0.93700   0.83954   0.75540   0.00000  Uiso   1.00
Zn1080 Zn    0.72967   0.82713   0.74461   0.00000  Uiso   1.00
loop_
_geom_bond_atom_site_label_1
_geom_bond_atom_site_label_2
_geom_bond_distance
_geom_bond_site_symmetry_2
_ccdc_geom_bond_type
C1     C24     1.401   .     S
C1     O53     1.289   .     A
C1     O171    1.277   1_455 S
C2     C4      1.449   .     S
C2     O58     1.296   .     A
C2     O116    1.294   .     S
C3     C9      1.416   .     A
C3     C26     1.464   .     S
C3     C127    1.401   1_455 S
C4     C8      1.402   .     A
C4     C10     1.402   .     A
C5     C14     1.393   .     A
C5     C127    1.384   1_455 S
C5     H155    1.078   1_455 S
C6     H36     1.084   .     S
C6     C8      1.388   .     A
C6     C15     1.398   .     A
C7     H41     1.083   .     S
C7     C63     1.401   .     S
C7     C65     1.384   .     S
C8     H100    1.084   .     S
C9     C11     1.416   .     A
C9     N50     1.428   .     S
C10    N49     1.436   .     S
C10    C13     1.413   .     A
C11    C16     1.414   .     A
C11    C14     1.418   .     A
C12    C25     1.401   .     S
C12    O54     1.289   .     A
C12    O112    1.277   .     S
C13    C17     1.413   .     A
C13    C15     1.422   .     A
C14    C562    1.395   .     S
C15    C563    1.395   1_554 S
C16    C21     1.410   .     A
C16    C557    1.406   .     S
C17    C20     1.411   .     A
C17    C556    1.406   1_554 S
C18    H29     1.110   .     S
C18    H30     1.110   .     S
C18    H28     1.110   .     S
C18    N49     1.448   .     S
C19    N50     1.450   .     S
C19    H32     1.110   .     S
C19    H33     1.109   .     S
C19    H34     1.109   .     S
C20    H42     1.081   .     S
C20    C22     1.388   .     A
C21    C23     1.389   .     A
C21    H43     1.081   .     S
C22    H27     1.084   .     S
C22    C554    1.395   1_554 S
C23    H38     1.084   .     S
C23    C555    1.395   .     S
C24    C325    1.338   1_455 S
C24    H224    1.088   .     S
C25    C444    1.338   1_545 S
C25    H405    1.088   1_545 S
C26    O57     1.299   .     A
C26    O175    1.297   1_455 S
H31    N50     1.031   .     S
H35    C65     1.078   .     S
H37    N47     1.029   .     S
H39    N48     1.029   .     S
H40    C128    1.084   1_455 S
H44    C384    1.088   1_545 S
H45    C205    1.088   .     S
H46    N49     1.029   .     S
N47    N48     1.283   .     D
N47    Zn60    2.020   .     S
N48    Zn59    2.020   .     S
O51    Zn59    1.951   .     S
O51    C61     1.277   .     S
O52    Zn60    1.951   .     S
O52    C132    1.277   1_455 S
O53    Zn60    1.977   .     S
O54    Zn59    1.977   .     S
O55    Zn59    1.954   .     S
O55    C86     1.297   .     S
O56    Zn60    1.954   .     S
O56    C122    1.294   1_455 S
O57    Zn60    1.926   .     S
O58    Zn59    1.926   .     S
C61    C84     1.401   .     S
C61    O113    1.289   .     A
C62    C64     1.449   .     S
C62    O118    1.296   .     A
C62    O176    1.294   .     S
C63    C69     1.416   .     A
C63    C86     1.464   .     S
C64    C68     1.402   .     A
C64    C70     1.402   .     A
C65    C74     1.393   .     A
C66    H96     1.084   .     S
C66    C68     1.388   .     A
C66    C75     1.398   .     A
C67    H101    1.083   .     S
C67    C123    1.401   .     S
C67    C125    1.384   .     S
C68    H160    1.084   .     S
C69    C71     1.416   .     A
C69    N110    1.428   .     S
C70    N109    1.436   .     S
C70    C73     1.413   .     A
C71    C76     1.414   .     A
C71    C74     1.418   .     A
C72    C85     1.401   .     S
C72    O114    1.289   .     A
C72    O172    1.277   .     S
C73    C77     1.413   .     A
C73    C75     1.422   .     A
C74    C622    1.395   .     S
C75    C623    1.395   1_554 S
C76    C81     1.410   .     A
C76    C617    1.406   .     S
C77    C80     1.411   .     A
C77    C616    1.406   1_554 S
C78    H89     1.110   .     S
C78    H90     1.110   .     S
C78    H88     1.110   .     S
C78    N109    1.448   .     S
C79    N110    1.450   .     S
C79    H92     1.110   .     S
C79    H93     1.109   .     S
C79    H94     1.109   .     S
C80    H102    1.081   .     S
C80    C82     1.388   .     A
C81    C83     1.389   .     A
C81    H103    1.081   .     S
C82    H87     1.084   .     S
C82    C614    1.395   1_554 S
C83    H98     1.084   .     S
C83    C615    1.395   .     S
C84    C205    1.338   .     S
C84    H284    1.088   .     S
C85    C504    1.338   1_545 S
C85    H465    1.088   1_545 S
C86    O117    1.299   .     A
H91    N110    1.031   .     S
H95    C125    1.078   .     S
H97    N107    1.029   .     S
H99    N108    1.029   .     S
H104   C444    1.088   1_545 S
H105   C265    1.088   .     S
H106   N109    1.029   .     S
N107   N108    1.283   .     D
N107   Zn120   2.020   .     S
N108   Zn119   2.020   .     S
O111   Zn119   1.951   .     S
O111   C121    1.277   .     S
O112   Zn120   1.951   .     S
O113   Zn120   1.977   .     S
O114   Zn119   1.977   .     S
O115   Zn119   1.954   .     S
O115   C146    1.297   .     S
O116   Zn120   1.954   .     S
O117   Zn120   1.926   .     S
O118   Zn119   1.926   .     S
C121   C144    1.401   .     S
C121   O173    1.289   .     A
C122   C124    1.449   .     S
C122   O178    1.296   .     A
C122   O56     1.294   1_655 S
C123   C129    1.416   .     A
C123   C146    1.464   .     S
C124   C128    1.402   .     A
C124   C130    1.402   .     A
C125   C134    1.393   .     A
C126   H156    1.084   .     S
C126   C128    1.388   .     A
C126   C135    1.398   .     A
C127   H161    1.083   .     S
C127   C3      1.401   1_655 S
C127   C5      1.384   1_655 S
C128   H40     1.084   1_655 S
C129   C131    1.416   .     A
C129   N170    1.428   .     S
C130   N169    1.436   .     S
C130   C133    1.413   .     A
C131   C136    1.414   .     A
C131   C134    1.418   .     A
C132   C145    1.401   .     S
C132   O174    1.289   .     A
C132   O52     1.277   1_655 S
C133   C137    1.413   .     A
C133   C135    1.422   .     A
C134   C682    1.395   .     S
C135   C683    1.395   1_554 S
C136   C141    1.410   .     A
C136   C677    1.406   .     S
C137   C140    1.411   .     A
C137   C676    1.406   1_554 S
C138   H149    1.110   .     S
C138   H150    1.110   .     S
C138   H148    1.110   .     S
C138   N169    1.448   .     S
C139   N170    1.450   .     S
C139   H152    1.110   .     S
C139   H153    1.109   .     S
C139   H154    1.109   .     S
C140   H162    1.081   .     S
C140   C142    1.388   .     A
C141   C143    1.389   .     A
C141   H163    1.081   .     S
C142   H147    1.084   .     S
C142   C674    1.395   1_554 S
C143   H158    1.084   .     S
C143   C675    1.395   .     S
C144   C265    1.338   .     S
C144   H344    1.088   .     S
C145   C384    1.338   1_645 S
C145   H525    1.088   1_545 S
C146   O177    1.299   .     A
H151   N170    1.031   .     S
H155   C5      1.078   1_655 S
H157   N167    1.029   .     S
H159   N168    1.029   .     S
H164   C504    1.088   1_545 S
H165   C325    1.088   .     S
H166   N169    1.029   .     S
N167   N168    1.283   .     D
N167   Zn180   2.020   .     S
N168   Zn179   2.020   .     S
O171   Zn179   1.951   .     S
O171   C1      1.277   1_655 S
O172   Zn180   1.951   .     S
O173   Zn180   1.977   .     S
O174   Zn179   1.977   .     S
O175   Zn179   1.954   .     S
O175   C26     1.297   1_655 S
O176   Zn180   1.954   .     S
O177   Zn180   1.926   .     S
O178   Zn179   1.926   .     S
C181   C204    1.401   .     S
C181   O233    1.289   .     A
C181   O351    1.277   1_455 S
C182   C184    1.449   .     S
C182   O238    1.296   .     A
C182   O296    1.294   .     S
C183   C189    1.416   .     A
C183   C206    1.464   .     S
C183   C307    1.401   1_455 S
C184   C188    1.402   .     A
C184   C190    1.402   .     A
C185   C194    1.393   .     A
C185   C307    1.384   1_455 S
C185   H335    1.078   1_455 S
C186   H216    1.084   .     S
C186   C188    1.388   .     A
C186   C195    1.398   .     A
C187   H221    1.083   .     S
C187   C243    1.401   .     S
C187   C245    1.384   .     S
C188   H280    1.084   .     S
C189   C191    1.416   .     A
C189   N230    1.428   .     S
C190   N229    1.436   .     S
C190   C193    1.413   .     A
C191   C196    1.414   .     A
C191   C194    1.418   .     A
C192   C205    1.401   .     S
C192   O234    1.289   .     A
C192   O292    1.277   .     S
C193   C197    1.413   .     A
C193   C195    1.422   .     A
C194   C742    1.395   .     S
C195   C743    1.395   1_554 S
C196   C201    1.410   .     A
C196   C737    1.406   .     S
C197   C200    1.411   .     A
C197   C736    1.406   1_554 S
C198   H209    1.110   .     S
C198   H210    1.110   .     S
C198   H208    1.110   .     S
C198   N229    1.448   .     S
C199   N230    1.450   .     S
C199   H212    1.110   .     S
C199   H213    1.109   .     S
C199   H214    1.109   .     S
C200   H222    1.081   .     S
C200   C202    1.388   .     A
C201   C203    1.389   .     A
C201   H223    1.081   .     S
C202   H207    1.084   .     S
C202   C734    1.395   1_554 S
C203   H218    1.084   .     S
C203   C735    1.395   .     S
C204   C505    1.338   1_455 S
C204   H404    1.088   .     S
C206   O237    1.299   .     A
C206   O355    1.297   1_455 S
H211   N230    1.031   .     S
H215   C245    1.078   .     S
H217   N227    1.029   .     S
H219   N228    1.029   .     S
H220   C308    1.084   1_455 S
H225   C385    1.088   .     S
H226   N229    1.029   .     S
N227   N228    1.283   .     D
N227   Zn240   2.020   .     S
N228   Zn239   2.020   .     S
O231   Zn239   1.951   .     S
O231   C241    1.277   .     S
O232   Zn240   1.951   .     S
O232   C312    1.277   1_455 S
O233   Zn240   1.977   .     S
O234   Zn239   1.977   .     S
O235   Zn239   1.954   .     S
O235   C266    1.297   .     S
O236   Zn240   1.954   .     S
O236   C302    1.294   1_455 S
O237   Zn240   1.926   .     S
O238   Zn239   1.926   .     S
C241   C264    1.401   .     S
C241   O293    1.289   .     A
C242   C244    1.449   .     S
C242   O298    1.296   .     A
C242   O356    1.294   .     S
C243   C249    1.416   .     A
C243   C266    1.464   .     S
C244   C248    1.402   .     A
C244   C250    1.402   .     A
C245   C254    1.393   .     A
C246   H276    1.084   .     S
C246   C248    1.388   .     A
C246   C255    1.398   .     A
C247   H281    1.083   .     S
C247   C303    1.401   .     S
C247   C305    1.384   .     S
C248   H340    1.084   .     S
C249   C251    1.416   .     A
C249   N290    1.428   .     S
C250   N289    1.436   .     S
C250   C253    1.413   .     A
C251   C256    1.414   .     A
C251   C254    1.418   .     A
C252   C265    1.401   .     S
C252   O294    1.289   .     A
C252   O352    1.277   .     S
C253   C257    1.413   .     A
C253   C255    1.422   .     A
C254   C802    1.395   .     S
C255   C803    1.395   1_554 S
C256   C261    1.410   .     A
C256   C797    1.406   .     S
C257   C260    1.411   .     A
C257   C796    1.406   1_554 S
C258   H269    1.110   .     S
C258   H270    1.110   .     S
C258   H268    1.110   .     S
C258   N289    1.448   .     S
C259   N290    1.450   .     S
C259   H272    1.110   .     S
C259   H273    1.109   .     S
C259   H274    1.109   .     S
C260   H282    1.081   .     S
C260   C262    1.388   .     A
C261   C263    1.389   .     A
C261   H283    1.081   .     S
C262   H267    1.084   .     S
C262   C794    1.395   1_554 S
C263   H278    1.084   .     S
C263   C795    1.395   .     S
C264   C385    1.338   .     S
C264   H464    1.088   .     S
C266   O297    1.299   .     A
H271   N290    1.031   .     S
H275   C305    1.078   .     S
H277   N287    1.029   .     S
H279   N288    1.029   .     S
H285   C445    1.088   .     S
H286   N289    1.029   .     S
N287   N288    1.283   .     D
N287   Zn300   2.020   .     S
N288   Zn299   2.020   .     S
O291   Zn299   1.951   .     S
O291   C301    1.277   .     S
O292   Zn300   1.951   .     S
O293   Zn300   1.977   .     S
O294   Zn299   1.977   .     S
O295   Zn299   1.954   .     S
O295   C326    1.297   .     S
O296   Zn300   1.954   .     S
O297   Zn300   1.926   .     S
O298   Zn299   1.926   .     S
C301   C324    1.401   .     S
C301   O353    1.289   .     A
C302   C304    1.449   .     S
C302   O358    1.296   .     A
C302   O236    1.294   1_655 S
C303   C309    1.416   .     A
C303   C326    1.464   .     S
C304   C308    1.402   .     A
C304   C310    1.402   .     A
C305   C314    1.393   .     A
C306   H336    1.084   .     S
C306   C308    1.388   .     A
C306   C315    1.398   .     A
C307   H341    1.083   .     S
C307   C183    1.401   1_655 S
C307   C185    1.384   1_655 S
C308   H220    1.084   1_655 S
C309   C311    1.416   .     A
C309   N350    1.428   .     S
C310   N349    1.436   .     S
C310   C313    1.413   .     A
C311   C316    1.414   .     A
C311   C314    1.418   .     A
C312   C325    1.401   .     S
C312   O354    1.289   .     A
C312   O232    1.277   1_655 S
C313   C317    1.413   .     A
C313   C315    1.422   .     A
C314   C862    1.395   .     S
C315   C863    1.395   1_554 S
C316   C321    1.410   .     A
C316   C857    1.406   .     S
C317   C320    1.411   .     A
C317   C856    1.406   1_554 S
C318   H329    1.110   .     S
C318   H330    1.110   .     S
C318   H328    1.110   .     S
C318   N349    1.448   .     S
C319   N350    1.450   .     S
C319   H332    1.110   .     S
C319   H333    1.109   .     S
C319   H334    1.109   .     S
C320   H342    1.081   .     S
C320   C322    1.388   .     A
C321   C323    1.389   .     A
C321   H343    1.081   .     S
C322   H327    1.084   .     S
C322   C854    1.395   1_554 S
C323   H338    1.084   .     S
C323   C855    1.395   .     S
C324   C445    1.338   .     S
C324   H524    1.088   .     S
C325   C24     1.338   1_655 S
C326   O357    1.299   .     A
H331   N350    1.031   .     S
H335   C185    1.078   1_655 S
H337   N347    1.029   .     S
H339   N348    1.029   .     S
H345   C505    1.088   .     S
H346   N349    1.029   .     S
N347   N348    1.283   .     D
N347   Zn360   2.020   .     S
N348   Zn359   2.020   .     S
O351   Zn359   1.951   .     S
O351   C181    1.277   1_655 S
O352   Zn360   1.951   .     S
O353   Zn360   1.977   .     S
O354   Zn359   1.977   .     S
O355   Zn359   1.954   .     S
O355   C206    1.297   1_655 S
O356   Zn360   1.954   .     S
O357   Zn360   1.926   .     S
O358   Zn359   1.926   .     S
C361   C384    1.401   .     S
C361   O413    1.289   .     A
C361   O531    1.277   1_455 S
C362   C364    1.449   .     S
C362   O418    1.296   .     A
C362   O476    1.294   .     S
C363   C369    1.416   .     A
C363   C386    1.464   .     S
C363   C487    1.401   1_455 S
C364   C368    1.402   .     A
C364   C370    1.402   .     A
C365   C374    1.393   .     A
C365   C487    1.384   1_455 S
C365   H515    1.078   1_455 S
C366   H396    1.084   .     S
C366   C368    1.388   .     A
C366   C375    1.398   .     A
C367   H401    1.083   .     S
C367   C423    1.401   .     S
C367   C425    1.384   .     S
C368   H460    1.084   .     S
C369   C371    1.416   .     A
C369   N410    1.428   .     S
C370   N409    1.436   .     S
C370   C373    1.413   .     A
C371   C376    1.414   .     A
C371   C374    1.418   .     A
C372   C385    1.401   .     S
C372   O414    1.289   .     A
C372   O472    1.277   .     S
C373   C377    1.413   .     A
C373   C375    1.422   .     A
C374   C922    1.395   .     S
C375   C923    1.395   1_554 S
C376   C381    1.410   .     A
C376   C917    1.406   .     S
C377   C380    1.411   .     A
C377   C916    1.406   1_554 S
C378   H389    1.110   .     S
C378   H390    1.110   .     S
C378   H388    1.110   .     S
C378   N409    1.448   .     S
C379   N410    1.450   .     S
C379   H392    1.110   .     S
C379   H393    1.109   .     S
C379   H394    1.109   .     S
C380   H402    1.081   .     S
C380   C382    1.388   .     A
C381   C383    1.389   .     A
C381   H403    1.081   .     S
C382   H387    1.084   .     S
C382   C914    1.395   1_554 S
C383   H398    1.084   .     S
C383   C915    1.395   .     S
C384   C145    1.338   1_465 S
C384   H44     1.088   1_565 S
C386   O417    1.299   .     A
C386   O535    1.297   1_455 S
H391   N410    1.031   .     S
H395   C425    1.078   .     S
H397   N407    1.029   .     S
H399   N408    1.029   .     S
H400   C488    1.084   1_455 S
H405   C25     1.088   1_565 S
H406   N409    1.029   .     S
N407   N408    1.283   .     D
N407   Zn420   2.020   .     S
N408   Zn419   2.020   .     S
O411   Zn419   1.951   .     S
O411   C421    1.277   .     S
O412   Zn420   1.951   .     S
O412   C492    1.277   1_455 S
O413   Zn420   1.977   .     S
O414   Zn419   1.977   .     S
O415   Zn419   1.954   .     S
O415   C446    1.297   .     S
O416   Zn420   1.954   .     S
O416   C482    1.294   1_455 S
O417   Zn420   1.926   .     S
O418   Zn419   1.926   .     S
C421   C444    1.401   .     S
C421   O473    1.289   .     A
C422   C424    1.449   .     S
C422   O478    1.296   .     A
C422   O536    1.294   .     S
C423   C429    1.416   .     A
C423   C446    1.464   .     S
C424   C428    1.402   .     A
C424   C430    1.402   .     A
C425   C434    1.393   .     A
C426   H456    1.084   .     S
C426   C428    1.388   .     A
C426   C435    1.398   .     A
C427   H461    1.083   .     S
C427   C483    1.401   .     S
C427   C485    1.384   .     S
C428   H520    1.084   .     S
C429   C431    1.416   .     A
C429   N470    1.428   .     S
C430   N469    1.436   .     S
C430   C433    1.413   .     A
C431   C436    1.414   .     A
C431   C434    1.418   .     A
C432   C445    1.401   .     S
C432   O474    1.289   .     A
C432   O532    1.277   .     S
C433   C437    1.413   .     A
C433   C435    1.422   .     A
C434   C982    1.395   .     S
C435   C983    1.395   1_554 S
C436   C441    1.410   .     A
C436   C977    1.406   .     S
C437   C440    1.411   .     A
C437   C976    1.406   1_554 S
C438   H449    1.110   .     S
C438   H450    1.110   .     S
C438   H448    1.110   .     S
C438   N469    1.448   .     S
C439   N470    1.450   .     S
C439   H452    1.110   .     S
C439   H453    1.109   .     S
C439   H454    1.109   .     S
C440   H462    1.081   .     S
C440   C442    1.388   .     A
C441   C443    1.389   .     A
C441   H463    1.081   .     S
C442   H447    1.084   .     S
C442   C974    1.395   1_554 S
C443   H458    1.084   .     S
C443   C975    1.395   .     S
C444   C25     1.338   1_565 S
C444   H104    1.088   1_565 S
C446   O477    1.299   .     A
H451   N470    1.031   .     S
H455   C485    1.078   .     S
H457   N467    1.029   .     S
H459   N468    1.029   .     S
H465   C85     1.088   1_565 S
H466   N469    1.029   .     S
N467   N468    1.283   .     D
N467   Zn480   2.020   .     S
N468   Zn479   2.020   .     S
O471   Zn479   1.951   .     S
O471   C481    1.277   .     S
O472   Zn480   1.951   .     S
O473   Zn480   1.977   .     S
O474   Zn479   1.977   .     S
O475   Zn479   1.954   .     S
O475   C506    1.297   .     S
O476   Zn480   1.954   .     S
O477   Zn480   1.926   .     S
O478   Zn479   1.926   .     S
C481   C504    1.401   .     S
C481   O533    1.289   .     A
C482   C484    1.449   .     S
C482   O538    1.296   .     A
C482   O416    1.294   1_655 S
C483   C489    1.416   .     A
C483   C506    1.464   .     S
C484   C488    1.402   .     A
C484   C490    1.402   .     A
C485   C494    1.393   .     A
C486   H516    1.084   .     S
C486   C488    1.388   .     A
C486   C495    1.398   .     A
C487   H521    1.083   .     S
C487   C363    1.401   1_655 S
C487   C365    1.384   1_655 S
C488   H400    1.084   1_655 S
C489   C491    1.416   .     A
C489   N530    1.428   .     S
C490   N529    1.436   .     S
C490   C493    1.413   .     A
C491   C496    1.414   .     A
C491   C494    1.418   .     A
C492   C505    1.401   .     S
C492   O534    1.289   .     A
C492   O412    1.277   1_655 S
C493   C497    1.413   .     A
C493   C495    1.422   .     A
C494   C1042   1.395   .     S
C495   C1043   1.395   1_554 S
C496   C501    1.410   .     A
C496   C1037   1.406   .     S
C497   C500    1.411   .     A
C497   C1036   1.406   1_554 S
C498   H509    1.110   .     S
C498   H510    1.110   .     S
C498   H508    1.110   .     S
C498   N529    1.448   .     S
C499   N530    1.450   .     S
C499   H512    1.110   .     S
C499   H513    1.109   .     S
C499   H514    1.109   .     S
C500   H522    1.081   .     S
C500   C502    1.388   .     A
C501   C503    1.389   .     A
C501   H523    1.081   .     S
C502   H507    1.084   .     S
C502   C1034   1.395   1_554 S
C503   H518    1.084   .     S
C503   C1035   1.395   .     S
C504   C85     1.338   1_565 S
C504   H164    1.088   1_565 S
C505   C204    1.338   1_655 S
C506   O537    1.299   .     A
H511   N530    1.031   .     S
H515   C365    1.078   1_655 S
H517   N527    1.029   .     S
H519   N528    1.029   .     S
H525   C145    1.088   1_565 S
H526   N529    1.029   .     S
N527   N528    1.283   .     D
N527   Zn540   2.020   .     S
N528   Zn539   2.020   .     S
O531   Zn539   1.951   .     S
O531   C361    1.277   1_655 S
O532   Zn540   1.951   .     S
O533   Zn540   1.977   .     S
O534   Zn539   1.977   .     S
O535   Zn539   1.954   .     S
O535   C386    1.297   1_655 S
O536   Zn540   1.954   .     S
O537   Zn540   1.926   .     S
O538   Zn539   1.926   .     S
C541   C564    1.401   .     S
C541   O593    1.289   .     A
C541   O711    1.277   1_455 S
C542   C544    1.449   .     S
C542   O598    1.296   .     A
C542   O656    1.294   .     S
C543   C549    1.416   .     A
C543   C566    1.464   .     S
C543   C667    1.401   1_455 S
C544   C548    1.402   .     A
C544   C550    1.402   .     A
C545   C554    1.393   .     A
C545   C667    1.384   1_455 S
C545   H695    1.078   1_455 S
C546   H576    1.084   .     S
C546   C548    1.388   .     A
C546   C555    1.398   .     A
C547   H581    1.083   .     S
C547   C603    1.401   .     S
C547   C605    1.384   .     S
C548   H640    1.084   .     S
C549   C551    1.416   .     A
C549   N590    1.428   .     S
C550   N589    1.436   .     S
C550   C553    1.413   .     A
C551   C556    1.414   .     A
C551   C554    1.418   .     A
C552   C565    1.401   .     S
C552   O594    1.289   .     A
C552   O652    1.277   .     S
C553   C557    1.413   .     A
C553   C555    1.422   .     A
C554   C22     1.395   1_556 S
C556   C561    1.410   .     A
C556   C17     1.406   1_556 S
C557   C560    1.411   .     A
C558   H569    1.110   .     S
C558   H570    1.110   .     S
C558   H568    1.110   .     S
C558   N589    1.448   .     S
C559   N590    1.450   .     S
C559   H572    1.110   .     S
C559   H573    1.109   .     S
C559   H574    1.109   .     S
C560   H582    1.081   .     S
C560   C562    1.388   .     A
C561   C563    1.389   .     A
C561   H583    1.081   .     S
C562   H567    1.084   .     S
C563   H578    1.084   .     S
C563   C15     1.395   1_556 S
C564   C865    1.338   1_455 S
C564   H764    1.088   .     S
C565   C984    1.338   1_545 S
C565   H945    1.088   1_545 S
C566   O597    1.299   .     A
C566   O715    1.297   1_455 S
H571   N590    1.031   .     S
H575   C605    1.078   .     S
H577   N587    1.029   .     S
H579   N588    1.029   .     S
H580   C668    1.084   1_455 S
H584   C924    1.088   1_545 S
H585   C745    1.088   .     S
H586   N589    1.029   .     S
N587   N588    1.283   .     D
N587   Zn600   2.020   .     S
N588   Zn599   2.020   .     S
O591   Zn599   1.951   .     S
O591   C601    1.277   .     S
O592   Zn600   1.951   .     S
O592   C672    1.277   1_455 S
O593   Zn600   1.977   .     S
O594   Zn599   1.977   .     S
O595   Zn599   1.954   .     S
O595   C626    1.297   .     S
O596   Zn600   1.954   .     S
O596   C662    1.294   1_455 S
O597   Zn600   1.926   .     S
O598   Zn599   1.926   .     S
C601   C624    1.401   .     S
C601   O653    1.289   .     A
C602   C604    1.449   .     S
C602   O658    1.296   .     A
C602   O716    1.294   .     S
C603   C609    1.416   .     A
C603   C626    1.464   .     S
C604   C608    1.402   .     A
C604   C610    1.402   .     A
C605   C614    1.393   .     A
C606   H636    1.084   .     S
C606   C608    1.388   .     A
C606   C615    1.398   .     A
C607   H641    1.083   .     S
C607   C663    1.401   .     S
C607   C665    1.384   .     S
C608   H700    1.084   .     S
C609   C611    1.416   .     A
C609   N650    1.428   .     S
C610   N649    1.436   .     S
C610   C613    1.413   .     A
C611   C616    1.414   .     A
C611   C614    1.418   .     A
C612   C625    1.401   .     S
C612   O654    1.289   .     A
C612   O712    1.277   .     S
C613   C617    1.413   .     A
C613   C615    1.422   .     A
C614   C82     1.395   1_556 S
C616   C621    1.410   .     A
C616   C77     1.406   1_556 S
C617   C620    1.411   .     A
C618   H629    1.110   .     S
C618   H630    1.110   .     S
C618   H628    1.110   .     S
C618   N649    1.448   .     S
C619   N650    1.450   .     S
C619   H632    1.110   .     S
C619   H633    1.109   .     S
C619   H634    1.109   .     S
C620   H642    1.081   .     S
C620   C622    1.388   .     A
C621   C623    1.389   .     A
C621   H643    1.081   .     S
C622   H627    1.084   .     S
C623   H638    1.084   .     S
C623   C75     1.395   1_556 S
C624   C745    1.338   .     S
C624   H824    1.088   .     S
C625   C1044   1.338   1_545 S
C625   H1005   1.088   1_545 S
C626   O657    1.299   .     A
H631   N650    1.031   .     S
H635   C665    1.078   .     S
H637   N647    1.029   .     S
H639   N648    1.029   .     S
H644   C984    1.088   1_545 S
H645   C805    1.088   .     S
H646   N649    1.029   .     S
N647   N648    1.283   .     D
N647   Zn660   2.020   .     S
N648   Zn659   2.020   .     S
O651   Zn659   1.951   .     S
O651   C661    1.277   .     S
O652   Zn660   1.951   .     S
O653   Zn660   1.977   .     S
O654   Zn659   1.977   .     S
O655   Zn659   1.954   .     S
O655   C686    1.297   .     S
O656   Zn660   1.954   .     S
O657   Zn660   1.926   .     S
O658   Zn659   1.926   .     S
C661   C684    1.401   .     S
C661   O713    1.289   .     A
C662   C664    1.449   .     S
C662   O718    1.296   .     A
C662   O596    1.294   1_655 S
C663   C669    1.416   .     A
C663   C686    1.464   .     S
C664   C668    1.402   .     A
C664   C670    1.402   .     A
C665   C674    1.393   .     A
C666   H696    1.084   .     S
C666   C668    1.388   .     A
C666   C675    1.398   .     A
C667   H701    1.083   .     S
C667   C543    1.401   1_655 S
C667   C545    1.384   1_655 S
C668   H580    1.084   1_655 S
C669   C671    1.416   .     A
C669   N710    1.428   .     S
C670   N709    1.436   .     S
C670   C673    1.413   .     A
C671   C676    1.414   .     A
C671   C674    1.418   .     A
C672   C685    1.401   .     S
C672   O714    1.289   .     A
C672   O592    1.277   1_655 S
C673   C677    1.413   .     A
C673   C675    1.422   .     A
C674   C142    1.395   1_556 S
C676   C681    1.410   .     A
C676   C137    1.406   1_556 S
C677   C680    1.411   .     A
C678   H689    1.110   .     S
C678   H690    1.110   .     S
C678   H688    1.110   .     S
C678   N709    1.448   .     S
C679   N710    1.450   .     S
C679   H692    1.110   .     S
C679   H693    1.109   .     S
C679   H694    1.109   .     S
C680   H702    1.081   .     S
C680   C682    1.388   .     A
C681   C683    1.389   .     A
C681   H703    1.081   .     S
C682   H687    1.084   .     S
C683   H698    1.084   .     S
C683   C135    1.395   1_556 S
C684   C805    1.338   .     S
C684   H884    1.088   .     S
C685   C924    1.338   1_645 S
C685   H1065   1.088   1_545 S
C686   O717    1.299   .     A
H691   N710    1.031   .     S
H695   C545    1.078   1_655 S
H697   N707    1.029   .     S
H699   N708    1.029   .     S
H704   C1044   1.088   1_545 S
H705   C865    1.088   .     S
H706   N709    1.029   .     S
N707   N708    1.283   .     D
N707   Zn720   2.020   .     S
N708   Zn719   2.020   .     S
O711   Zn719   1.951   .     S
O711   C541    1.277   1_655 S
O712   Zn720   1.951   .     S
O713   Zn720   1.977   .     S
O714   Zn719   1.977   .     S
O715   Zn719   1.954   .     S
O715   C566    1.297   1_655 S
O716   Zn720   1.954   .     S
O717   Zn720   1.926   .     S
O718   Zn719   1.926   .     S
C721   C744    1.401   .     S
C721   O773    1.289   .     A
C721   O891    1.277   1_455 S
C722   C724    1.449   .     S
C722   O778    1.296   .     A
C722   O836    1.294   .     S
C723   C729    1.416   .     A
C723   C746    1.464   .     S
C723   C847    1.401   1_455 S
C724   C728    1.402   .     A
C724   C730    1.402   .     A
C725   C734    1.393   .     A
C725   C847    1.384   1_455 S
C725   H875    1.078   1_455 S
C726   H756    1.084   .     S
C726   C728    1.388   .     A
C726   C735    1.398   .     A
C727   H761    1.083   .     S
C727   C783    1.401   .     S
C727   C785    1.384   .     S
C728   H820    1.084   .     S
C729   C731    1.416   .     A
C729   N770    1.428   .     S
C730   N769    1.436   .     S
C730   C733    1.413   .     A
C731   C736    1.414   .     A
C731   C734    1.418   .     A
C732   C745    1.401   .     S
C732   O774    1.289   .     A
C732   O832    1.277   .     S
C733   C737    1.413   .     A
C733   C735    1.422   .     A
C734   C202    1.395   1_556 S
C736   C741    1.410   .     A
C736   C197    1.406   1_556 S
C737   C740    1.411   .     A
C738   H749    1.110   .     S
C738   H750    1.110   .     S
C738   H748    1.110   .     S
C738   N769    1.448   .     S
C739   N770    1.450   .     S
C739   H752    1.110   .     S
C739   H753    1.109   .     S
C739   H754    1.109   .     S
C740   H762    1.081   .     S
C740   C742    1.388   .     A
C741   C743    1.389   .     A
C741   H763    1.081   .     S
C742   H747    1.084   .     S
C743   H758    1.084   .     S
C743   C195    1.395   1_556 S
C744   C1045   1.338   1_455 S
C744   H944    1.088   .     S
C746   O777    1.299   .     A
C746   O895    1.297   1_455 S
H751   N770    1.031   .     S
H755   C785    1.078   .     S
H757   N767    1.029   .     S
H759   N768    1.029   .     S
H760   C848    1.084   1_455 S
H765   C925    1.088   .     S
H766   N769    1.029   .     S
N767   N768    1.283   .     D
N767   Zn780   2.020   .     S
N768   Zn779   2.020   .     S
O771   Zn779   1.951   .     S
O771   C781    1.277   .     S
O772   Zn780   1.951   .     S
O772   C852    1.277   1_455 S
O773   Zn780   1.977   .     S
O774   Zn779   1.977   .     S
O775   Zn779   1.954   .     S
O775   C806    1.297   .     S
O776   Zn780   1.954   .     S
O776   C842    1.294   1_455 S
O777   Zn780   1.926   .     S
O778   Zn779   1.926   .     S
C781   C804    1.401   .     S
C781   O833    1.289   .     A
C782   C784    1.449   .     S
C782   O838    1.296   .     A
C782   O896    1.294   .     S
C783   C789    1.416   .     A
C783   C806    1.464   .     S
C784   C788    1.402   .     A
C784   C790    1.402   .     A
C785   C794    1.393   .     A
C786   H816    1.084   .     S
C786   C788    1.388   .     A
C786   C795    1.398   .     A
C787   H821    1.083   .     S
C787   C843    1.401   .     S
C787   C845    1.384   .     S
C788   H880    1.084   .     S
C789   C791    1.416   .     A
C789   N830    1.428   .     S
C790   N829    1.436   .     S
C790   C793    1.413   .     A
C791   C796    1.414   .     A
C791   C794    1.418   .     A
C792   C805    1.401   .     S
C792   O834    1.289   .     A
C792   O892    1.277   .     S
C793   C797    1.413   .     A
C793   C795    1.422   .     A
C794   C262    1.395   1_556 S
C796   C801    1.410   .     A
C796   C257    1.406   1_556 S
C797   C800    1.411   .     A
C798   H809    1.110   .     S
C798   H810    1.110   .     S
C798   H808    1.110   .     S
C798   N829    1.448   .     S
C799   N830    1.450   .     S
C799   H812    1.110   .     S
C799   H813    1.109   .     S
C799   H814    1.109   .     S
C800   H822    1.081   .     S
C800   C802    1.388   .     A
C801   C803    1.389   .     A
C801   H823    1.081   .     S
C802   H807    1.084   .     S
C803   H818    1.084   .     S
C803   C255    1.395   1_556 S
C804   C925    1.338   .     S
C804   H1004   1.088   .     S
C806   O837    1.299   .     A
H811   N830    1.031   .     S
H815   C845    1.078   .     S
H817   N827    1.029   .     S
H819   N828    1.029   .     S
H825   C985    1.088   .     S
H826   N829    1.029   .     S
N827   N828    1.283   .     D
N827   Zn840   2.020   .     S
N828   Zn839   2.020   .     S
O831   Zn839   1.951   .     S
O831   C841    1.277   .     S
O832   Zn840   1.951   .     S
O833   Zn840   1.977   .     S
O834   Zn839   1.977   .     S
O835   Zn839   1.954   .     S
O835   C866    1.297   .     S
O836   Zn840   1.954   .     S
O837   Zn840   1.926   .     S
O838   Zn839   1.926   .     S
C841   C864    1.401   .     S
C841   O893    1.289   .     A
C842   C844    1.449   .     S
C842   O898    1.296   .     A
C842   O776    1.294   1_655 S
C843   C849    1.416   .     A
C843   C866    1.464   .     S
C844   C848    1.402   .     A
C844   C850    1.402   .     A
C845   C854    1.393   .     A
C846   H876    1.084   .     S
C846   C848    1.388   .     A
C846   C855    1.398   .     A
C847   H881    1.083   .     S
C847   C723    1.401   1_655 S
C847   C725    1.384   1_655 S
C848   H760    1.084   1_655 S
C849   C851    1.416   .     A
C849   N890    1.428   .     S
C850   N889    1.436   .     S
C850   C853    1.413   .     A
C851   C856    1.414   .     A
C851   C854    1.418   .     A
C852   C865    1.401   .     S
C852   O894    1.289   .     A
C852   O772    1.277   1_655 S
C853   C857    1.413   .     A
C853   C855    1.422   .     A
C854   C322    1.395   1_556 S
C856   C861    1.410   .     A
C856   C317    1.406   1_556 S
C857   C860    1.411   .     A
C858   H869    1.110   .     S
C858   H870    1.110   .     S
C858   H868    1.110   .     S
C858   N889    1.448   .     S
C859   N890    1.450   .     S
C859   H872    1.110   .     S
C859   H873    1.109   .     S
C859   H874    1.109   .     S
C860   H882    1.081   .     S
C860   C862    1.388   .     A
C861   C863    1.389   .     A
C861   H883    1.081   .     S
C862   H867    1.084   .     S
C863   H878    1.084   .     S
C863   C315    1.395   1_556 S
C864   C985    1.338   .     S
C864   H1064   1.088   .     S
C865   C564    1.338   1_655 S
C866   O897    1.299   .     A
H871   N890    1.031   .     S
H875   C725    1.078   1_655 S
H877   N887    1.029   .     S
H879   N888    1.029   .     S
H885   C1045   1.088   .     S
H886   N889    1.029   .     S
N887   N888    1.283   .     D
N887   Zn900   2.020   .     S
N888   Zn899   2.020   .     S
O891   Zn899   1.951   .     S
O891   C721    1.277   1_655 S
O892   Zn900   1.951   .     S
O893   Zn900   1.977   .     S
O894   Zn899   1.977   .     S
O895   Zn899   1.954   .     S
O895   C746    1.297   1_655 S
O896   Zn900   1.954   .     S
O897   Zn900   1.926   .     S
O898   Zn899   1.926   .     S
C901   C924    1.401   .     S
C901   O953    1.289   .     A
C901   O1071   1.277   1_455 S
C902   C904    1.449   .     S
C902   O958    1.296   .     A
C902   O1016   1.294   .     S
C903   C909    1.416   .     A
C903   C926    1.464   .     S
C903   C1027   1.401   1_455 S
C904   C908    1.402   .     A
C904   C910    1.402   .     A
C905   C914    1.393   .     A
C905   C1027   1.384   1_455 S
C905   H1055   1.078   1_455 S
C906   H936    1.084   .     S
C906   C908    1.388   .     A
C906   C915    1.398   .     A
C907   H941    1.083   .     S
C907   C963    1.401   .     S
C907   C965    1.384   .     S
C908   H1000   1.084   .     S
C909   C911    1.416   .     A
C909   N950    1.428   .     S
C910   N949    1.436   .     S
C910   C913    1.413   .     A
C911   C916    1.414   .     A
C911   C914    1.418   .     A
C912   C925    1.401   .     S
C912   O954    1.289   .     A
C912   O1012   1.277   .     S
C913   C917    1.413   .     A
C913   C915    1.422   .     A
C914   C382    1.395   1_556 S
C916   C921    1.410   .     A
C916   C377    1.406   1_556 S
C917   C920    1.411   .     A
C918   H929    1.110   .     S
C918   H930    1.110   .     S
C918   H928    1.110   .     S
C918   N949    1.448   .     S
C919   N950    1.450   .     S
C919   H932    1.110   .     S
C919   H933    1.109   .     S
C919   H934    1.109   .     S
C920   H942    1.081   .     S
C920   C922    1.388   .     A
C921   C923    1.389   .     A
C921   H943    1.081   .     S
C922   H927    1.084   .     S
C923   H938    1.084   .     S
C923   C375    1.395   1_556 S
C924   C685    1.338   1_465 S
C924   H584    1.088   1_565 S
C926   O957    1.299   .     A
C926   O1075   1.297   1_455 S
H931   N950    1.031   .     S
H935   C965    1.078   .     S
H937   N947    1.029   .     S
H939   N948    1.029   .     S
H940   C1028   1.084   1_455 S
H945   C565    1.088   1_565 S
H946   N949    1.029   .     S
N947   N948    1.283   .     D
N947   Zn960   2.020   .     S
N948   Zn959   2.020   .     S
O951   Zn959   1.951   .     S
O951   C961    1.277   .     S
O952   Zn960   1.951   .     S
O952   C1032   1.277   1_455 S
O953   Zn960   1.977   .     S
O954   Zn959   1.977   .     S
O955   Zn959   1.954   .     S
O955   C986    1.297   .     S
O956   Zn960   1.954   .     S
O956   C1022   1.294   1_455 S
O957   Zn960   1.926   .     S
O958   Zn959   1.926   .     S
C961   C984    1.401   .     S
C961   O1013   1.289   .     A
C962   C964    1.449   .     S
C962   O1018   1.296   .     A
C962   O1076   1.294   .     S
C963   C969    1.416   .     A
C963   C986    1.464   .     S
C964   C968    1.402   .     A
C964   C970    1.402   .     A
C965   C974    1.393   .     A
C966   H996    1.084   .     S
C966   C968    1.388   .     A
C966   C975    1.398   .     A
C967   H1001   1.083   .     S
C967   C1023   1.401   .     S
C967   C1025   1.384   .     S
C968   H1060   1.084   .     S
C969   C971    1.416   .     A
C969   N1010   1.428   .     S
C970   N1009   1.436   .     S
C970   C973    1.413   .     A
C971   C976    1.414   .     A
C971   C974    1.418   .     A
C972   C985    1.401   .     S
C972   O1014   1.289   .     A
C972   O1072   1.277   .     S
C973   C977    1.413   .     A
C973   C975    1.422   .     A
C974   C442    1.395   1_556 S
C976   C981    1.410   .     A
C976   C437    1.406   1_556 S
C977   C980    1.411   .     A
C978   H989    1.110   .     S
C978   H990    1.110   .     S
C978   H988    1.110   .     S
C978   N1009   1.448   .     S
C979   N1010   1.450   .     S
C979   H992    1.110   .     S
C979   H993    1.109   .     S
C979   H994    1.109   .     S
C980   H1002   1.081   .     S
C980   C982    1.388   .     A
C981   C983    1.389   .     A
C981   H1003   1.081   .     S
C982   H987    1.084   .     S
C983   H998    1.084   .     S
C983   C435    1.395   1_556 S
C984   C565    1.338   1_565 S
C984   H644    1.088   1_565 S
C986   O1017   1.299   .     A
H991   N1010   1.031   .     S
H995   C1025   1.078   .     S
H997   N1007   1.029   .     S
H999   N1008   1.029   .     S
H1005  C625    1.088   1_565 S
H1006  N1009   1.029   .     S
N1007  N1008   1.283   .     D
N1007  Zn1020  2.020   .     S
N1008  Zn1019  2.020   .     S
O1011  Zn1019  1.951   .     S
O1011  C1021   1.277   .     S
O1012  Zn1020  1.951   .     S
O1013  Zn1020  1.977   .     S
O1014  Zn1019  1.977   .     S
O1015  Zn1019  1.954   .     S
O1015  C1046   1.297   .     S
O1016  Zn1020  1.954   .     S
O1017  Zn1020  1.926   .     S
O1018  Zn1019  1.926   .     S
C1021  C1044   1.401   .     S
C1021  O1073   1.289   .     A
C1022  C1024   1.449   .     S
C1022  O1078   1.296   .     A
C1022  O956    1.294   1_655 S
C1023  C1029   1.416   .     A
C1023  C1046   1.464   .     S
C1024  C1028   1.402   .     A
C1024  C1030   1.402   .     A
C1025  C1034   1.393   .     A
C1026  H1056   1.084   .     S
C1026  C1028   1.388   .     A
C1026  C1035   1.398   .     A
C1027  H1061   1.083   .     S
C1027  C903    1.401   1_655 S
C1027  C905    1.384   1_655 S
C1028  H940    1.084   1_655 S
C1029  C1031   1.416   .     A
C1029  N1070   1.428   .     S
C1030  N1069   1.436   .     S
C1030  C1033   1.413   .     A
C1031  C1036   1.414   .     A
C1031  C1034   1.418   .     A
C1032  C1045   1.401   .     S
C1032  O1074   1.289   .     A
C1032  O952    1.277   1_655 S
C1033  C1037   1.413   .     A
C1033  C1035   1.422   .     A
C1034  C502    1.395   1_556 S
C1036  C1041   1.410   .     A
C1036  C497    1.406   1_556 S
C1037  C1040   1.411   .     A
C1038  H1049   1.110   .     S
C1038  H1050   1.110   .     S
C1038  H1048   1.110   .     S
C1038  N1069   1.448   .     S
C1039  N1070   1.450   .     S
C1039  H1052   1.110   .     S
C1039  H1053   1.109   .     S
C1039  H1054   1.109   .     S
C1040  H1062   1.081   .     S
C1040  C1042   1.388   .     A
C1041  C1043   1.389   .     A
C1041  H1063   1.081   .     S
C1042  H1047   1.084   .     S
C1043  H1058   1.084   .     S
C1043  C495    1.395   1_556 S
C1044  C625    1.338   1_565 S
C1044  H704    1.088   1_565 S
C1045  C744    1.338   1_655 S
C1046  O1077   1.299   .     A
H1051  N1070   1.031   .     S
H1055  C905    1.078   1_655 S
H1057  N1067   1.029   .     S
H1059  N1068   1.029   .     S
H1065  C685    1.088   1_565 S
H1066  N1069   1.029   .     S
N1067  N1068   1.283   .     D
N1067  Zn1080  2.020   .     S
N1068  Zn1079  2.020   .     S
O1071  Zn1079  1.951   .     S
O1071  C901    1.277   1_655 S
O1072  Zn1080  1.951   .     S
O1073  Zn1080  1.977   .     S
O1074  Zn1079  1.977   .     S
O1075  Zn1079  1.954   .     S
O1075  C926    1.297   1_655 S
O1076  Zn1080  1.954   .     S
O1077  Zn1080  1.926   .     S
O1078  Zn1079  1.926   .     S
