data_str_m3_o1_o18_pcu_sym.34
_audit_creation_date              2020-01-03
_audit_creation_method            'Materials Studio'
_symmetry_space_group_name_H-M    'P1'
_symmetry_Int_Tables_number       1
_symmetry_cell_setting            triclinic
loop_
_symmetry_equiv_pos_as_xyz
  x,y,z
_cell_length_a                    29.5577
_cell_length_b                    32.1092
_cell_length_c                    31.2611
_cell_angle_alpha                 90.0972
_cell_angle_beta                  66.6852
_cell_angle_gamma                 90.8870
loop_
_atom_site_label
_atom_site_type_symbol
_atom_site_fract_x
_atom_site_fract_y
_atom_site_fract_z
_atom_site_U_iso_or_equiv
_atom_site_adp_type
_atom_site_occupancy
C1     C     0.16673   0.24651   0.25068   0.00000  Uiso   1.00
C2     C     0.12929   0.31143   0.28682   0.00000  Uiso   1.00
C3     C     0.16598   0.04261   0.24882   0.00000  Uiso   1.00
C4     C     0.16735   0.29072   0.25118   0.00000  Uiso   1.00
C5     C     0.31715   0.13474   0.23019   0.00000  Uiso   1.00
C6     C     0.01618   0.19859   0.26981   0.00000  Uiso   1.00
C7     C     0.03176   0.13479   0.23012   0.00000  Uiso   1.00
C8     C     0.30157   0.19854   0.26988   0.00000  Uiso   1.00
C9     C     0.13537   0.16705   0.33829   0.00000  Uiso   1.00
C10    C     0.19796   0.16628   0.16171   0.00000  Uiso   1.00
C11    C     0.11468   0.16654   0.38962   0.00000  Uiso   1.00
C12    C     0.16660   0.08682   0.24932   0.00000  Uiso   1.00
C13    C     0.21866   0.16679   0.11038   0.00000  Uiso   1.00
C14    C     0.05578   0.14195   0.46437   0.00000  Uiso   1.00
C15    C     0.27756   0.19138   0.03562   0.00000  Uiso   1.00
C16    C     0.06611   0.15297   0.41809   0.00000  Uiso   1.00
C17    C     0.26722   0.18036   0.08191   0.00000  Uiso   1.00
C18    C     0.14798   0.17562   0.41006   0.00000  Uiso   1.00
C19    C     0.18535   0.15771   0.08994   0.00000  Uiso   1.00
C20    C     0.13722   0.16667   0.45680   0.00000  Uiso   1.00
C21    C     0.19611   0.16666   0.04320   0.00000  Uiso   1.00
C22    C     0.09130   0.14731   0.48317   0.00000  Uiso   1.00
C23    C     0.11620   0.13745   0.04691   0.00000  Uiso   1.00
C24    C     0.24204   0.18602   0.01683   0.00000  Uiso   1.00
C25    C     0.17205   0.17406   0.47706   0.00000  Uiso   1.00
C26    C     0.16129   0.15927   0.02294   0.00000  Uiso   1.00
C27    C     0.30818   0.18296   0.09798   0.00000  Uiso   1.00
C28    C     0.02515   0.15038   0.40202   0.00000  Uiso   1.00
C29    C     0.24150   0.28951   0.17678   0.00000  Uiso   1.00
C30    C     0.09183   0.04382   0.32322   0.00000  Uiso   1.00
C31    C     0.24157   0.04515   0.17345   0.00000  Uiso   1.00
C32    C     0.09176   0.28819   0.32655   0.00000  Uiso   1.00
C33    C     0.21714   0.19588   0.45309   0.00000  Uiso   1.00
C34    C     0.08155   0.13258   0.02769   0.00000  Uiso   1.00
C35    C     0.25179   0.20075   0.47230   0.00000  Uiso   1.00
C36    C     0.20465   0.31204   0.21457   0.00000  Uiso   1.00
C37    C     0.12868   0.02130   0.28543   0.00000  Uiso   1.00
C38    C     0.20405   0.02190   0.21318   0.00000  Uiso   1.00
H39    H     0.04736   0.11602   0.04737   0.00000  Uiso   1.00
H40    H     0.02798   0.22409   0.28579   0.00000  Uiso   1.00
H41    H     0.05615   0.10933   0.21408   0.00000  Uiso   1.00
H42    H     0.27718   0.22400   0.28592   0.00000  Uiso   1.00
H43    H     0.01158   0.15594   0.13257   0.00000  Uiso   1.00
H44    H     0.32175   0.17740   0.36743   0.00000  Uiso   1.00
H45    H     0.25518   0.08550   0.12043   0.00000  Uiso   1.00
H46    H     0.07815   0.24784   0.37958   0.00000  Uiso   1.00
H47    H     0.28598   0.21731   0.45262   0.00000  Uiso   1.00
H48    H     0.14957   0.14599   0.11234   0.00000  Uiso   1.00
H49    H     0.18376   0.18735   0.38765   0.00000  Uiso   1.00
H50    H     0.01975   0.12916   0.48601   0.00000  Uiso   1.00
H51    H     0.31358   0.20417   0.01399   0.00000  Uiso   1.00
H52    H     0.10643   0.12297   0.08047   0.00000  Uiso   1.00
H53    H     0.22691   0.21035   0.41953   0.00000  Uiso   1.00
H54    H     0.30536   0.10925   0.21421   0.00000  Uiso   1.00
N55    N     0.04759   0.16668   0.25001   0.00000  Uiso   1.00
N56    N     0.28574   0.16666   0.24999   0.00000  Uiso   1.00
N57    N     0.27091   0.27173   0.14659   0.00000  Uiso   1.00
N58    N     0.06243   0.06161   0.35341   0.00000  Uiso   1.00
O59    O     0.12846   0.22775   0.25000   0.00000  Uiso   1.00
O60    O     0.31469   0.15114   0.12536   0.00000  Uiso   1.00
O61    O     0.32820   0.12184   0.41554   0.00000  Uiso   1.00
O62    O     0.01864   0.18219   0.37464   0.00000  Uiso   1.00
O63    O     0.28547   0.03938   0.16297   0.00000  Uiso   1.00
O64    O     0.22641   0.07291   0.14760   0.00000  Uiso   1.00
O65    O     0.04786   0.29396   0.33705   0.00000  Uiso   1.00
O66    O     0.10692   0.26042   0.35239   0.00000  Uiso   1.00
O67    O     0.20488   0.10558   0.24999   0.00000  Uiso   1.00
O68    O     0.20490   0.22774   0.25000   0.00000  Uiso   1.00
O69    O     0.12843   0.10559   0.25000   0.00000  Uiso   1.00
O70    O     0.10661   0.16667   0.31612   0.00000  Uiso   1.00
O71    O     0.22672   0.16666   0.18387   0.00000  Uiso   1.00
O72    O     0.18305   0.16666   0.31612   0.00000  Uiso   1.00
O73    O     0.15028   0.16667   0.18388   0.00000  Uiso   1.00
O74    O     0.00514   0.21150   0.08445   0.00000  Uiso   1.00
Zn75   Zn    0.11562   0.16667   0.25000   0.00000  Uiso   1.00
Zn76   Zn    0.21771   0.16666   0.25000   0.00000  Uiso   1.00
C77    C     0.50007   0.24651   0.25068   0.00000  Uiso   1.00
C78    C     0.46262   0.31143   0.28682   0.00000  Uiso   1.00
C79    C     0.49931   0.04261   0.24882   0.00000  Uiso   1.00
C80    C     0.50069   0.29072   0.25118   0.00000  Uiso   1.00
C81    C     0.65049   0.13474   0.23019   0.00000  Uiso   1.00
C82    C     0.34951   0.19859   0.26981   0.00000  Uiso   1.00
C83    C     0.36510   0.13479   0.23012   0.00000  Uiso   1.00
C84    C     0.63490   0.19854   0.26988   0.00000  Uiso   1.00
C85    C     0.46870   0.16705   0.33829   0.00000  Uiso   1.00
C86    C     0.53130   0.16628   0.16171   0.00000  Uiso   1.00
C87    C     0.44801   0.16654   0.38962   0.00000  Uiso   1.00
C88    C     0.49993   0.08682   0.24932   0.00000  Uiso   1.00
C89    C     0.55199   0.16679   0.11038   0.00000  Uiso   1.00
C90    C     0.38911   0.14195   0.46437   0.00000  Uiso   1.00
C91    C     0.61089   0.19138   0.03562   0.00000  Uiso   1.00
C92    C     0.39945   0.15297   0.41809   0.00000  Uiso   1.00
C93    C     0.60055   0.18036   0.08191   0.00000  Uiso   1.00
C94    C     0.48132   0.17562   0.41006   0.00000  Uiso   1.00
C95    C     0.51868   0.15771   0.08994   0.00000  Uiso   1.00
C96    C     0.47055   0.16667   0.45680   0.00000  Uiso   1.00
C97    C     0.52945   0.16666   0.04320   0.00000  Uiso   1.00
C98    C     0.42463   0.14731   0.48317   0.00000  Uiso   1.00
C99    C     0.44953   0.13745   0.04691   0.00000  Uiso   1.00
C100   C     0.57537   0.18602   0.01683   0.00000  Uiso   1.00
C101   C     0.50538   0.17406   0.47706   0.00000  Uiso   1.00
C102   C     0.49462   0.15927   0.02294   0.00000  Uiso   1.00
C103   C     0.64151   0.18296   0.09798   0.00000  Uiso   1.00
C104   C     0.35849   0.15038   0.40202   0.00000  Uiso   1.00
C105   C     0.57484   0.28951   0.17678   0.00000  Uiso   1.00
C106   C     0.42517   0.04382   0.32322   0.00000  Uiso   1.00
C107   C     0.57491   0.04515   0.17345   0.00000  Uiso   1.00
C108   C     0.42509   0.28819   0.32655   0.00000  Uiso   1.00
C109   C     0.55047   0.19588   0.45309   0.00000  Uiso   1.00
C110   C     0.41488   0.13258   0.02769   0.00000  Uiso   1.00
C111   C     0.58512   0.20075   0.47230   0.00000  Uiso   1.00
C112   C     0.53799   0.31204   0.21457   0.00000  Uiso   1.00
C113   C     0.46201   0.02130   0.28543   0.00000  Uiso   1.00
C114   C     0.53738   0.02190   0.21318   0.00000  Uiso   1.00
H115   H     0.38069   0.11602   0.04737   0.00000  Uiso   1.00
H116   H     0.36131   0.22409   0.28579   0.00000  Uiso   1.00
H117   H     0.38949   0.10933   0.21408   0.00000  Uiso   1.00
H118   H     0.61051   0.22400   0.28592   0.00000  Uiso   1.00
H119   H     0.34492   0.15594   0.13257   0.00000  Uiso   1.00
H120   H     0.65508   0.17740   0.36743   0.00000  Uiso   1.00
H121   H     0.58852   0.08550   0.12043   0.00000  Uiso   1.00
H122   H     0.41149   0.24784   0.37958   0.00000  Uiso   1.00
H123   H     0.61931   0.21731   0.45262   0.00000  Uiso   1.00
H124   H     0.48290   0.14599   0.11234   0.00000  Uiso   1.00
H125   H     0.51709   0.18735   0.38765   0.00000  Uiso   1.00
H126   H     0.35309   0.12916   0.48601   0.00000  Uiso   1.00
H127   H     0.64692   0.20417   0.01399   0.00000  Uiso   1.00
H128   H     0.43977   0.12297   0.08047   0.00000  Uiso   1.00
H129   H     0.56024   0.21035   0.41953   0.00000  Uiso   1.00
H130   H     0.63869   0.10925   0.21421   0.00000  Uiso   1.00
N131   N     0.38093   0.16668   0.25001   0.00000  Uiso   1.00
N132   N     0.61907   0.16666   0.24999   0.00000  Uiso   1.00
N133   N     0.60424   0.27173   0.14659   0.00000  Uiso   1.00
N134   N     0.39577   0.06161   0.35341   0.00000  Uiso   1.00
O135   O     0.46179   0.22775   0.25000   0.00000  Uiso   1.00
O136   O     0.64802   0.15114   0.12536   0.00000  Uiso   1.00
O137   O     0.66153   0.12184   0.41554   0.00000  Uiso   1.00
O138   O     0.35198   0.18219   0.37464   0.00000  Uiso   1.00
O139   O     0.61881   0.03938   0.16297   0.00000  Uiso   1.00
O140   O     0.55975   0.07291   0.14760   0.00000  Uiso   1.00
O141   O     0.38120   0.29396   0.33705   0.00000  Uiso   1.00
O142   O     0.44026   0.26042   0.35239   0.00000  Uiso   1.00
O143   O     0.53821   0.10558   0.24999   0.00000  Uiso   1.00
O144   O     0.53823   0.22774   0.25000   0.00000  Uiso   1.00
O145   O     0.46177   0.10559   0.25000   0.00000  Uiso   1.00
O146   O     0.43994   0.16667   0.31612   0.00000  Uiso   1.00
O147   O     0.56006   0.16666   0.18387   0.00000  Uiso   1.00
O148   O     0.51639   0.16666   0.31612   0.00000  Uiso   1.00
O149   O     0.48361   0.16667   0.18388   0.00000  Uiso   1.00
O150   O     0.33847   0.21150   0.08445   0.00000  Uiso   1.00
Zn151  Zn    0.44896   0.16667   0.25000   0.00000  Uiso   1.00
Zn152  Zn    0.55104   0.16666   0.25000   0.00000  Uiso   1.00
C153   C     0.83340   0.24651   0.25068   0.00000  Uiso   1.00
C154   C     0.79595   0.31143   0.28682   0.00000  Uiso   1.00
C155   C     0.83265   0.04261   0.24882   0.00000  Uiso   1.00
C156   C     0.83402   0.29072   0.25118   0.00000  Uiso   1.00
C157   C     0.98382   0.13474   0.23019   0.00000  Uiso   1.00
C158   C     0.68285   0.19859   0.26981   0.00000  Uiso   1.00
C159   C     0.69843   0.13479   0.23012   0.00000  Uiso   1.00
C160   C     0.96824   0.19854   0.26988   0.00000  Uiso   1.00
C161   C     0.80204   0.16705   0.33829   0.00000  Uiso   1.00
C162   C     0.86463   0.16628   0.16171   0.00000  Uiso   1.00
C163   C     0.78134   0.16654   0.38962   0.00000  Uiso   1.00
C164   C     0.83327   0.08682   0.24932   0.00000  Uiso   1.00
C165   C     0.88532   0.16679   0.11038   0.00000  Uiso   1.00
C166   C     0.72244   0.14195   0.46437   0.00000  Uiso   1.00
C167   C     0.94422   0.19138   0.03562   0.00000  Uiso   1.00
C168   C     0.73278   0.15297   0.41809   0.00000  Uiso   1.00
C169   C     0.93389   0.18036   0.08191   0.00000  Uiso   1.00
C170   C     0.81465   0.17562   0.41006   0.00000  Uiso   1.00
C171   C     0.85202   0.15771   0.08994   0.00000  Uiso   1.00
C172   C     0.80389   0.16667   0.45680   0.00000  Uiso   1.00
C173   C     0.86278   0.16666   0.04320   0.00000  Uiso   1.00
C174   C     0.75797   0.14731   0.48317   0.00000  Uiso   1.00
C175   C     0.78286   0.13745   0.04691   0.00000  Uiso   1.00
C176   C     0.90870   0.18602   0.01683   0.00000  Uiso   1.00
C177   C     0.83871   0.17406   0.47706   0.00000  Uiso   1.00
C178   C     0.82795   0.15927   0.02294   0.00000  Uiso   1.00
C179   C     0.97485   0.18296   0.09798   0.00000  Uiso   1.00
C180   C     0.69182   0.15038   0.40202   0.00000  Uiso   1.00
C181   C     0.90817   0.28951   0.17678   0.00000  Uiso   1.00
C182   C     0.75850   0.04382   0.32322   0.00000  Uiso   1.00
C183   C     0.90824   0.04515   0.17345   0.00000  Uiso   1.00
C184   C     0.75843   0.28819   0.32655   0.00000  Uiso   1.00
C185   C     0.88381   0.19588   0.45309   0.00000  Uiso   1.00
C186   C     0.74822   0.13258   0.02769   0.00000  Uiso   1.00
C187   C     0.91845   0.20075   0.47230   0.00000  Uiso   1.00
C188   C     0.87132   0.31204   0.21457   0.00000  Uiso   1.00
C189   C     0.79535   0.02130   0.28543   0.00000  Uiso   1.00
C190   C     0.87071   0.02190   0.21318   0.00000  Uiso   1.00
H191   H     0.71403   0.11602   0.04737   0.00000  Uiso   1.00
H192   H     0.69464   0.22409   0.28579   0.00000  Uiso   1.00
H193   H     0.72282   0.10933   0.21408   0.00000  Uiso   1.00
H194   H     0.94385   0.22400   0.28592   0.00000  Uiso   1.00
H195   H     0.67825   0.15594   0.13257   0.00000  Uiso   1.00
H196   H     0.98842   0.17740   0.36743   0.00000  Uiso   1.00
H197   H     0.92185   0.08550   0.12043   0.00000  Uiso   1.00
H198   H     0.74482   0.24784   0.37958   0.00000  Uiso   1.00
H199   H     0.95264   0.21731   0.45262   0.00000  Uiso   1.00
H200   H     0.81624   0.14599   0.11234   0.00000  Uiso   1.00
H201   H     0.85043   0.18735   0.38765   0.00000  Uiso   1.00
H202   H     0.68642   0.12916   0.48601   0.00000  Uiso   1.00
H203   H     0.98025   0.20417   0.01399   0.00000  Uiso   1.00
H204   H     0.77310   0.12297   0.08047   0.00000  Uiso   1.00
H205   H     0.89357   0.21035   0.41953   0.00000  Uiso   1.00
H206   H     0.97202   0.10925   0.21421   0.00000  Uiso   1.00
N207   N     0.71426   0.16668   0.25001   0.00000  Uiso   1.00
N208   N     0.95241   0.16666   0.24999   0.00000  Uiso   1.00
N209   N     0.93757   0.27173   0.14659   0.00000  Uiso   1.00
N210   N     0.72910   0.06161   0.35341   0.00000  Uiso   1.00
O211   O     0.79512   0.22775   0.25000   0.00000  Uiso   1.00
O212   O     0.98135   0.15114   0.12536   0.00000  Uiso   1.00
O213   O     0.99486   0.12184   0.41554   0.00000  Uiso   1.00
O214   O     0.68531   0.18219   0.37464   0.00000  Uiso   1.00
O215   O     0.95214   0.03938   0.16297   0.00000  Uiso   1.00
O216   O     0.89308   0.07291   0.14760   0.00000  Uiso   1.00
O217   O     0.71453   0.29396   0.33705   0.00000  Uiso   1.00
O218   O     0.77359   0.26042   0.35239   0.00000  Uiso   1.00
O219   O     0.87154   0.10558   0.24999   0.00000  Uiso   1.00
O220   O     0.87157   0.22774   0.25000   0.00000  Uiso   1.00
O221   O     0.79510   0.10559   0.25000   0.00000  Uiso   1.00
O222   O     0.77328   0.16667   0.31612   0.00000  Uiso   1.00
O223   O     0.89339   0.16666   0.18387   0.00000  Uiso   1.00
O224   O     0.84972   0.16666   0.31612   0.00000  Uiso   1.00
O225   O     0.81695   0.16667   0.18388   0.00000  Uiso   1.00
O226   O     0.67181   0.21150   0.08445   0.00000  Uiso   1.00
Zn227  Zn    0.78229   0.16667   0.25000   0.00000  Uiso   1.00
Zn228  Zn    0.88438   0.16666   0.25000   0.00000  Uiso   1.00
C229   C     0.16673   0.57985   0.25068   0.00000  Uiso   1.00
C230   C     0.12929   0.64477   0.28682   0.00000  Uiso   1.00
C231   C     0.16598   0.37594   0.24882   0.00000  Uiso   1.00
C232   C     0.16735   0.62406   0.25118   0.00000  Uiso   1.00
C233   C     0.31715   0.46808   0.23019   0.00000  Uiso   1.00
C234   C     0.01618   0.53192   0.26981   0.00000  Uiso   1.00
C235   C     0.03176   0.46812   0.23012   0.00000  Uiso   1.00
C236   C     0.30157   0.53188   0.26988   0.00000  Uiso   1.00
C237   C     0.13537   0.50039   0.33829   0.00000  Uiso   1.00
C238   C     0.19796   0.49961   0.16171   0.00000  Uiso   1.00
C239   C     0.11468   0.49987   0.38962   0.00000  Uiso   1.00
C240   C     0.16660   0.42015   0.24932   0.00000  Uiso   1.00
C241   C     0.21866   0.50013   0.11038   0.00000  Uiso   1.00
C242   C     0.05578   0.47528   0.46437   0.00000  Uiso   1.00
C243   C     0.27756   0.52472   0.03562   0.00000  Uiso   1.00
C244   C     0.06611   0.48630   0.41809   0.00000  Uiso   1.00
C245   C     0.26722   0.51370   0.08191   0.00000  Uiso   1.00
C246   C     0.14798   0.50896   0.41006   0.00000  Uiso   1.00
C247   C     0.18535   0.49104   0.08994   0.00000  Uiso   1.00
C248   C     0.13722   0.50000   0.45680   0.00000  Uiso   1.00
C249   C     0.19611   0.50000   0.04320   0.00000  Uiso   1.00
C250   C     0.09130   0.48065   0.48317   0.00000  Uiso   1.00
C251   C     0.11620   0.47078   0.04691   0.00000  Uiso   1.00
C252   C     0.24204   0.51935   0.01683   0.00000  Uiso   1.00
C253   C     0.17205   0.50740   0.47706   0.00000  Uiso   1.00
C254   C     0.16129   0.49260   0.02294   0.00000  Uiso   1.00
C255   C     0.30818   0.51629   0.09798   0.00000  Uiso   1.00
C256   C     0.02515   0.48371   0.40202   0.00000  Uiso   1.00
C257   C     0.24150   0.62285   0.17678   0.00000  Uiso   1.00
C258   C     0.09183   0.37715   0.32322   0.00000  Uiso   1.00
C259   C     0.24157   0.37848   0.17345   0.00000  Uiso   1.00
C260   C     0.09176   0.62152   0.32655   0.00000  Uiso   1.00
C261   C     0.21714   0.52921   0.45309   0.00000  Uiso   1.00
C262   C     0.08155   0.46591   0.02769   0.00000  Uiso   1.00
C263   C     0.25179   0.53408   0.47230   0.00000  Uiso   1.00
C264   C     0.20465   0.64537   0.21457   0.00000  Uiso   1.00
C265   C     0.12868   0.35463   0.28543   0.00000  Uiso   1.00
C266   C     0.20405   0.35523   0.21318   0.00000  Uiso   1.00
H267   H     0.04736   0.44935   0.04737   0.00000  Uiso   1.00
H268   H     0.02798   0.55742   0.28579   0.00000  Uiso   1.00
H269   H     0.05615   0.44267   0.21408   0.00000  Uiso   1.00
H270   H     0.27718   0.55733   0.28592   0.00000  Uiso   1.00
H271   H     0.01158   0.48927   0.13257   0.00000  Uiso   1.00
H272   H     0.32175   0.51074   0.36743   0.00000  Uiso   1.00
H273   H     0.25518   0.41883   0.12043   0.00000  Uiso   1.00
H274   H     0.07815   0.58117   0.37958   0.00000  Uiso   1.00
H275   H     0.28598   0.55064   0.45262   0.00000  Uiso   1.00
H276   H     0.14957   0.47932   0.11234   0.00000  Uiso   1.00
H277   H     0.18376   0.52069   0.38765   0.00000  Uiso   1.00
H278   H     0.01975   0.46249   0.48601   0.00000  Uiso   1.00
H279   H     0.31358   0.53750   0.01399   0.00000  Uiso   1.00
H280   H     0.10643   0.45631   0.08047   0.00000  Uiso   1.00
H281   H     0.22691   0.54368   0.41953   0.00000  Uiso   1.00
H282   H     0.30536   0.44258   0.21421   0.00000  Uiso   1.00
N283   N     0.04759   0.50001   0.25001   0.00000  Uiso   1.00
N284   N     0.28574   0.49999   0.24999   0.00000  Uiso   1.00
N285   N     0.27091   0.60506   0.14659   0.00000  Uiso   1.00
N286   N     0.06243   0.39494   0.35341   0.00000  Uiso   1.00
O287   O     0.12846   0.56108   0.25000   0.00000  Uiso   1.00
O288   O     0.31469   0.48448   0.12536   0.00000  Uiso   1.00
O289   O     0.32820   0.45517   0.41554   0.00000  Uiso   1.00
O290   O     0.01864   0.51553   0.37464   0.00000  Uiso   1.00
O291   O     0.28547   0.37271   0.16297   0.00000  Uiso   1.00
O292   O     0.22641   0.40624   0.14760   0.00000  Uiso   1.00
O293   O     0.04786   0.62730   0.33705   0.00000  Uiso   1.00
O294   O     0.10692   0.59375   0.35239   0.00000  Uiso   1.00
O295   O     0.20488   0.43892   0.24999   0.00000  Uiso   1.00
O296   O     0.20490   0.56107   0.25000   0.00000  Uiso   1.00
O297   O     0.12843   0.43893   0.25000   0.00000  Uiso   1.00
O298   O     0.10661   0.50001   0.31612   0.00000  Uiso   1.00
O299   O     0.22672   0.49999   0.18387   0.00000  Uiso   1.00
O300   O     0.18305   0.50000   0.31612   0.00000  Uiso   1.00
O301   O     0.15028   0.50000   0.18388   0.00000  Uiso   1.00
O302   O     0.00514   0.54483   0.08445   0.00000  Uiso   1.00
Zn303  Zn    0.11562   0.50001   0.25000   0.00000  Uiso   1.00
Zn304  Zn    0.21771   0.49999   0.25000   0.00000  Uiso   1.00
C305   C     0.50007   0.57985   0.25068   0.00000  Uiso   1.00
C306   C     0.46262   0.64477   0.28682   0.00000  Uiso   1.00
C307   C     0.49931   0.37594   0.24882   0.00000  Uiso   1.00
C308   C     0.50069   0.62406   0.25118   0.00000  Uiso   1.00
C309   C     0.65049   0.46808   0.23019   0.00000  Uiso   1.00
C310   C     0.34951   0.53192   0.26981   0.00000  Uiso   1.00
C311   C     0.36510   0.46812   0.23012   0.00000  Uiso   1.00
C312   C     0.63490   0.53188   0.26988   0.00000  Uiso   1.00
C313   C     0.46870   0.50039   0.33829   0.00000  Uiso   1.00
C314   C     0.53130   0.49961   0.16171   0.00000  Uiso   1.00
C315   C     0.44801   0.49987   0.38962   0.00000  Uiso   1.00
C316   C     0.49993   0.42015   0.24932   0.00000  Uiso   1.00
C317   C     0.55199   0.50013   0.11038   0.00000  Uiso   1.00
C318   C     0.38911   0.47528   0.46437   0.00000  Uiso   1.00
C319   C     0.61089   0.52472   0.03562   0.00000  Uiso   1.00
C320   C     0.39945   0.48630   0.41809   0.00000  Uiso   1.00
C321   C     0.60055   0.51370   0.08191   0.00000  Uiso   1.00
C322   C     0.48132   0.50896   0.41006   0.00000  Uiso   1.00
C323   C     0.51868   0.49104   0.08994   0.00000  Uiso   1.00
C324   C     0.47055   0.50000   0.45680   0.00000  Uiso   1.00
C325   C     0.52945   0.50000   0.04320   0.00000  Uiso   1.00
C326   C     0.42463   0.48065   0.48317   0.00000  Uiso   1.00
C327   C     0.44953   0.47078   0.04691   0.00000  Uiso   1.00
C328   C     0.57537   0.51935   0.01683   0.00000  Uiso   1.00
C329   C     0.50538   0.50740   0.47706   0.00000  Uiso   1.00
C330   C     0.49462   0.49260   0.02294   0.00000  Uiso   1.00
C331   C     0.64151   0.51629   0.09798   0.00000  Uiso   1.00
C332   C     0.35849   0.48371   0.40202   0.00000  Uiso   1.00
C333   C     0.57484   0.62285   0.17678   0.00000  Uiso   1.00
C334   C     0.42517   0.37715   0.32322   0.00000  Uiso   1.00
C335   C     0.57491   0.37848   0.17345   0.00000  Uiso   1.00
C336   C     0.42509   0.62152   0.32655   0.00000  Uiso   1.00
C337   C     0.55047   0.52921   0.45309   0.00000  Uiso   1.00
C338   C     0.41488   0.46591   0.02769   0.00000  Uiso   1.00
C339   C     0.58512   0.53408   0.47230   0.00000  Uiso   1.00
C340   C     0.53799   0.64537   0.21457   0.00000  Uiso   1.00
C341   C     0.46201   0.35463   0.28543   0.00000  Uiso   1.00
C342   C     0.53738   0.35523   0.21318   0.00000  Uiso   1.00
H343   H     0.38069   0.44935   0.04737   0.00000  Uiso   1.00
H344   H     0.36131   0.55742   0.28579   0.00000  Uiso   1.00
H345   H     0.38949   0.44267   0.21408   0.00000  Uiso   1.00
H346   H     0.61051   0.55733   0.28592   0.00000  Uiso   1.00
H347   H     0.34492   0.48927   0.13257   0.00000  Uiso   1.00
H348   H     0.65508   0.51074   0.36743   0.00000  Uiso   1.00
H349   H     0.58852   0.41883   0.12043   0.00000  Uiso   1.00
H350   H     0.41149   0.58117   0.37958   0.00000  Uiso   1.00
H351   H     0.61931   0.55064   0.45262   0.00000  Uiso   1.00
H352   H     0.48290   0.47932   0.11234   0.00000  Uiso   1.00
H353   H     0.51709   0.52069   0.38765   0.00000  Uiso   1.00
H354   H     0.35309   0.46249   0.48601   0.00000  Uiso   1.00
H355   H     0.64692   0.53750   0.01399   0.00000  Uiso   1.00
H356   H     0.43977   0.45631   0.08047   0.00000  Uiso   1.00
H357   H     0.56024   0.54368   0.41953   0.00000  Uiso   1.00
H358   H     0.63869   0.44258   0.21421   0.00000  Uiso   1.00
N359   N     0.38093   0.50001   0.25001   0.00000  Uiso   1.00
N360   N     0.61907   0.49999   0.24999   0.00000  Uiso   1.00
N361   N     0.60424   0.60506   0.14659   0.00000  Uiso   1.00
N362   N     0.39577   0.39494   0.35341   0.00000  Uiso   1.00
O363   O     0.46179   0.56108   0.25000   0.00000  Uiso   1.00
O364   O     0.64802   0.48448   0.12536   0.00000  Uiso   1.00
O365   O     0.66153   0.45517   0.41554   0.00000  Uiso   1.00
O366   O     0.35198   0.51553   0.37464   0.00000  Uiso   1.00
O367   O     0.61881   0.37271   0.16297   0.00000  Uiso   1.00
O368   O     0.55975   0.40624   0.14760   0.00000  Uiso   1.00
O369   O     0.38120   0.62730   0.33705   0.00000  Uiso   1.00
O370   O     0.44026   0.59375   0.35239   0.00000  Uiso   1.00
O371   O     0.53821   0.43892   0.24999   0.00000  Uiso   1.00
O372   O     0.53823   0.56107   0.25000   0.00000  Uiso   1.00
O373   O     0.46177   0.43893   0.25000   0.00000  Uiso   1.00
O374   O     0.43994   0.50001   0.31612   0.00000  Uiso   1.00
O375   O     0.56006   0.49999   0.18387   0.00000  Uiso   1.00
O376   O     0.51639   0.50000   0.31612   0.00000  Uiso   1.00
O377   O     0.48361   0.50000   0.18388   0.00000  Uiso   1.00
O378   O     0.33847   0.54483   0.08445   0.00000  Uiso   1.00
Zn379  Zn    0.44896   0.50001   0.25000   0.00000  Uiso   1.00
Zn380  Zn    0.55104   0.49999   0.25000   0.00000  Uiso   1.00
C381   C     0.83340   0.57985   0.25068   0.00000  Uiso   1.00
C382   C     0.79595   0.64477   0.28682   0.00000  Uiso   1.00
C383   C     0.83265   0.37594   0.24882   0.00000  Uiso   1.00
C384   C     0.83402   0.62406   0.25118   0.00000  Uiso   1.00
C385   C     0.98382   0.46808   0.23019   0.00000  Uiso   1.00
C386   C     0.68285   0.53192   0.26981   0.00000  Uiso   1.00
C387   C     0.69843   0.46812   0.23012   0.00000  Uiso   1.00
C388   C     0.96824   0.53188   0.26988   0.00000  Uiso   1.00
C389   C     0.80204   0.50039   0.33829   0.00000  Uiso   1.00
C390   C     0.86463   0.49961   0.16171   0.00000  Uiso   1.00
C391   C     0.78134   0.49987   0.38962   0.00000  Uiso   1.00
C392   C     0.83327   0.42015   0.24932   0.00000  Uiso   1.00
C393   C     0.88532   0.50013   0.11038   0.00000  Uiso   1.00
C394   C     0.72244   0.47528   0.46437   0.00000  Uiso   1.00
C395   C     0.94422   0.52472   0.03562   0.00000  Uiso   1.00
C396   C     0.73278   0.48630   0.41809   0.00000  Uiso   1.00
C397   C     0.93389   0.51370   0.08191   0.00000  Uiso   1.00
C398   C     0.81465   0.50896   0.41006   0.00000  Uiso   1.00
C399   C     0.85202   0.49104   0.08994   0.00000  Uiso   1.00
C400   C     0.80389   0.50000   0.45680   0.00000  Uiso   1.00
C401   C     0.86278   0.50000   0.04320   0.00000  Uiso   1.00
C402   C     0.75797   0.48065   0.48317   0.00000  Uiso   1.00
C403   C     0.78286   0.47078   0.04691   0.00000  Uiso   1.00
C404   C     0.90870   0.51935   0.01683   0.00000  Uiso   1.00
C405   C     0.83871   0.50740   0.47706   0.00000  Uiso   1.00
C406   C     0.82795   0.49260   0.02294   0.00000  Uiso   1.00
C407   C     0.97485   0.51629   0.09798   0.00000  Uiso   1.00
C408   C     0.69182   0.48371   0.40202   0.00000  Uiso   1.00
C409   C     0.90817   0.62285   0.17678   0.00000  Uiso   1.00
C410   C     0.75850   0.37715   0.32322   0.00000  Uiso   1.00
C411   C     0.90824   0.37848   0.17345   0.00000  Uiso   1.00
C412   C     0.75843   0.62152   0.32655   0.00000  Uiso   1.00
C413   C     0.88381   0.52921   0.45309   0.00000  Uiso   1.00
C414   C     0.74822   0.46591   0.02769   0.00000  Uiso   1.00
C415   C     0.91845   0.53408   0.47230   0.00000  Uiso   1.00
C416   C     0.87132   0.64537   0.21457   0.00000  Uiso   1.00
C417   C     0.79535   0.35463   0.28543   0.00000  Uiso   1.00
C418   C     0.87071   0.35523   0.21318   0.00000  Uiso   1.00
H419   H     0.71403   0.44935   0.04737   0.00000  Uiso   1.00
H420   H     0.69464   0.55742   0.28579   0.00000  Uiso   1.00
H421   H     0.72282   0.44267   0.21408   0.00000  Uiso   1.00
H422   H     0.94385   0.55733   0.28592   0.00000  Uiso   1.00
H423   H     0.67825   0.48927   0.13257   0.00000  Uiso   1.00
H424   H     0.98842   0.51074   0.36743   0.00000  Uiso   1.00
H425   H     0.92185   0.41883   0.12043   0.00000  Uiso   1.00
H426   H     0.74482   0.58117   0.37958   0.00000  Uiso   1.00
H427   H     0.95264   0.55064   0.45262   0.00000  Uiso   1.00
H428   H     0.81624   0.47932   0.11234   0.00000  Uiso   1.00
H429   H     0.85043   0.52069   0.38765   0.00000  Uiso   1.00
H430   H     0.68642   0.46249   0.48601   0.00000  Uiso   1.00
H431   H     0.98025   0.53750   0.01399   0.00000  Uiso   1.00
H432   H     0.77310   0.45631   0.08047   0.00000  Uiso   1.00
H433   H     0.89357   0.54368   0.41953   0.00000  Uiso   1.00
H434   H     0.97202   0.44258   0.21421   0.00000  Uiso   1.00
N435   N     0.71426   0.50001   0.25001   0.00000  Uiso   1.00
N436   N     0.95241   0.49999   0.24999   0.00000  Uiso   1.00
N437   N     0.93757   0.60506   0.14659   0.00000  Uiso   1.00
N438   N     0.72910   0.39494   0.35341   0.00000  Uiso   1.00
O439   O     0.79512   0.56108   0.25000   0.00000  Uiso   1.00
O440   O     0.98135   0.48448   0.12536   0.00000  Uiso   1.00
O441   O     0.99486   0.45517   0.41554   0.00000  Uiso   1.00
O442   O     0.68531   0.51553   0.37464   0.00000  Uiso   1.00
O443   O     0.95214   0.37271   0.16297   0.00000  Uiso   1.00
O444   O     0.89308   0.40624   0.14760   0.00000  Uiso   1.00
O445   O     0.71453   0.62730   0.33705   0.00000  Uiso   1.00
O446   O     0.77359   0.59375   0.35239   0.00000  Uiso   1.00
O447   O     0.87154   0.43892   0.24999   0.00000  Uiso   1.00
O448   O     0.87157   0.56107   0.25000   0.00000  Uiso   1.00
O449   O     0.79510   0.43893   0.25000   0.00000  Uiso   1.00
O450   O     0.77328   0.50001   0.31612   0.00000  Uiso   1.00
O451   O     0.89339   0.49999   0.18387   0.00000  Uiso   1.00
O452   O     0.84972   0.50000   0.31612   0.00000  Uiso   1.00
O453   O     0.81695   0.50000   0.18388   0.00000  Uiso   1.00
O454   O     0.67181   0.54483   0.08445   0.00000  Uiso   1.00
Zn455  Zn    0.78229   0.50001   0.25000   0.00000  Uiso   1.00
Zn456  Zn    0.88438   0.49999   0.25000   0.00000  Uiso   1.00
C457   C     0.16673   0.91318   0.25068   0.00000  Uiso   1.00
C458   C     0.12929   0.97810   0.28682   0.00000  Uiso   1.00
C459   C     0.16598   0.70928   0.24882   0.00000  Uiso   1.00
C460   C     0.16735   0.95739   0.25118   0.00000  Uiso   1.00
C461   C     0.31715   0.80141   0.23019   0.00000  Uiso   1.00
C462   C     0.01618   0.86526   0.26981   0.00000  Uiso   1.00
C463   C     0.03176   0.80146   0.23012   0.00000  Uiso   1.00
C464   C     0.30157   0.86521   0.26988   0.00000  Uiso   1.00
C465   C     0.13537   0.83372   0.33829   0.00000  Uiso   1.00
C466   C     0.19796   0.83295   0.16171   0.00000  Uiso   1.00
C467   C     0.11468   0.83321   0.38962   0.00000  Uiso   1.00
C468   C     0.16660   0.75349   0.24932   0.00000  Uiso   1.00
C469   C     0.21866   0.83346   0.11038   0.00000  Uiso   1.00
C470   C     0.05578   0.80861   0.46437   0.00000  Uiso   1.00
C471   C     0.27756   0.85805   0.03562   0.00000  Uiso   1.00
C472   C     0.06611   0.81964   0.41809   0.00000  Uiso   1.00
C473   C     0.26722   0.84703   0.08191   0.00000  Uiso   1.00
C474   C     0.14798   0.84229   0.41006   0.00000  Uiso   1.00
C475   C     0.18535   0.82438   0.08994   0.00000  Uiso   1.00
C476   C     0.13722   0.83334   0.45680   0.00000  Uiso   1.00
C477   C     0.19611   0.83333   0.04320   0.00000  Uiso   1.00
C478   C     0.09130   0.81398   0.48317   0.00000  Uiso   1.00
C479   C     0.11620   0.80412   0.04691   0.00000  Uiso   1.00
C480   C     0.24204   0.85268   0.01683   0.00000  Uiso   1.00
C481   C     0.17205   0.84073   0.47706   0.00000  Uiso   1.00
C482   C     0.16129   0.82593   0.02294   0.00000  Uiso   1.00
C483   C     0.30818   0.84962   0.09798   0.00000  Uiso   1.00
C484   C     0.02515   0.81704   0.40202   0.00000  Uiso   1.00
C485   C     0.24150   0.95618   0.17678   0.00000  Uiso   1.00
C486   C     0.09183   0.71049   0.32322   0.00000  Uiso   1.00
C487   C     0.24157   0.71181   0.17345   0.00000  Uiso   1.00
C488   C     0.09176   0.95485   0.32655   0.00000  Uiso   1.00
C489   C     0.21714   0.86254   0.45309   0.00000  Uiso   1.00
C490   C     0.08155   0.79924   0.02769   0.00000  Uiso   1.00
C491   C     0.25179   0.86742   0.47230   0.00000  Uiso   1.00
C492   C     0.20465   0.97870   0.21457   0.00000  Uiso   1.00
C493   C     0.12868   0.68796   0.28543   0.00000  Uiso   1.00
C494   C     0.20405   0.68857   0.21318   0.00000  Uiso   1.00
H495   H     0.04736   0.78269   0.04737   0.00000  Uiso   1.00
H496   H     0.02798   0.89075   0.28579   0.00000  Uiso   1.00
H497   H     0.05615   0.77600   0.21408   0.00000  Uiso   1.00
H498   H     0.27718   0.89067   0.28592   0.00000  Uiso   1.00
H499   H     0.01158   0.82260   0.13257   0.00000  Uiso   1.00
H500   H     0.32175   0.84407   0.36743   0.00000  Uiso   1.00
H501   H     0.25518   0.75216   0.12043   0.00000  Uiso   1.00
H502   H     0.07815   0.91451   0.37958   0.00000  Uiso   1.00
H503   H     0.28598   0.88397   0.45262   0.00000  Uiso   1.00
H504   H     0.14957   0.81265   0.11234   0.00000  Uiso   1.00
H505   H     0.18376   0.85402   0.38765   0.00000  Uiso   1.00
H506   H     0.01975   0.79583   0.48601   0.00000  Uiso   1.00
H507   H     0.31358   0.87084   0.01399   0.00000  Uiso   1.00
H508   H     0.10643   0.78964   0.08047   0.00000  Uiso   1.00
H509   H     0.22691   0.87702   0.41953   0.00000  Uiso   1.00
H510   H     0.30536   0.77591   0.21421   0.00000  Uiso   1.00
N511   N     0.04759   0.83334   0.25001   0.00000  Uiso   1.00
N512   N     0.28574   0.83332   0.24999   0.00000  Uiso   1.00
N513   N     0.27091   0.93839   0.14659   0.00000  Uiso   1.00
N514   N     0.06243   0.72828   0.35341   0.00000  Uiso   1.00
O515   O     0.12846   0.89442   0.25000   0.00000  Uiso   1.00
O516   O     0.31469   0.81781   0.12536   0.00000  Uiso   1.00
O517   O     0.32820   0.78850   0.41554   0.00000  Uiso   1.00
O518   O     0.01864   0.84886   0.37464   0.00000  Uiso   1.00
O519   O     0.28547   0.70605   0.16297   0.00000  Uiso   1.00
O520   O     0.22641   0.73957   0.14760   0.00000  Uiso   1.00
O521   O     0.04786   0.96063   0.33705   0.00000  Uiso   1.00
O522   O     0.10692   0.92709   0.35239   0.00000  Uiso   1.00
O523   O     0.20488   0.77225   0.24999   0.00000  Uiso   1.00
O524   O     0.20490   0.89441   0.25000   0.00000  Uiso   1.00
O525   O     0.12843   0.77226   0.25000   0.00000  Uiso   1.00
O526   O     0.10661   0.83334   0.31612   0.00000  Uiso   1.00
O527   O     0.22672   0.83333   0.18387   0.00000  Uiso   1.00
O528   O     0.18305   0.83333   0.31612   0.00000  Uiso   1.00
O529   O     0.15028   0.83334   0.18388   0.00000  Uiso   1.00
O530   O     0.00514   0.87816   0.08445   0.00000  Uiso   1.00
Zn531  Zn    0.11562   0.83334   0.25000   0.00000  Uiso   1.00
Zn532  Zn    0.21771   0.83333   0.25000   0.00000  Uiso   1.00
C533   C     0.50007   0.91318   0.25068   0.00000  Uiso   1.00
C534   C     0.46262   0.97810   0.28682   0.00000  Uiso   1.00
C535   C     0.49931   0.70928   0.24882   0.00000  Uiso   1.00
C536   C     0.50069   0.95739   0.25118   0.00000  Uiso   1.00
C537   C     0.65049   0.80141   0.23019   0.00000  Uiso   1.00
C538   C     0.34951   0.86526   0.26981   0.00000  Uiso   1.00
C539   C     0.36510   0.80146   0.23012   0.00000  Uiso   1.00
C540   C     0.63490   0.86521   0.26988   0.00000  Uiso   1.00
C541   C     0.46870   0.83372   0.33829   0.00000  Uiso   1.00
C542   C     0.53130   0.83295   0.16171   0.00000  Uiso   1.00
C543   C     0.44801   0.83321   0.38962   0.00000  Uiso   1.00
C544   C     0.49993   0.75349   0.24932   0.00000  Uiso   1.00
C545   C     0.55199   0.83346   0.11038   0.00000  Uiso   1.00
C546   C     0.38911   0.80861   0.46437   0.00000  Uiso   1.00
C547   C     0.61089   0.85805   0.03562   0.00000  Uiso   1.00
C548   C     0.39945   0.81964   0.41809   0.00000  Uiso   1.00
C549   C     0.60055   0.84703   0.08191   0.00000  Uiso   1.00
C550   C     0.48132   0.84229   0.41006   0.00000  Uiso   1.00
C551   C     0.51868   0.82438   0.08994   0.00000  Uiso   1.00
C552   C     0.47055   0.83334   0.45680   0.00000  Uiso   1.00
C553   C     0.52945   0.83333   0.04320   0.00000  Uiso   1.00
C554   C     0.42463   0.81398   0.48317   0.00000  Uiso   1.00
C555   C     0.44953   0.80412   0.04691   0.00000  Uiso   1.00
C556   C     0.57537   0.85268   0.01683   0.00000  Uiso   1.00
C557   C     0.50538   0.84073   0.47706   0.00000  Uiso   1.00
C558   C     0.49462   0.82593   0.02294   0.00000  Uiso   1.00
C559   C     0.64151   0.84962   0.09798   0.00000  Uiso   1.00
C560   C     0.35849   0.81704   0.40202   0.00000  Uiso   1.00
C561   C     0.57484   0.95618   0.17678   0.00000  Uiso   1.00
C562   C     0.42517   0.71049   0.32322   0.00000  Uiso   1.00
C563   C     0.57491   0.71181   0.17345   0.00000  Uiso   1.00
C564   C     0.42509   0.95485   0.32655   0.00000  Uiso   1.00
C565   C     0.55047   0.86254   0.45309   0.00000  Uiso   1.00
C566   C     0.41488   0.79924   0.02769   0.00000  Uiso   1.00
C567   C     0.58512   0.86742   0.47230   0.00000  Uiso   1.00
C568   C     0.53799   0.97870   0.21457   0.00000  Uiso   1.00
C569   C     0.46201   0.68796   0.28543   0.00000  Uiso   1.00
C570   C     0.53738   0.68857   0.21318   0.00000  Uiso   1.00
H571   H     0.38069   0.78269   0.04737   0.00000  Uiso   1.00
H572   H     0.36131   0.89075   0.28579   0.00000  Uiso   1.00
H573   H     0.38949   0.77600   0.21408   0.00000  Uiso   1.00
H574   H     0.61051   0.89067   0.28592   0.00000  Uiso   1.00
H575   H     0.34492   0.82260   0.13257   0.00000  Uiso   1.00
H576   H     0.65508   0.84407   0.36743   0.00000  Uiso   1.00
H577   H     0.58852   0.75216   0.12043   0.00000  Uiso   1.00
H578   H     0.41149   0.91451   0.37958   0.00000  Uiso   1.00
H579   H     0.61931   0.88397   0.45262   0.00000  Uiso   1.00
H580   H     0.48290   0.81265   0.11234   0.00000  Uiso   1.00
H581   H     0.51709   0.85402   0.38765   0.00000  Uiso   1.00
H582   H     0.35309   0.79583   0.48601   0.00000  Uiso   1.00
H583   H     0.64692   0.87084   0.01399   0.00000  Uiso   1.00
H584   H     0.43977   0.78964   0.08047   0.00000  Uiso   1.00
H585   H     0.56024   0.87702   0.41953   0.00000  Uiso   1.00
H586   H     0.63869   0.77591   0.21421   0.00000  Uiso   1.00
N587   N     0.38093   0.83334   0.25001   0.00000  Uiso   1.00
N588   N     0.61907   0.83332   0.24999   0.00000  Uiso   1.00
N589   N     0.60424   0.93839   0.14659   0.00000  Uiso   1.00
N590   N     0.39577   0.72828   0.35341   0.00000  Uiso   1.00
O591   O     0.46179   0.89442   0.25000   0.00000  Uiso   1.00
O592   O     0.64802   0.81781   0.12536   0.00000  Uiso   1.00
O593   O     0.66153   0.78850   0.41554   0.00000  Uiso   1.00
O594   O     0.35198   0.84886   0.37464   0.00000  Uiso   1.00
O595   O     0.61881   0.70605   0.16297   0.00000  Uiso   1.00
O596   O     0.55975   0.73957   0.14760   0.00000  Uiso   1.00
O597   O     0.38120   0.96063   0.33705   0.00000  Uiso   1.00
O598   O     0.44026   0.92709   0.35239   0.00000  Uiso   1.00
O599   O     0.53821   0.77225   0.24999   0.00000  Uiso   1.00
O600   O     0.53823   0.89441   0.25000   0.00000  Uiso   1.00
O601   O     0.46177   0.77226   0.25000   0.00000  Uiso   1.00
O602   O     0.43994   0.83334   0.31612   0.00000  Uiso   1.00
O603   O     0.56006   0.83333   0.18387   0.00000  Uiso   1.00
O604   O     0.51639   0.83333   0.31612   0.00000  Uiso   1.00
O605   O     0.48361   0.83334   0.18388   0.00000  Uiso   1.00
O606   O     0.33847   0.87816   0.08445   0.00000  Uiso   1.00
Zn607  Zn    0.44896   0.83334   0.25000   0.00000  Uiso   1.00
Zn608  Zn    0.55104   0.83333   0.25000   0.00000  Uiso   1.00
C609   C     0.83340   0.91318   0.25068   0.00000  Uiso   1.00
C610   C     0.79595   0.97810   0.28682   0.00000  Uiso   1.00
C611   C     0.83265   0.70928   0.24882   0.00000  Uiso   1.00
C612   C     0.83402   0.95739   0.25118   0.00000  Uiso   1.00
C613   C     0.98382   0.80141   0.23019   0.00000  Uiso   1.00
C614   C     0.68285   0.86526   0.26981   0.00000  Uiso   1.00
C615   C     0.69843   0.80146   0.23012   0.00000  Uiso   1.00
C616   C     0.96824   0.86521   0.26988   0.00000  Uiso   1.00
C617   C     0.80204   0.83372   0.33829   0.00000  Uiso   1.00
C618   C     0.86463   0.83295   0.16171   0.00000  Uiso   1.00
C619   C     0.78134   0.83321   0.38962   0.00000  Uiso   1.00
C620   C     0.83327   0.75349   0.24932   0.00000  Uiso   1.00
C621   C     0.88532   0.83346   0.11038   0.00000  Uiso   1.00
C622   C     0.72244   0.80861   0.46437   0.00000  Uiso   1.00
C623   C     0.94422   0.85805   0.03562   0.00000  Uiso   1.00
C624   C     0.73278   0.81964   0.41809   0.00000  Uiso   1.00
C625   C     0.93389   0.84703   0.08191   0.00000  Uiso   1.00
C626   C     0.81465   0.84229   0.41006   0.00000  Uiso   1.00
C627   C     0.85202   0.82438   0.08994   0.00000  Uiso   1.00
C628   C     0.80389   0.83334   0.45680   0.00000  Uiso   1.00
C629   C     0.86278   0.83333   0.04320   0.00000  Uiso   1.00
C630   C     0.75797   0.81398   0.48317   0.00000  Uiso   1.00
C631   C     0.78286   0.80412   0.04691   0.00000  Uiso   1.00
C632   C     0.90870   0.85268   0.01683   0.00000  Uiso   1.00
C633   C     0.83871   0.84073   0.47706   0.00000  Uiso   1.00
C634   C     0.82795   0.82593   0.02294   0.00000  Uiso   1.00
C635   C     0.97485   0.84962   0.09798   0.00000  Uiso   1.00
C636   C     0.69182   0.81704   0.40202   0.00000  Uiso   1.00
C637   C     0.90817   0.95618   0.17678   0.00000  Uiso   1.00
C638   C     0.75850   0.71049   0.32322   0.00000  Uiso   1.00
C639   C     0.90824   0.71181   0.17345   0.00000  Uiso   1.00
C640   C     0.75843   0.95485   0.32655   0.00000  Uiso   1.00
C641   C     0.88381   0.86254   0.45309   0.00000  Uiso   1.00
C642   C     0.74822   0.79924   0.02769   0.00000  Uiso   1.00
C643   C     0.91845   0.86742   0.47230   0.00000  Uiso   1.00
C644   C     0.87132   0.97870   0.21457   0.00000  Uiso   1.00
C645   C     0.79535   0.68796   0.28543   0.00000  Uiso   1.00
C646   C     0.87071   0.68857   0.21318   0.00000  Uiso   1.00
H647   H     0.71403   0.78269   0.04737   0.00000  Uiso   1.00
H648   H     0.69464   0.89075   0.28579   0.00000  Uiso   1.00
H649   H     0.72282   0.77600   0.21408   0.00000  Uiso   1.00
H650   H     0.94385   0.89067   0.28592   0.00000  Uiso   1.00
H651   H     0.67825   0.82260   0.13257   0.00000  Uiso   1.00
H652   H     0.98842   0.84407   0.36743   0.00000  Uiso   1.00
H653   H     0.92185   0.75216   0.12043   0.00000  Uiso   1.00
H654   H     0.74482   0.91451   0.37958   0.00000  Uiso   1.00
H655   H     0.95264   0.88397   0.45262   0.00000  Uiso   1.00
H656   H     0.81624   0.81265   0.11234   0.00000  Uiso   1.00
H657   H     0.85043   0.85402   0.38765   0.00000  Uiso   1.00
H658   H     0.68642   0.79583   0.48601   0.00000  Uiso   1.00
H659   H     0.98025   0.87084   0.01399   0.00000  Uiso   1.00
H660   H     0.77310   0.78964   0.08047   0.00000  Uiso   1.00
H661   H     0.89357   0.87702   0.41953   0.00000  Uiso   1.00
H662   H     0.97202   0.77591   0.21421   0.00000  Uiso   1.00
N663   N     0.71426   0.83334   0.25001   0.00000  Uiso   1.00
N664   N     0.95241   0.83332   0.24999   0.00000  Uiso   1.00
N665   N     0.93757   0.93839   0.14659   0.00000  Uiso   1.00
N666   N     0.72910   0.72828   0.35341   0.00000  Uiso   1.00
O667   O     0.79512   0.89442   0.25000   0.00000  Uiso   1.00
O668   O     0.98135   0.81781   0.12536   0.00000  Uiso   1.00
O669   O     0.99486   0.78850   0.41554   0.00000  Uiso   1.00
O670   O     0.68531   0.84886   0.37464   0.00000  Uiso   1.00
O671   O     0.95214   0.70605   0.16297   0.00000  Uiso   1.00
O672   O     0.89308   0.73957   0.14760   0.00000  Uiso   1.00
O673   O     0.71453   0.96063   0.33705   0.00000  Uiso   1.00
O674   O     0.77359   0.92709   0.35239   0.00000  Uiso   1.00
O675   O     0.87154   0.77225   0.24999   0.00000  Uiso   1.00
O676   O     0.87157   0.89441   0.25000   0.00000  Uiso   1.00
O677   O     0.79510   0.77226   0.25000   0.00000  Uiso   1.00
O678   O     0.77328   0.83334   0.31612   0.00000  Uiso   1.00
O679   O     0.89339   0.83333   0.18387   0.00000  Uiso   1.00
O680   O     0.84972   0.83333   0.31612   0.00000  Uiso   1.00
O681   O     0.81695   0.83334   0.18388   0.00000  Uiso   1.00
O682   O     0.67181   0.87816   0.08445   0.00000  Uiso   1.00
Zn683  Zn    0.78229   0.83334   0.25000   0.00000  Uiso   1.00
Zn684  Zn    0.88438   0.83333   0.25000   0.00000  Uiso   1.00
C685   C     0.16673   0.24651   0.75068   0.00000  Uiso   1.00
C686   C     0.12929   0.31143   0.78682   0.00000  Uiso   1.00
C687   C     0.16598   0.04261   0.74882   0.00000  Uiso   1.00
C688   C     0.16735   0.29072   0.75118   0.00000  Uiso   1.00
C689   C     0.31715   0.13474   0.73019   0.00000  Uiso   1.00
C690   C     0.01618   0.19859   0.76981   0.00000  Uiso   1.00
C691   C     0.03176   0.13479   0.73012   0.00000  Uiso   1.00
C692   C     0.30157   0.19854   0.76988   0.00000  Uiso   1.00
C693   C     0.13537   0.16705   0.83829   0.00000  Uiso   1.00
C694   C     0.19796   0.16628   0.66171   0.00000  Uiso   1.00
C695   C     0.11468   0.16654   0.88962   0.00000  Uiso   1.00
C696   C     0.16660   0.08682   0.74932   0.00000  Uiso   1.00
C697   C     0.21866   0.16679   0.61038   0.00000  Uiso   1.00
C698   C     0.05578   0.14195   0.96437   0.00000  Uiso   1.00
C699   C     0.27756   0.19138   0.53562   0.00000  Uiso   1.00
C700   C     0.06611   0.15297   0.91809   0.00000  Uiso   1.00
C701   C     0.26722   0.18036   0.58191   0.00000  Uiso   1.00
C702   C     0.14798   0.17562   0.91006   0.00000  Uiso   1.00
C703   C     0.18535   0.15771   0.58994   0.00000  Uiso   1.00
C704   C     0.13722   0.16667   0.95680   0.00000  Uiso   1.00
C705   C     0.19611   0.16666   0.54320   0.00000  Uiso   1.00
C706   C     0.09130   0.14731   0.98317   0.00000  Uiso   1.00
C707   C     0.11620   0.13745   0.54691   0.00000  Uiso   1.00
C708   C     0.24204   0.18602   0.51683   0.00000  Uiso   1.00
C709   C     0.17205   0.17406   0.97706   0.00000  Uiso   1.00
C710   C     0.16129   0.15927   0.52294   0.00000  Uiso   1.00
C711   C     0.30818   0.18296   0.59798   0.00000  Uiso   1.00
C712   C     0.02515   0.15038   0.90202   0.00000  Uiso   1.00
C713   C     0.24150   0.28951   0.67678   0.00000  Uiso   1.00
C714   C     0.09183   0.04382   0.82322   0.00000  Uiso   1.00
C715   C     0.24157   0.04515   0.67345   0.00000  Uiso   1.00
C716   C     0.09176   0.28819   0.82655   0.00000  Uiso   1.00
C717   C     0.21714   0.19588   0.95309   0.00000  Uiso   1.00
C718   C     0.08155   0.13258   0.52769   0.00000  Uiso   1.00
C719   C     0.25179   0.20075   0.97230   0.00000  Uiso   1.00
C720   C     0.20465   0.31204   0.71457   0.00000  Uiso   1.00
C721   C     0.12868   0.02130   0.78543   0.00000  Uiso   1.00
C722   C     0.20405   0.02190   0.71318   0.00000  Uiso   1.00
H723   H     0.04736   0.11602   0.54737   0.00000  Uiso   1.00
H724   H     0.02798   0.22409   0.78579   0.00000  Uiso   1.00
H725   H     0.05615   0.10933   0.71408   0.00000  Uiso   1.00
H726   H     0.27718   0.22400   0.78592   0.00000  Uiso   1.00
H727   H     0.01158   0.15594   0.63257   0.00000  Uiso   1.00
H728   H     0.32175   0.17740   0.86743   0.00000  Uiso   1.00
H729   H     0.25518   0.08550   0.62043   0.00000  Uiso   1.00
H730   H     0.07815   0.24784   0.87958   0.00000  Uiso   1.00
H731   H     0.28598   0.21731   0.95262   0.00000  Uiso   1.00
H732   H     0.14957   0.14599   0.61234   0.00000  Uiso   1.00
H733   H     0.18376   0.18735   0.88765   0.00000  Uiso   1.00
H734   H     0.01975   0.12916   0.98601   0.00000  Uiso   1.00
H735   H     0.31358   0.20417   0.51399   0.00000  Uiso   1.00
H736   H     0.10643   0.12297   0.58047   0.00000  Uiso   1.00
H737   H     0.22691   0.21035   0.91953   0.00000  Uiso   1.00
H738   H     0.30536   0.10925   0.71421   0.00000  Uiso   1.00
N739   N     0.04759   0.16668   0.75001   0.00000  Uiso   1.00
N740   N     0.28574   0.16666   0.74999   0.00000  Uiso   1.00
N741   N     0.27091   0.27173   0.64659   0.00000  Uiso   1.00
N742   N     0.06243   0.06161   0.85341   0.00000  Uiso   1.00
O743   O     0.12846   0.22775   0.75000   0.00000  Uiso   1.00
O744   O     0.31469   0.15114   0.62536   0.00000  Uiso   1.00
O745   O     0.32820   0.12184   0.91554   0.00000  Uiso   1.00
O746   O     0.01864   0.18219   0.87464   0.00000  Uiso   1.00
O747   O     0.28547   0.03938   0.66297   0.00000  Uiso   1.00
O748   O     0.22641   0.07291   0.64760   0.00000  Uiso   1.00
O749   O     0.04786   0.29396   0.83705   0.00000  Uiso   1.00
O750   O     0.10692   0.26042   0.85239   0.00000  Uiso   1.00
O751   O     0.20488   0.10558   0.74999   0.00000  Uiso   1.00
O752   O     0.20490   0.22774   0.75000   0.00000  Uiso   1.00
O753   O     0.12843   0.10559   0.75000   0.00000  Uiso   1.00
O754   O     0.10661   0.16667   0.81612   0.00000  Uiso   1.00
O755   O     0.22672   0.16666   0.68387   0.00000  Uiso   1.00
O756   O     0.18305   0.16666   0.81612   0.00000  Uiso   1.00
O757   O     0.15028   0.16667   0.68388   0.00000  Uiso   1.00
O758   O     0.00514   0.21150   0.58445   0.00000  Uiso   1.00
Zn759  Zn    0.11562   0.16667   0.75000   0.00000  Uiso   1.00
Zn760  Zn    0.21771   0.16666   0.75000   0.00000  Uiso   1.00
C761   C     0.50007   0.24651   0.75068   0.00000  Uiso   1.00
C762   C     0.46262   0.31143   0.78682   0.00000  Uiso   1.00
C763   C     0.49931   0.04261   0.74882   0.00000  Uiso   1.00
C764   C     0.50069   0.29072   0.75118   0.00000  Uiso   1.00
C765   C     0.65049   0.13474   0.73019   0.00000  Uiso   1.00
C766   C     0.34951   0.19859   0.76981   0.00000  Uiso   1.00
C767   C     0.36510   0.13479   0.73012   0.00000  Uiso   1.00
C768   C     0.63490   0.19854   0.76988   0.00000  Uiso   1.00
C769   C     0.46870   0.16705   0.83829   0.00000  Uiso   1.00
C770   C     0.53130   0.16628   0.66171   0.00000  Uiso   1.00
C771   C     0.44801   0.16654   0.88962   0.00000  Uiso   1.00
C772   C     0.49993   0.08682   0.74932   0.00000  Uiso   1.00
C773   C     0.55199   0.16679   0.61038   0.00000  Uiso   1.00
C774   C     0.38911   0.14195   0.96437   0.00000  Uiso   1.00
C775   C     0.61089   0.19138   0.53562   0.00000  Uiso   1.00
C776   C     0.39945   0.15297   0.91809   0.00000  Uiso   1.00
C777   C     0.60055   0.18036   0.58191   0.00000  Uiso   1.00
C778   C     0.48132   0.17562   0.91006   0.00000  Uiso   1.00
C779   C     0.51868   0.15771   0.58994   0.00000  Uiso   1.00
C780   C     0.47055   0.16667   0.95680   0.00000  Uiso   1.00
C781   C     0.52945   0.16666   0.54320   0.00000  Uiso   1.00
C782   C     0.42463   0.14731   0.98317   0.00000  Uiso   1.00
C783   C     0.44953   0.13745   0.54691   0.00000  Uiso   1.00
C784   C     0.57537   0.18602   0.51683   0.00000  Uiso   1.00
C785   C     0.50538   0.17406   0.97706   0.00000  Uiso   1.00
C786   C     0.49462   0.15927   0.52294   0.00000  Uiso   1.00
C787   C     0.64151   0.18296   0.59798   0.00000  Uiso   1.00
C788   C     0.35849   0.15038   0.90202   0.00000  Uiso   1.00
C789   C     0.57484   0.28951   0.67678   0.00000  Uiso   1.00
C790   C     0.42517   0.04382   0.82322   0.00000  Uiso   1.00
C791   C     0.57491   0.04515   0.67345   0.00000  Uiso   1.00
C792   C     0.42509   0.28819   0.82655   0.00000  Uiso   1.00
C793   C     0.55047   0.19588   0.95309   0.00000  Uiso   1.00
C794   C     0.41488   0.13258   0.52769   0.00000  Uiso   1.00
C795   C     0.58512   0.20075   0.97230   0.00000  Uiso   1.00
C796   C     0.53799   0.31204   0.71457   0.00000  Uiso   1.00
C797   C     0.46201   0.02130   0.78543   0.00000  Uiso   1.00
C798   C     0.53738   0.02190   0.71318   0.00000  Uiso   1.00
H799   H     0.38069   0.11602   0.54737   0.00000  Uiso   1.00
H800   H     0.36131   0.22409   0.78579   0.00000  Uiso   1.00
H801   H     0.38949   0.10933   0.71408   0.00000  Uiso   1.00
H802   H     0.61051   0.22400   0.78592   0.00000  Uiso   1.00
H803   H     0.34492   0.15594   0.63257   0.00000  Uiso   1.00
H804   H     0.65508   0.17740   0.86743   0.00000  Uiso   1.00
H805   H     0.58852   0.08550   0.62043   0.00000  Uiso   1.00
H806   H     0.41149   0.24784   0.87958   0.00000  Uiso   1.00
H807   H     0.61931   0.21731   0.95262   0.00000  Uiso   1.00
H808   H     0.48290   0.14599   0.61234   0.00000  Uiso   1.00
H809   H     0.51709   0.18735   0.88765   0.00000  Uiso   1.00
H810   H     0.35309   0.12916   0.98601   0.00000  Uiso   1.00
H811   H     0.64692   0.20417   0.51399   0.00000  Uiso   1.00
H812   H     0.43977   0.12297   0.58047   0.00000  Uiso   1.00
H813   H     0.56024   0.21035   0.91953   0.00000  Uiso   1.00
H814   H     0.63869   0.10925   0.71421   0.00000  Uiso   1.00
N815   N     0.38093   0.16668   0.75001   0.00000  Uiso   1.00
N816   N     0.61907   0.16666   0.74999   0.00000  Uiso   1.00
N817   N     0.60424   0.27173   0.64659   0.00000  Uiso   1.00
N818   N     0.39577   0.06161   0.85341   0.00000  Uiso   1.00
O819   O     0.46179   0.22775   0.75000   0.00000  Uiso   1.00
O820   O     0.64802   0.15114   0.62536   0.00000  Uiso   1.00
O821   O     0.66153   0.12184   0.91554   0.00000  Uiso   1.00
O822   O     0.35198   0.18219   0.87464   0.00000  Uiso   1.00
O823   O     0.61881   0.03938   0.66297   0.00000  Uiso   1.00
O824   O     0.55975   0.07291   0.64760   0.00000  Uiso   1.00
O825   O     0.38120   0.29396   0.83705   0.00000  Uiso   1.00
O826   O     0.44026   0.26042   0.85239   0.00000  Uiso   1.00
O827   O     0.53821   0.10558   0.74999   0.00000  Uiso   1.00
O828   O     0.53823   0.22774   0.75000   0.00000  Uiso   1.00
O829   O     0.46177   0.10559   0.75000   0.00000  Uiso   1.00
O830   O     0.43994   0.16667   0.81612   0.00000  Uiso   1.00
O831   O     0.56006   0.16666   0.68387   0.00000  Uiso   1.00
O832   O     0.51639   0.16666   0.81612   0.00000  Uiso   1.00
O833   O     0.48361   0.16667   0.68388   0.00000  Uiso   1.00
O834   O     0.33847   0.21150   0.58445   0.00000  Uiso   1.00
Zn835  Zn    0.44896   0.16667   0.75000   0.00000  Uiso   1.00
Zn836  Zn    0.55104   0.16666   0.75000   0.00000  Uiso   1.00
C837   C     0.83340   0.24651   0.75068   0.00000  Uiso   1.00
C838   C     0.79595   0.31143   0.78682   0.00000  Uiso   1.00
C839   C     0.83265   0.04261   0.74882   0.00000  Uiso   1.00
C840   C     0.83402   0.29072   0.75118   0.00000  Uiso   1.00
C841   C     0.98382   0.13474   0.73019   0.00000  Uiso   1.00
C842   C     0.68285   0.19859   0.76981   0.00000  Uiso   1.00
C843   C     0.69843   0.13479   0.73012   0.00000  Uiso   1.00
C844   C     0.96824   0.19854   0.76988   0.00000  Uiso   1.00
C845   C     0.80204   0.16705   0.83829   0.00000  Uiso   1.00
C846   C     0.86463   0.16628   0.66171   0.00000  Uiso   1.00
C847   C     0.78134   0.16654   0.88962   0.00000  Uiso   1.00
C848   C     0.83327   0.08682   0.74932   0.00000  Uiso   1.00
C849   C     0.88532   0.16679   0.61038   0.00000  Uiso   1.00
C850   C     0.72244   0.14195   0.96437   0.00000  Uiso   1.00
C851   C     0.94422   0.19138   0.53562   0.00000  Uiso   1.00
C852   C     0.73278   0.15297   0.91809   0.00000  Uiso   1.00
C853   C     0.93389   0.18036   0.58191   0.00000  Uiso   1.00
C854   C     0.81465   0.17562   0.91006   0.00000  Uiso   1.00
C855   C     0.85202   0.15771   0.58994   0.00000  Uiso   1.00
C856   C     0.80389   0.16667   0.95680   0.00000  Uiso   1.00
C857   C     0.86278   0.16666   0.54320   0.00000  Uiso   1.00
C858   C     0.75797   0.14731   0.98317   0.00000  Uiso   1.00
C859   C     0.78286   0.13745   0.54691   0.00000  Uiso   1.00
C860   C     0.90870   0.18602   0.51683   0.00000  Uiso   1.00
C861   C     0.83871   0.17406   0.97706   0.00000  Uiso   1.00
C862   C     0.82795   0.15927   0.52294   0.00000  Uiso   1.00
C863   C     0.97485   0.18296   0.59798   0.00000  Uiso   1.00
C864   C     0.69182   0.15038   0.90202   0.00000  Uiso   1.00
C865   C     0.90817   0.28951   0.67678   0.00000  Uiso   1.00
C866   C     0.75850   0.04382   0.82322   0.00000  Uiso   1.00
C867   C     0.90824   0.04515   0.67345   0.00000  Uiso   1.00
C868   C     0.75843   0.28819   0.82655   0.00000  Uiso   1.00
C869   C     0.88381   0.19588   0.95309   0.00000  Uiso   1.00
C870   C     0.74822   0.13258   0.52769   0.00000  Uiso   1.00
C871   C     0.91845   0.20075   0.97230   0.00000  Uiso   1.00
C872   C     0.87132   0.31204   0.71457   0.00000  Uiso   1.00
C873   C     0.79535   0.02130   0.78543   0.00000  Uiso   1.00
C874   C     0.87071   0.02190   0.71318   0.00000  Uiso   1.00
H875   H     0.71403   0.11602   0.54737   0.00000  Uiso   1.00
H876   H     0.69464   0.22409   0.78579   0.00000  Uiso   1.00
H877   H     0.72282   0.10933   0.71408   0.00000  Uiso   1.00
H878   H     0.94385   0.22400   0.78592   0.00000  Uiso   1.00
H879   H     0.67825   0.15594   0.63257   0.00000  Uiso   1.00
H880   H     0.98842   0.17740   0.86743   0.00000  Uiso   1.00
H881   H     0.92185   0.08550   0.62043   0.00000  Uiso   1.00
H882   H     0.74482   0.24784   0.87958   0.00000  Uiso   1.00
H883   H     0.95264   0.21731   0.95262   0.00000  Uiso   1.00
H884   H     0.81624   0.14599   0.61234   0.00000  Uiso   1.00
H885   H     0.85043   0.18735   0.88765   0.00000  Uiso   1.00
H886   H     0.68642   0.12916   0.98601   0.00000  Uiso   1.00
H887   H     0.98025   0.20417   0.51399   0.00000  Uiso   1.00
H888   H     0.77310   0.12297   0.58047   0.00000  Uiso   1.00
H889   H     0.89357   0.21035   0.91953   0.00000  Uiso   1.00
H890   H     0.97202   0.10925   0.71421   0.00000  Uiso   1.00
N891   N     0.71426   0.16668   0.75001   0.00000  Uiso   1.00
N892   N     0.95241   0.16666   0.74999   0.00000  Uiso   1.00
N893   N     0.93757   0.27173   0.64659   0.00000  Uiso   1.00
N894   N     0.72910   0.06161   0.85341   0.00000  Uiso   1.00
O895   O     0.79512   0.22775   0.75000   0.00000  Uiso   1.00
O896   O     0.98135   0.15114   0.62536   0.00000  Uiso   1.00
O897   O     0.99486   0.12184   0.91554   0.00000  Uiso   1.00
O898   O     0.68531   0.18219   0.87464   0.00000  Uiso   1.00
O899   O     0.95214   0.03938   0.66297   0.00000  Uiso   1.00
O900   O     0.89308   0.07291   0.64760   0.00000  Uiso   1.00
O901   O     0.71453   0.29396   0.83705   0.00000  Uiso   1.00
O902   O     0.77359   0.26042   0.85239   0.00000  Uiso   1.00
O903   O     0.87154   0.10558   0.74999   0.00000  Uiso   1.00
O904   O     0.87157   0.22774   0.75000   0.00000  Uiso   1.00
O905   O     0.79510   0.10559   0.75000   0.00000  Uiso   1.00
O906   O     0.77328   0.16667   0.81612   0.00000  Uiso   1.00
O907   O     0.89339   0.16666   0.68387   0.00000  Uiso   1.00
O908   O     0.84972   0.16666   0.81612   0.00000  Uiso   1.00
O909   O     0.81695   0.16667   0.68388   0.00000  Uiso   1.00
O910   O     0.67181   0.21150   0.58445   0.00000  Uiso   1.00
Zn911  Zn    0.78229   0.16667   0.75000   0.00000  Uiso   1.00
Zn912  Zn    0.88438   0.16666   0.75000   0.00000  Uiso   1.00
C913   C     0.16673   0.57985   0.75068   0.00000  Uiso   1.00
C914   C     0.12929   0.64477   0.78682   0.00000  Uiso   1.00
C915   C     0.16598   0.37594   0.74882   0.00000  Uiso   1.00
C916   C     0.16735   0.62406   0.75118   0.00000  Uiso   1.00
C917   C     0.31715   0.46808   0.73019   0.00000  Uiso   1.00
C918   C     0.01618   0.53192   0.76981   0.00000  Uiso   1.00
C919   C     0.03176   0.46812   0.73012   0.00000  Uiso   1.00
C920   C     0.30157   0.53188   0.76988   0.00000  Uiso   1.00
C921   C     0.13537   0.50039   0.83829   0.00000  Uiso   1.00
C922   C     0.19796   0.49961   0.66171   0.00000  Uiso   1.00
C923   C     0.11468   0.49987   0.88962   0.00000  Uiso   1.00
C924   C     0.16660   0.42015   0.74932   0.00000  Uiso   1.00
C925   C     0.21866   0.50013   0.61038   0.00000  Uiso   1.00
C926   C     0.05578   0.47528   0.96437   0.00000  Uiso   1.00
C927   C     0.27756   0.52472   0.53562   0.00000  Uiso   1.00
C928   C     0.06611   0.48630   0.91809   0.00000  Uiso   1.00
C929   C     0.26722   0.51370   0.58191   0.00000  Uiso   1.00
C930   C     0.14798   0.50896   0.91006   0.00000  Uiso   1.00
C931   C     0.18535   0.49104   0.58994   0.00000  Uiso   1.00
C932   C     0.13722   0.50000   0.95680   0.00000  Uiso   1.00
C933   C     0.19611   0.50000   0.54320   0.00000  Uiso   1.00
C934   C     0.09130   0.48065   0.98317   0.00000  Uiso   1.00
C935   C     0.11620   0.47078   0.54691   0.00000  Uiso   1.00
C936   C     0.24204   0.51935   0.51683   0.00000  Uiso   1.00
C937   C     0.17205   0.50740   0.97706   0.00000  Uiso   1.00
C938   C     0.16129   0.49260   0.52294   0.00000  Uiso   1.00
C939   C     0.30818   0.51629   0.59798   0.00000  Uiso   1.00
C940   C     0.02515   0.48371   0.90202   0.00000  Uiso   1.00
C941   C     0.24150   0.62285   0.67678   0.00000  Uiso   1.00
C942   C     0.09183   0.37715   0.82322   0.00000  Uiso   1.00
C943   C     0.24157   0.37848   0.67345   0.00000  Uiso   1.00
C944   C     0.09176   0.62152   0.82655   0.00000  Uiso   1.00
C945   C     0.21714   0.52921   0.95309   0.00000  Uiso   1.00
C946   C     0.08155   0.46591   0.52769   0.00000  Uiso   1.00
C947   C     0.25179   0.53408   0.97230   0.00000  Uiso   1.00
C948   C     0.20465   0.64537   0.71457   0.00000  Uiso   1.00
C949   C     0.12868   0.35463   0.78543   0.00000  Uiso   1.00
C950   C     0.20405   0.35523   0.71318   0.00000  Uiso   1.00
H951   H     0.04736   0.44935   0.54737   0.00000  Uiso   1.00
H952   H     0.02798   0.55742   0.78579   0.00000  Uiso   1.00
H953   H     0.05615   0.44267   0.71408   0.00000  Uiso   1.00
H954   H     0.27718   0.55733   0.78592   0.00000  Uiso   1.00
H955   H     0.01158   0.48927   0.63257   0.00000  Uiso   1.00
H956   H     0.32175   0.51074   0.86743   0.00000  Uiso   1.00
H957   H     0.25518   0.41883   0.62043   0.00000  Uiso   1.00
H958   H     0.07815   0.58117   0.87958   0.00000  Uiso   1.00
H959   H     0.28598   0.55064   0.95262   0.00000  Uiso   1.00
H960   H     0.14957   0.47932   0.61234   0.00000  Uiso   1.00
H961   H     0.18376   0.52069   0.88765   0.00000  Uiso   1.00
H962   H     0.01975   0.46249   0.98601   0.00000  Uiso   1.00
H963   H     0.31358   0.53750   0.51399   0.00000  Uiso   1.00
H964   H     0.10643   0.45631   0.58047   0.00000  Uiso   1.00
H965   H     0.22691   0.54368   0.91953   0.00000  Uiso   1.00
H966   H     0.30536   0.44258   0.71421   0.00000  Uiso   1.00
N967   N     0.04759   0.50001   0.75001   0.00000  Uiso   1.00
N968   N     0.28574   0.49999   0.74999   0.00000  Uiso   1.00
N969   N     0.27091   0.60506   0.64659   0.00000  Uiso   1.00
N970   N     0.06243   0.39494   0.85341   0.00000  Uiso   1.00
O971   O     0.12846   0.56108   0.75000   0.00000  Uiso   1.00
O972   O     0.31469   0.48448   0.62536   0.00000  Uiso   1.00
O973   O     0.32820   0.45517   0.91554   0.00000  Uiso   1.00
O974   O     0.01864   0.51553   0.87464   0.00000  Uiso   1.00
O975   O     0.28547   0.37271   0.66297   0.00000  Uiso   1.00
O976   O     0.22641   0.40624   0.64760   0.00000  Uiso   1.00
O977   O     0.04786   0.62730   0.83705   0.00000  Uiso   1.00
O978   O     0.10692   0.59375   0.85239   0.00000  Uiso   1.00
O979   O     0.20488   0.43892   0.74999   0.00000  Uiso   1.00
O980   O     0.20490   0.56107   0.75000   0.00000  Uiso   1.00
O981   O     0.12843   0.43893   0.75000   0.00000  Uiso   1.00
O982   O     0.10661   0.50001   0.81612   0.00000  Uiso   1.00
O983   O     0.22672   0.49999   0.68387   0.00000  Uiso   1.00
O984   O     0.18305   0.50000   0.81612   0.00000  Uiso   1.00
O985   O     0.15028   0.50000   0.68388   0.00000  Uiso   1.00
O986   O     0.00514   0.54483   0.58445   0.00000  Uiso   1.00
Zn987  Zn    0.11562   0.50001   0.75000   0.00000  Uiso   1.00
Zn988  Zn    0.21771   0.49999   0.75000   0.00000  Uiso   1.00
C989   C     0.50007   0.57985   0.75068   0.00000  Uiso   1.00
C990   C     0.46262   0.64477   0.78682   0.00000  Uiso   1.00
C991   C     0.49931   0.37594   0.74882   0.00000  Uiso   1.00
C992   C     0.50069   0.62406   0.75118   0.00000  Uiso   1.00
C993   C     0.65049   0.46808   0.73019   0.00000  Uiso   1.00
C994   C     0.34951   0.53192   0.76981   0.00000  Uiso   1.00
C995   C     0.36510   0.46812   0.73012   0.00000  Uiso   1.00
C996   C     0.63490   0.53188   0.76988   0.00000  Uiso   1.00
C997   C     0.46870   0.50039   0.83829   0.00000  Uiso   1.00
C998   C     0.53130   0.49961   0.66171   0.00000  Uiso   1.00
C999   C     0.44801   0.49987   0.88962   0.00000  Uiso   1.00
C1000  C     0.49993   0.42015   0.74932   0.00000  Uiso   1.00
C1001  C     0.55199   0.50013   0.61038   0.00000  Uiso   1.00
C1002  C     0.38911   0.47528   0.96437   0.00000  Uiso   1.00
C1003  C     0.61089   0.52472   0.53562   0.00000  Uiso   1.00
C1004  C     0.39945   0.48630   0.91809   0.00000  Uiso   1.00
C1005  C     0.60055   0.51370   0.58191   0.00000  Uiso   1.00
C1006  C     0.48132   0.50896   0.91006   0.00000  Uiso   1.00
C1007  C     0.51868   0.49104   0.58994   0.00000  Uiso   1.00
C1008  C     0.47055   0.50000   0.95680   0.00000  Uiso   1.00
C1009  C     0.52945   0.50000   0.54320   0.00000  Uiso   1.00
C1010  C     0.42463   0.48065   0.98317   0.00000  Uiso   1.00
C1011  C     0.44953   0.47078   0.54691   0.00000  Uiso   1.00
C1012  C     0.57537   0.51935   0.51683   0.00000  Uiso   1.00
C1013  C     0.50538   0.50740   0.97706   0.00000  Uiso   1.00
C1014  C     0.49462   0.49260   0.52294   0.00000  Uiso   1.00
C1015  C     0.64151   0.51629   0.59798   0.00000  Uiso   1.00
C1016  C     0.35849   0.48371   0.90202   0.00000  Uiso   1.00
C1017  C     0.57484   0.62285   0.67678   0.00000  Uiso   1.00
C1018  C     0.42517   0.37715   0.82322   0.00000  Uiso   1.00
C1019  C     0.57491   0.37848   0.67345   0.00000  Uiso   1.00
C1020  C     0.42509   0.62152   0.82655   0.00000  Uiso   1.00
C1021  C     0.55047   0.52921   0.95309   0.00000  Uiso   1.00
C1022  C     0.41488   0.46591   0.52769   0.00000  Uiso   1.00
C1023  C     0.58512   0.53408   0.97230   0.00000  Uiso   1.00
C1024  C     0.53799   0.64537   0.71457   0.00000  Uiso   1.00
C1025  C     0.46201   0.35463   0.78543   0.00000  Uiso   1.00
C1026  C     0.53738   0.35523   0.71318   0.00000  Uiso   1.00
H1027  H     0.38069   0.44935   0.54737   0.00000  Uiso   1.00
H1028  H     0.36131   0.55742   0.78579   0.00000  Uiso   1.00
H1029  H     0.38949   0.44267   0.71408   0.00000  Uiso   1.00
H1030  H     0.61051   0.55733   0.78592   0.00000  Uiso   1.00
H1031  H     0.34492   0.48927   0.63257   0.00000  Uiso   1.00
H1032  H     0.65508   0.51074   0.86743   0.00000  Uiso   1.00
H1033  H     0.58852   0.41883   0.62043   0.00000  Uiso   1.00
H1034  H     0.41149   0.58117   0.87958   0.00000  Uiso   1.00
H1035  H     0.61931   0.55064   0.95262   0.00000  Uiso   1.00
H1036  H     0.48290   0.47932   0.61234   0.00000  Uiso   1.00
H1037  H     0.51709   0.52069   0.88765   0.00000  Uiso   1.00
H1038  H     0.35309   0.46249   0.98601   0.00000  Uiso   1.00
H1039  H     0.64692   0.53750   0.51399   0.00000  Uiso   1.00
H1040  H     0.43977   0.45631   0.58047   0.00000  Uiso   1.00
H1041  H     0.56024   0.54368   0.91953   0.00000  Uiso   1.00
H1042  H     0.63869   0.44258   0.71421   0.00000  Uiso   1.00
N1043  N     0.38093   0.50001   0.75001   0.00000  Uiso   1.00
N1044  N     0.61907   0.49999   0.74999   0.00000  Uiso   1.00
N1045  N     0.60424   0.60506   0.64659   0.00000  Uiso   1.00
N1046  N     0.39577   0.39494   0.85341   0.00000  Uiso   1.00
O1047  O     0.46179   0.56108   0.75000   0.00000  Uiso   1.00
O1048  O     0.64802   0.48448   0.62536   0.00000  Uiso   1.00
O1049  O     0.66153   0.45517   0.91554   0.00000  Uiso   1.00
O1050  O     0.35198   0.51553   0.87464   0.00000  Uiso   1.00
O1051  O     0.61881   0.37271   0.66297   0.00000  Uiso   1.00
O1052  O     0.55975   0.40624   0.64760   0.00000  Uiso   1.00
O1053  O     0.38120   0.62730   0.83705   0.00000  Uiso   1.00
O1054  O     0.44026   0.59375   0.85239   0.00000  Uiso   1.00
O1055  O     0.53821   0.43892   0.74999   0.00000  Uiso   1.00
O1056  O     0.53823   0.56107   0.75000   0.00000  Uiso   1.00
O1057  O     0.46177   0.43893   0.75000   0.00000  Uiso   1.00
O1058  O     0.43994   0.50001   0.81612   0.00000  Uiso   1.00
O1059  O     0.56006   0.49999   0.68387   0.00000  Uiso   1.00
O1060  O     0.51639   0.50000   0.81612   0.00000  Uiso   1.00
O1061  O     0.48361   0.50000   0.68388   0.00000  Uiso   1.00
O1062  O     0.33847   0.54483   0.58445   0.00000  Uiso   1.00
Zn1063 Zn    0.44896   0.50001   0.75000   0.00000  Uiso   1.00
Zn1064 Zn    0.55104   0.49999   0.75000   0.00000  Uiso   1.00
C1065  C     0.83340   0.57985   0.75068   0.00000  Uiso   1.00
C1066  C     0.79595   0.64477   0.78682   0.00000  Uiso   1.00
C1067  C     0.83265   0.37594   0.74882   0.00000  Uiso   1.00
C1068  C     0.83402   0.62406   0.75118   0.00000  Uiso   1.00
C1069  C     0.98382   0.46808   0.73019   0.00000  Uiso   1.00
C1070  C     0.68285   0.53192   0.76981   0.00000  Uiso   1.00
C1071  C     0.69843   0.46812   0.73012   0.00000  Uiso   1.00
C1072  C     0.96824   0.53188   0.76988   0.00000  Uiso   1.00
C1073  C     0.80204   0.50039   0.83829   0.00000  Uiso   1.00
C1074  C     0.86463   0.49961   0.66171   0.00000  Uiso   1.00
C1075  C     0.78134   0.49987   0.88962   0.00000  Uiso   1.00
C1076  C     0.83327   0.42015   0.74932   0.00000  Uiso   1.00
C1077  C     0.88532   0.50013   0.61038   0.00000  Uiso   1.00
C1078  C     0.72244   0.47528   0.96437   0.00000  Uiso   1.00
C1079  C     0.94422   0.52472   0.53562   0.00000  Uiso   1.00
C1080  C     0.73278   0.48630   0.91809   0.00000  Uiso   1.00
C1081  C     0.93389   0.51370   0.58191   0.00000  Uiso   1.00
C1082  C     0.81465   0.50896   0.91006   0.00000  Uiso   1.00
C1083  C     0.85202   0.49104   0.58994   0.00000  Uiso   1.00
C1084  C     0.80389   0.50000   0.95680   0.00000  Uiso   1.00
C1085  C     0.86278   0.50000   0.54320   0.00000  Uiso   1.00
C1086  C     0.75797   0.48065   0.98317   0.00000  Uiso   1.00
C1087  C     0.78286   0.47078   0.54691   0.00000  Uiso   1.00
C1088  C     0.90870   0.51935   0.51683   0.00000  Uiso   1.00
C1089  C     0.83871   0.50740   0.97706   0.00000  Uiso   1.00
C1090  C     0.82795   0.49260   0.52294   0.00000  Uiso   1.00
C1091  C     0.97485   0.51629   0.59798   0.00000  Uiso   1.00
C1092  C     0.69182   0.48371   0.90202   0.00000  Uiso   1.00
C1093  C     0.90817   0.62285   0.67678   0.00000  Uiso   1.00
C1094  C     0.75850   0.37715   0.82322   0.00000  Uiso   1.00
C1095  C     0.90824   0.37848   0.67345   0.00000  Uiso   1.00
C1096  C     0.75843   0.62152   0.82655   0.00000  Uiso   1.00
C1097  C     0.88381   0.52921   0.95309   0.00000  Uiso   1.00
C1098  C     0.74822   0.46591   0.52769   0.00000  Uiso   1.00
C1099  C     0.91845   0.53408   0.97230   0.00000  Uiso   1.00
C1100  C     0.87132   0.64537   0.71457   0.00000  Uiso   1.00
C1101  C     0.79535   0.35463   0.78543   0.00000  Uiso   1.00
C1102  C     0.87071   0.35523   0.71318   0.00000  Uiso   1.00
H1103  H     0.71403   0.44935   0.54737   0.00000  Uiso   1.00
H1104  H     0.69464   0.55742   0.78579   0.00000  Uiso   1.00
H1105  H     0.72282   0.44267   0.71408   0.00000  Uiso   1.00
H1106  H     0.94385   0.55733   0.78592   0.00000  Uiso   1.00
H1107  H     0.67825   0.48927   0.63257   0.00000  Uiso   1.00
H1108  H     0.98842   0.51074   0.86743   0.00000  Uiso   1.00
H1109  H     0.92185   0.41883   0.62043   0.00000  Uiso   1.00
H1110  H     0.74482   0.58117   0.87958   0.00000  Uiso   1.00
H1111  H     0.95264   0.55064   0.95262   0.00000  Uiso   1.00
H1112  H     0.81624   0.47932   0.61234   0.00000  Uiso   1.00
H1113  H     0.85043   0.52069   0.88765   0.00000  Uiso   1.00
H1114  H     0.68642   0.46249   0.98601   0.00000  Uiso   1.00
H1115  H     0.98025   0.53750   0.51399   0.00000  Uiso   1.00
H1116  H     0.77310   0.45631   0.58047   0.00000  Uiso   1.00
H1117  H     0.89357   0.54368   0.91953   0.00000  Uiso   1.00
H1118  H     0.97202   0.44258   0.71421   0.00000  Uiso   1.00
N1119  N     0.71426   0.50001   0.75001   0.00000  Uiso   1.00
N1120  N     0.95241   0.49999   0.74999   0.00000  Uiso   1.00
N1121  N     0.93757   0.60506   0.64659   0.00000  Uiso   1.00
N1122  N     0.72910   0.39494   0.85341   0.00000  Uiso   1.00
O1123  O     0.79512   0.56108   0.75000   0.00000  Uiso   1.00
O1124  O     0.98135   0.48448   0.62536   0.00000  Uiso   1.00
O1125  O     0.99486   0.45517   0.91554   0.00000  Uiso   1.00
O1126  O     0.68531   0.51553   0.87464   0.00000  Uiso   1.00
O1127  O     0.95214   0.37271   0.66297   0.00000  Uiso   1.00
O1128  O     0.89308   0.40624   0.64760   0.00000  Uiso   1.00
O1129  O     0.71453   0.62730   0.83705   0.00000  Uiso   1.00
O1130  O     0.77359   0.59375   0.85239   0.00000  Uiso   1.00
O1131  O     0.87154   0.43892   0.74999   0.00000  Uiso   1.00
O1132  O     0.87157   0.56107   0.75000   0.00000  Uiso   1.00
O1133  O     0.79510   0.43893   0.75000   0.00000  Uiso   1.00
O1134  O     0.77328   0.50001   0.81612   0.00000  Uiso   1.00
O1135  O     0.89339   0.49999   0.68387   0.00000  Uiso   1.00
O1136  O     0.84972   0.50000   0.81612   0.00000  Uiso   1.00
O1137  O     0.81695   0.50000   0.68388   0.00000  Uiso   1.00
O1138  O     0.67181   0.54483   0.58445   0.00000  Uiso   1.00
Zn1139 Zn    0.78229   0.50001   0.75000   0.00000  Uiso   1.00
Zn1140 Zn    0.88438   0.49999   0.75000   0.00000  Uiso   1.00
C1141  C     0.16673   0.91318   0.75068   0.00000  Uiso   1.00
C1142  C     0.12929   0.97810   0.78682   0.00000  Uiso   1.00
C1143  C     0.16598   0.70928   0.74882   0.00000  Uiso   1.00
C1144  C     0.16735   0.95739   0.75118   0.00000  Uiso   1.00
C1145  C     0.31715   0.80141   0.73019   0.00000  Uiso   1.00
C1146  C     0.01618   0.86526   0.76981   0.00000  Uiso   1.00
C1147  C     0.03176   0.80146   0.73012   0.00000  Uiso   1.00
C1148  C     0.30157   0.86521   0.76988   0.00000  Uiso   1.00
C1149  C     0.13537   0.83372   0.83829   0.00000  Uiso   1.00
C1150  C     0.19796   0.83295   0.66171   0.00000  Uiso   1.00
C1151  C     0.11468   0.83321   0.88962   0.00000  Uiso   1.00
C1152  C     0.16660   0.75349   0.74932   0.00000  Uiso   1.00
C1153  C     0.21866   0.83346   0.61038   0.00000  Uiso   1.00
C1154  C     0.05578   0.80861   0.96437   0.00000  Uiso   1.00
C1155  C     0.27756   0.85805   0.53562   0.00000  Uiso   1.00
C1156  C     0.06611   0.81964   0.91809   0.00000  Uiso   1.00
C1157  C     0.26722   0.84703   0.58191   0.00000  Uiso   1.00
C1158  C     0.14798   0.84229   0.91006   0.00000  Uiso   1.00
C1159  C     0.18535   0.82438   0.58994   0.00000  Uiso   1.00
C1160  C     0.13722   0.83334   0.95680   0.00000  Uiso   1.00
C1161  C     0.19611   0.83333   0.54320   0.00000  Uiso   1.00
C1162  C     0.09130   0.81398   0.98317   0.00000  Uiso   1.00
C1163  C     0.11620   0.80412   0.54691   0.00000  Uiso   1.00
C1164  C     0.24204   0.85268   0.51683   0.00000  Uiso   1.00
C1165  C     0.17205   0.84073   0.97706   0.00000  Uiso   1.00
C1166  C     0.16129   0.82593   0.52294   0.00000  Uiso   1.00
C1167  C     0.30818   0.84962   0.59798   0.00000  Uiso   1.00
C1168  C     0.02515   0.81704   0.90202   0.00000  Uiso   1.00
C1169  C     0.24150   0.95618   0.67678   0.00000  Uiso   1.00
C1170  C     0.09183   0.71049   0.82322   0.00000  Uiso   1.00
C1171  C     0.24157   0.71181   0.67345   0.00000  Uiso   1.00
C1172  C     0.09176   0.95485   0.82655   0.00000  Uiso   1.00
C1173  C     0.21714   0.86254   0.95309   0.00000  Uiso   1.00
C1174  C     0.08155   0.79924   0.52769   0.00000  Uiso   1.00
C1175  C     0.25179   0.86742   0.97230   0.00000  Uiso   1.00
C1176  C     0.20465   0.97870   0.71457   0.00000  Uiso   1.00
C1177  C     0.12868   0.68796   0.78543   0.00000  Uiso   1.00
C1178  C     0.20405   0.68857   0.71318   0.00000  Uiso   1.00
H1179  H     0.04736   0.78269   0.54737   0.00000  Uiso   1.00
H1180  H     0.02798   0.89075   0.78579   0.00000  Uiso   1.00
H1181  H     0.05615   0.77600   0.71408   0.00000  Uiso   1.00
H1182  H     0.27718   0.89067   0.78592   0.00000  Uiso   1.00
H1183  H     0.01158   0.82260   0.63257   0.00000  Uiso   1.00
H1184  H     0.32175   0.84407   0.86743   0.00000  Uiso   1.00
H1185  H     0.25518   0.75216   0.62043   0.00000  Uiso   1.00
H1186  H     0.07815   0.91451   0.87958   0.00000  Uiso   1.00
H1187  H     0.28598   0.88397   0.95262   0.00000  Uiso   1.00
H1188  H     0.14957   0.81265   0.61234   0.00000  Uiso   1.00
H1189  H     0.18376   0.85402   0.88765   0.00000  Uiso   1.00
H1190  H     0.01975   0.79583   0.98601   0.00000  Uiso   1.00
H1191  H     0.31358   0.87084   0.51399   0.00000  Uiso   1.00
H1192  H     0.10643   0.78964   0.58047   0.00000  Uiso   1.00
H1193  H     0.22691   0.87702   0.91953   0.00000  Uiso   1.00
H1194  H     0.30536   0.77591   0.71421   0.00000  Uiso   1.00
N1195  N     0.04759   0.83334   0.75001   0.00000  Uiso   1.00
N1196  N     0.28574   0.83332   0.74999   0.00000  Uiso   1.00
N1197  N     0.27091   0.93839   0.64659   0.00000  Uiso   1.00
N1198  N     0.06243   0.72828   0.85341   0.00000  Uiso   1.00
O1199  O     0.12846   0.89442   0.75000   0.00000  Uiso   1.00
O1200  O     0.31469   0.81781   0.62536   0.00000  Uiso   1.00
O1201  O     0.32820   0.78850   0.91554   0.00000  Uiso   1.00
O1202  O     0.01864   0.84886   0.87464   0.00000  Uiso   1.00
O1203  O     0.28547   0.70605   0.66297   0.00000  Uiso   1.00
O1204  O     0.22641   0.73957   0.64760   0.00000  Uiso   1.00
O1205  O     0.04786   0.96063   0.83705   0.00000  Uiso   1.00
O1206  O     0.10692   0.92709   0.85239   0.00000  Uiso   1.00
O1207  O     0.20488   0.77225   0.74999   0.00000  Uiso   1.00
O1208  O     0.20490   0.89441   0.75000   0.00000  Uiso   1.00
O1209  O     0.12843   0.77226   0.75000   0.00000  Uiso   1.00
O1210  O     0.10661   0.83334   0.81612   0.00000  Uiso   1.00
O1211  O     0.22672   0.83333   0.68387   0.00000  Uiso   1.00
O1212  O     0.18305   0.83333   0.81612   0.00000  Uiso   1.00
O1213  O     0.15028   0.83334   0.68388   0.00000  Uiso   1.00
O1214  O     0.00514   0.87816   0.58445   0.00000  Uiso   1.00
Zn1215 Zn    0.11562   0.83334   0.75000   0.00000  Uiso   1.00
Zn1216 Zn    0.21771   0.83333   0.75000   0.00000  Uiso   1.00
C1217  C     0.50007   0.91318   0.75068   0.00000  Uiso   1.00
C1218  C     0.46262   0.97810   0.78682   0.00000  Uiso   1.00
C1219  C     0.49931   0.70928   0.74882   0.00000  Uiso   1.00
C1220  C     0.50069   0.95739   0.75118   0.00000  Uiso   1.00
C1221  C     0.65049   0.80141   0.73019   0.00000  Uiso   1.00
C1222  C     0.34951   0.86526   0.76981   0.00000  Uiso   1.00
C1223  C     0.36510   0.80146   0.73012   0.00000  Uiso   1.00
C1224  C     0.63490   0.86521   0.76988   0.00000  Uiso   1.00
C1225  C     0.46870   0.83372   0.83829   0.00000  Uiso   1.00
C1226  C     0.53130   0.83295   0.66171   0.00000  Uiso   1.00
C1227  C     0.44801   0.83321   0.88962   0.00000  Uiso   1.00
C1228  C     0.49993   0.75349   0.74932   0.00000  Uiso   1.00
C1229  C     0.55199   0.83346   0.61038   0.00000  Uiso   1.00
C1230  C     0.38911   0.80861   0.96437   0.00000  Uiso   1.00
C1231  C     0.61089   0.85805   0.53562   0.00000  Uiso   1.00
C1232  C     0.39945   0.81964   0.91809   0.00000  Uiso   1.00
C1233  C     0.60055   0.84703   0.58191   0.00000  Uiso   1.00
C1234  C     0.48132   0.84229   0.91006   0.00000  Uiso   1.00
C1235  C     0.51868   0.82438   0.58994   0.00000  Uiso   1.00
C1236  C     0.47055   0.83334   0.95680   0.00000  Uiso   1.00
C1237  C     0.52945   0.83333   0.54320   0.00000  Uiso   1.00
C1238  C     0.42463   0.81398   0.98317   0.00000  Uiso   1.00
C1239  C     0.44953   0.80412   0.54691   0.00000  Uiso   1.00
C1240  C     0.57537   0.85268   0.51683   0.00000  Uiso   1.00
C1241  C     0.50538   0.84073   0.97706   0.00000  Uiso   1.00
C1242  C     0.49462   0.82593   0.52294   0.00000  Uiso   1.00
C1243  C     0.64151   0.84962   0.59798   0.00000  Uiso   1.00
C1244  C     0.35849   0.81704   0.90202   0.00000  Uiso   1.00
C1245  C     0.57484   0.95618   0.67678   0.00000  Uiso   1.00
C1246  C     0.42517   0.71049   0.82322   0.00000  Uiso   1.00
C1247  C     0.57491   0.71181   0.67345   0.00000  Uiso   1.00
C1248  C     0.42509   0.95485   0.82655   0.00000  Uiso   1.00
C1249  C     0.55047   0.86254   0.95309   0.00000  Uiso   1.00
C1250  C     0.41488   0.79924   0.52769   0.00000  Uiso   1.00
C1251  C     0.58512   0.86742   0.97230   0.00000  Uiso   1.00
C1252  C     0.53799   0.97870   0.71457   0.00000  Uiso   1.00
C1253  C     0.46201   0.68796   0.78543   0.00000  Uiso   1.00
C1254  C     0.53738   0.68857   0.71318   0.00000  Uiso   1.00
H1255  H     0.38069   0.78269   0.54737   0.00000  Uiso   1.00
H1256  H     0.36131   0.89075   0.78579   0.00000  Uiso   1.00
H1257  H     0.38949   0.77600   0.71408   0.00000  Uiso   1.00
H1258  H     0.61051   0.89067   0.78592   0.00000  Uiso   1.00
H1259  H     0.34492   0.82260   0.63257   0.00000  Uiso   1.00
H1260  H     0.65508   0.84407   0.86743   0.00000  Uiso   1.00
H1261  H     0.58852   0.75216   0.62043   0.00000  Uiso   1.00
H1262  H     0.41149   0.91451   0.87958   0.00000  Uiso   1.00
H1263  H     0.61931   0.88397   0.95262   0.00000  Uiso   1.00
H1264  H     0.48290   0.81265   0.61234   0.00000  Uiso   1.00
H1265  H     0.51709   0.85402   0.88765   0.00000  Uiso   1.00
H1266  H     0.35309   0.79583   0.98601   0.00000  Uiso   1.00
H1267  H     0.64692   0.87084   0.51399   0.00000  Uiso   1.00
H1268  H     0.43977   0.78964   0.58047   0.00000  Uiso   1.00
H1269  H     0.56024   0.87702   0.91953   0.00000  Uiso   1.00
H1270  H     0.63869   0.77591   0.71421   0.00000  Uiso   1.00
N1271  N     0.38093   0.83334   0.75001   0.00000  Uiso   1.00
N1272  N     0.61907   0.83332   0.74999   0.00000  Uiso   1.00
N1273  N     0.60424   0.93839   0.64659   0.00000  Uiso   1.00
N1274  N     0.39577   0.72828   0.85341   0.00000  Uiso   1.00
O1275  O     0.46179   0.89442   0.75000   0.00000  Uiso   1.00
O1276  O     0.64802   0.81781   0.62536   0.00000  Uiso   1.00
O1277  O     0.66153   0.78850   0.91554   0.00000  Uiso   1.00
O1278  O     0.35198   0.84886   0.87464   0.00000  Uiso   1.00
O1279  O     0.61881   0.70605   0.66297   0.00000  Uiso   1.00
O1280  O     0.55975   0.73957   0.64760   0.00000  Uiso   1.00
O1281  O     0.38120   0.96063   0.83705   0.00000  Uiso   1.00
O1282  O     0.44026   0.92709   0.85239   0.00000  Uiso   1.00
O1283  O     0.53821   0.77225   0.74999   0.00000  Uiso   1.00
O1284  O     0.53823   0.89441   0.75000   0.00000  Uiso   1.00
O1285  O     0.46177   0.77226   0.75000   0.00000  Uiso   1.00
O1286  O     0.43994   0.83334   0.81612   0.00000  Uiso   1.00
O1287  O     0.56006   0.83333   0.68387   0.00000  Uiso   1.00
O1288  O     0.51639   0.83333   0.81612   0.00000  Uiso   1.00
O1289  O     0.48361   0.83334   0.68388   0.00000  Uiso   1.00
O1290  O     0.33847   0.87816   0.58445   0.00000  Uiso   1.00
Zn1291 Zn    0.44896   0.83334   0.75000   0.00000  Uiso   1.00
Zn1292 Zn    0.55104   0.83333   0.75000   0.00000  Uiso   1.00
C1293  C     0.83340   0.91318   0.75068   0.00000  Uiso   1.00
C1294  C     0.79595   0.97810   0.78682   0.00000  Uiso   1.00
C1295  C     0.83265   0.70928   0.74882   0.00000  Uiso   1.00
C1296  C     0.83402   0.95739   0.75118   0.00000  Uiso   1.00
C1297  C     0.98382   0.80141   0.73019   0.00000  Uiso   1.00
C1298  C     0.68285   0.86526   0.76981   0.00000  Uiso   1.00
C1299  C     0.69843   0.80146   0.73012   0.00000  Uiso   1.00
C1300  C     0.96824   0.86521   0.76988   0.00000  Uiso   1.00
C1301  C     0.80204   0.83372   0.83829   0.00000  Uiso   1.00
C1302  C     0.86463   0.83295   0.66171   0.00000  Uiso   1.00
C1303  C     0.78134   0.83321   0.88962   0.00000  Uiso   1.00
C1304  C     0.83327   0.75349   0.74932   0.00000  Uiso   1.00
C1305  C     0.88532   0.83346   0.61038   0.00000  Uiso   1.00
C1306  C     0.72244   0.80861   0.96437   0.00000  Uiso   1.00
C1307  C     0.94422   0.85805   0.53562   0.00000  Uiso   1.00
C1308  C     0.73278   0.81964   0.91809   0.00000  Uiso   1.00
C1309  C     0.93389   0.84703   0.58191   0.00000  Uiso   1.00
C1310  C     0.81465   0.84229   0.91006   0.00000  Uiso   1.00
C1311  C     0.85202   0.82438   0.58994   0.00000  Uiso   1.00
C1312  C     0.80389   0.83334   0.95680   0.00000  Uiso   1.00
C1313  C     0.86278   0.83333   0.54320   0.00000  Uiso   1.00
C1314  C     0.75797   0.81398   0.98317   0.00000  Uiso   1.00
C1315  C     0.78286   0.80412   0.54691   0.00000  Uiso   1.00
C1316  C     0.90870   0.85268   0.51683   0.00000  Uiso   1.00
C1317  C     0.83871   0.84073   0.97706   0.00000  Uiso   1.00
C1318  C     0.82795   0.82593   0.52294   0.00000  Uiso   1.00
C1319  C     0.97485   0.84962   0.59798   0.00000  Uiso   1.00
C1320  C     0.69182   0.81704   0.90202   0.00000  Uiso   1.00
C1321  C     0.90817   0.95618   0.67678   0.00000  Uiso   1.00
C1322  C     0.75850   0.71049   0.82322   0.00000  Uiso   1.00
C1323  C     0.90824   0.71181   0.67345   0.00000  Uiso   1.00
C1324  C     0.75843   0.95485   0.82655   0.00000  Uiso   1.00
C1325  C     0.88381   0.86254   0.95309   0.00000  Uiso   1.00
C1326  C     0.74822   0.79924   0.52769   0.00000  Uiso   1.00
C1327  C     0.91845   0.86742   0.97230   0.00000  Uiso   1.00
C1328  C     0.87132   0.97870   0.71457   0.00000  Uiso   1.00
C1329  C     0.79535   0.68796   0.78543   0.00000  Uiso   1.00
C1330  C     0.87071   0.68857   0.71318   0.00000  Uiso   1.00
H1331  H     0.71403   0.78269   0.54737   0.00000  Uiso   1.00
H1332  H     0.69464   0.89075   0.78579   0.00000  Uiso   1.00
H1333  H     0.72282   0.77600   0.71408   0.00000  Uiso   1.00
H1334  H     0.94385   0.89067   0.78592   0.00000  Uiso   1.00
H1335  H     0.67825   0.82260   0.63257   0.00000  Uiso   1.00
H1336  H     0.98842   0.84407   0.86743   0.00000  Uiso   1.00
H1337  H     0.92185   0.75216   0.62043   0.00000  Uiso   1.00
H1338  H     0.74482   0.91451   0.87958   0.00000  Uiso   1.00
H1339  H     0.95264   0.88397   0.95262   0.00000  Uiso   1.00
H1340  H     0.81624   0.81265   0.61234   0.00000  Uiso   1.00
H1341  H     0.85043   0.85402   0.88765   0.00000  Uiso   1.00
H1342  H     0.68642   0.79583   0.98601   0.00000  Uiso   1.00
H1343  H     0.98025   0.87084   0.51399   0.00000  Uiso   1.00
H1344  H     0.77310   0.78964   0.58047   0.00000  Uiso   1.00
H1345  H     0.89357   0.87702   0.91953   0.00000  Uiso   1.00
H1346  H     0.97202   0.77591   0.71421   0.00000  Uiso   1.00
N1347  N     0.71426   0.83334   0.75001   0.00000  Uiso   1.00
N1348  N     0.95241   0.83332   0.74999   0.00000  Uiso   1.00
N1349  N     0.93757   0.93839   0.64659   0.00000  Uiso   1.00
N1350  N     0.72910   0.72828   0.85341   0.00000  Uiso   1.00
O1351  O     0.79512   0.89442   0.75000   0.00000  Uiso   1.00
O1352  O     0.98135   0.81781   0.62536   0.00000  Uiso   1.00
O1353  O     0.99486   0.78850   0.91554   0.00000  Uiso   1.00
O1354  O     0.68531   0.84886   0.87464   0.00000  Uiso   1.00
O1355  O     0.95214   0.70605   0.66297   0.00000  Uiso   1.00
O1356  O     0.89308   0.73957   0.64760   0.00000  Uiso   1.00
O1357  O     0.71453   0.96063   0.83705   0.00000  Uiso   1.00
O1358  O     0.77359   0.92709   0.85239   0.00000  Uiso   1.00
O1359  O     0.87154   0.77225   0.74999   0.00000  Uiso   1.00
O1360  O     0.87157   0.89441   0.75000   0.00000  Uiso   1.00
O1361  O     0.79510   0.77226   0.75000   0.00000  Uiso   1.00
O1362  O     0.77328   0.83334   0.81612   0.00000  Uiso   1.00
O1363  O     0.89339   0.83333   0.68387   0.00000  Uiso   1.00
O1364  O     0.84972   0.83333   0.81612   0.00000  Uiso   1.00
O1365  O     0.81695   0.83334   0.68388   0.00000  Uiso   1.00
O1366  O     0.67181   0.87816   0.58445   0.00000  Uiso   1.00
Zn1367 Zn    0.78229   0.83334   0.75000   0.00000  Uiso   1.00
Zn1368 Zn    0.88438   0.83333   0.75000   0.00000  Uiso   1.00
loop_
_geom_bond_atom_site_label_1
_geom_bond_atom_site_label_2
_geom_bond_distance
_geom_bond_site_symmetry_2
_ccdc_geom_bond_type
C1     O59     1.281   .     A
C1     O68     1.280   .     A
C1     C4      1.420   .     S
C2     C32     1.489   .     S
C2     C4      1.406   .     A
C2     C265    1.388   .     S
C3     C12     1.420   .     S
C3     C38     1.406   .     A
C3     C37     1.405   .     A
C4     C36     1.405   .     A
C5     N56     1.367   .     A
C5     H54     1.081   .     S
C5     C83     1.416   .     S
C6     N55     1.367   .     A
C6     H40     1.081   .     S
C6     C160    1.416   1_455 S
C7     N55     1.366   .     A
C7     H41     1.082   .     S
C7     C157    1.416   1_455 S
C8     N56     1.366   .     A
C8     H42     1.082   .     S
C8     C82     1.416   .     S
C9     O72     1.302   .     A
C9     O70     1.292   .     A
C9     C11     1.474   .     S
C10    O73     1.302   .     A
C10    O71     1.292   .     A
C10    C13     1.474   .     S
C11    C18     1.397   .     A
C11    C16     1.419   .     A
C12    O67     1.281   .     A
C12    O69     1.280   .     A
C13    C19     1.397   .     A
C13    C17     1.419   .     A
C14    C16     1.400   .     A
C14    C22     1.400   .     A
C14    H50     1.085   .     S
C15    H51     1.085   .     S
C15    C24     1.400   .     A
C15    C17     1.400   .     A
C16    C28     1.484   .     S
C17    C27     1.484   .     S
C18    C20     1.396   .     A
C18    H49     1.074   .     S
C19    C21     1.396   .     A
C19    H48     1.074   .     S
C20    C25     1.423   .     A
C20    C22     1.413   .     A
C21    C26     1.423   .     A
C21    C24     1.413   .     A
C22    C718    1.387   .     S
C23    C26     1.418   .     A
C23    C34     1.384   .     A
C23    H52     1.076   .     S
C24    C719    1.387   1_554 S
C25    C33     1.418   .     A
C25    C710    1.421   .     S
C26    C709    1.421   1_554 S
C27    O60     1.397   .     S
C27    O150    1.223   .     S
C28    O62     1.397   .     S
C28    O213    1.223   1_455 S
C29    C36     1.452   .     S
C29    N57     1.156   .     T
C30    C37     1.452   .     S
C30    N58     1.156   .     T
C31    O63     1.223   .     D
C31    O64     1.396   .     S
C31    C38     1.489   .     S
C32    O66     1.396   .     S
C32    O65     1.223   .     D
C33    H53     1.076   .     S
C33    C35     1.384   .     A
C34    H39     1.084   .     S
C34    C706    1.387   1_554 S
C35    H47     1.084   .     S
C35    C708    1.387   .     S
C36    C266    1.388   .     S
C37    C458    1.388   1_545 S
C38    C492    1.388   1_545 S
H43    O212    1.014   1_455 S
H44    O138    1.014   .     S
H45    O64     1.013   .     S
H46    O66     1.013   .     S
N55    Zn75    2.011   .     S
N56    Zn76    2.011   .     S
O59    Zn75    1.992   .     S
O60    H119    1.014   .     S
O61    C104    1.223   .     S
O62    H196    1.014   1_455 S
O67    Zn76    1.992   .     S
O68    Zn76    2.003   .     S
O69    Zn75    2.003   .     S
O70    Zn75    1.977   .     S
O71    Zn76    1.977   .     S
O72    Zn76    1.909   .     S
O73    Zn75    1.909   .     S
O74    C179    1.223   1_455 S
C77    O135    1.281   .     A
C77    O144    1.280   .     A
C77    C80     1.420   .     S
C78    C108    1.489   .     S
C78    C80     1.406   .     A
C78    C341    1.388   .     S
C79    C88     1.420   .     S
C79    C114    1.406   .     A
C79    C113    1.405   .     A
C80    C112    1.405   .     A
C81    N132    1.367   .     A
C81    H130    1.081   .     S
C81    C159    1.416   .     S
C82    N131    1.367   .     A
C82    H116    1.081   .     S
C83    N131    1.366   .     A
C83    H117    1.082   .     S
C84    N132    1.366   .     A
C84    H118    1.082   .     S
C84    C158    1.416   .     S
C85    O148    1.302   .     A
C85    O146    1.292   .     A
C85    C87     1.474   .     S
C86    O149    1.302   .     A
C86    O147    1.292   .     A
C86    C89     1.474   .     S
C87    C94     1.397   .     A
C87    C92     1.419   .     A
C88    O143    1.281   .     A
C88    O145    1.280   .     A
C89    C95     1.397   .     A
C89    C93     1.419   .     A
C90    C92     1.400   .     A
C90    C98     1.400   .     A
C90    H126    1.085   .     S
C91    H127    1.085   .     S
C91    C100    1.400   .     A
C91    C93     1.400   .     A
C92    C104    1.484   .     S
C93    C103    1.484   .     S
C94    C96     1.396   .     A
C94    H125    1.074   .     S
C95    C97     1.396   .     A
C95    H124    1.074   .     S
C96    C101    1.423   .     A
C96    C98     1.413   .     A
C97    C102    1.423   .     A
C97    C100    1.413   .     A
C98    C794    1.387   .     S
C99    C102    1.418   .     A
C99    C110    1.384   .     A
C99    H128    1.076   .     S
C100   C795    1.387   1_554 S
C101   C109    1.418   .     A
C101   C786    1.421   .     S
C102   C785    1.421   1_554 S
C103   O136    1.397   .     S
C103   O226    1.223   .     S
C104   O138    1.397   .     S
C105   C112    1.452   .     S
C105   N133    1.156   .     T
C106   C113    1.452   .     S
C106   N134    1.156   .     T
C107   O139    1.223   .     D
C107   O140    1.396   .     S
C107   C114    1.489   .     S
C108   O142    1.396   .     S
C108   O141    1.223   .     D
C109   H129    1.076   .     S
C109   C111    1.384   .     A
C110   H115    1.084   .     S
C110   C782    1.387   1_554 S
C111   H123    1.084   .     S
C111   C784    1.387   .     S
C112   C342    1.388   .     S
C113   C534    1.388   1_545 S
C114   C568    1.388   1_545 S
H120   O214    1.014   .     S
H121   O140    1.013   .     S
H122   O142    1.013   .     S
N131   Zn151   2.011   .     S
N132   Zn152   2.011   .     S
O135   Zn151   1.992   .     S
O136   H195    1.014   .     S
O137   C180    1.223   .     S
O143   Zn152   1.992   .     S
O144   Zn152   2.003   .     S
O145   Zn151   2.003   .     S
O146   Zn151   1.977   .     S
O147   Zn152   1.977   .     S
O148   Zn152   1.909   .     S
O149   Zn151   1.909   .     S
C153   O211    1.281   .     A
C153   O220    1.280   .     A
C153   C156    1.420   .     S
C154   C184    1.489   .     S
C154   C156    1.406   .     A
C154   C417    1.388   .     S
C155   C164    1.420   .     S
C155   C190    1.406   .     A
C155   C189    1.405   .     A
C156   C188    1.405   .     A
C157   N208    1.367   .     A
C157   H206    1.081   .     S
C157   C7      1.416   1_655 S
C158   N207    1.367   .     A
C158   H192    1.081   .     S
C159   N207    1.366   .     A
C159   H193    1.082   .     S
C160   N208    1.366   .     A
C160   H194    1.082   .     S
C160   C6      1.416   1_655 S
C161   O224    1.302   .     A
C161   O222    1.292   .     A
C161   C163    1.474   .     S
C162   O225    1.302   .     A
C162   O223    1.292   .     A
C162   C165    1.474   .     S
C163   C170    1.397   .     A
C163   C168    1.419   .     A
C164   O219    1.281   .     A
C164   O221    1.280   .     A
C165   C171    1.397   .     A
C165   C169    1.419   .     A
C166   C168    1.400   .     A
C166   C174    1.400   .     A
C166   H202    1.085   .     S
C167   H203    1.085   .     S
C167   C176    1.400   .     A
C167   C169    1.400   .     A
C168   C180    1.484   .     S
C169   C179    1.484   .     S
C170   C172    1.396   .     A
C170   H201    1.074   .     S
C171   C173    1.396   .     A
C171   H200    1.074   .     S
C172   C177    1.423   .     A
C172   C174    1.413   .     A
C173   C178    1.423   .     A
C173   C176    1.413   .     A
C174   C870    1.387   .     S
C175   C178    1.418   .     A
C175   C186    1.384   .     A
C175   H204    1.076   .     S
C176   C871    1.387   1_554 S
C177   C185    1.418   .     A
C177   C862    1.421   .     S
C178   C861    1.421   1_554 S
C179   O212    1.397   .     S
C179   O74     1.223   1_655 S
C180   O214    1.397   .     S
C181   C188    1.452   .     S
C181   N209    1.156   .     T
C182   C189    1.452   .     S
C182   N210    1.156   .     T
C183   O215    1.223   .     D
C183   O216    1.396   .     S
C183   C190    1.489   .     S
C184   O218    1.396   .     S
C184   O217    1.223   .     D
C185   H205    1.076   .     S
C185   C187    1.384   .     A
C186   H191    1.084   .     S
C186   C858    1.387   1_554 S
C187   H199    1.084   .     S
C187   C860    1.387   .     S
C188   C418    1.388   .     S
C189   C610    1.388   1_545 S
C190   C644    1.388   1_545 S
H196   O62     1.014   1_655 S
H197   O216    1.013   .     S
H198   O218    1.013   .     S
N207   Zn227   2.011   .     S
N208   Zn228   2.011   .     S
O211   Zn227   1.992   .     S
O212   H43     1.014   1_655 S
O213   C28     1.223   1_655 S
O219   Zn228   1.992   .     S
O220   Zn228   2.003   .     S
O221   Zn227   2.003   .     S
O222   Zn227   1.977   .     S
O223   Zn228   1.977   .     S
O224   Zn228   1.909   .     S
O225   Zn227   1.909   .     S
C229   O287    1.281   .     A
C229   O296    1.280   .     A
C229   C232    1.420   .     S
C230   C260    1.489   .     S
C230   C232    1.406   .     A
C230   C493    1.388   .     S
C231   C240    1.420   .     S
C231   C266    1.406   .     A
C231   C265    1.405   .     A
C232   C264    1.405   .     A
C233   N284    1.367   .     A
C233   H282    1.081   .     S
C233   C311    1.416   .     S
C234   N283    1.367   .     A
C234   H268    1.081   .     S
C234   C388    1.416   1_455 S
C235   N283    1.366   .     A
C235   H269    1.082   .     S
C235   C385    1.416   1_455 S
C236   N284    1.366   .     A
C236   H270    1.082   .     S
C236   C310    1.416   .     S
C237   O300    1.302   .     A
C237   O298    1.292   .     A
C237   C239    1.474   .     S
C238   O301    1.302   .     A
C238   O299    1.292   .     A
C238   C241    1.474   .     S
C239   C246    1.397   .     A
C239   C244    1.419   .     A
C240   O295    1.281   .     A
C240   O297    1.280   .     A
C241   C247    1.397   .     A
C241   C245    1.419   .     A
C242   C244    1.400   .     A
C242   C250    1.400   .     A
C242   H278    1.085   .     S
C243   H279    1.085   .     S
C243   C252    1.400   .     A
C243   C245    1.400   .     A
C244   C256    1.484   .     S
C245   C255    1.484   .     S
C246   C248    1.396   .     A
C246   H277    1.074   .     S
C247   C249    1.396   .     A
C247   H276    1.074   .     S
C248   C253    1.423   .     A
C248   C250    1.413   .     A
C249   C254    1.423   .     A
C249   C252    1.413   .     A
C250   C946    1.387   .     S
C251   C254    1.418   .     A
C251   C262    1.384   .     A
C251   H280    1.076   .     S
C252   C947    1.387   1_554 S
C253   C261    1.418   .     A
C253   C938    1.421   .     S
C254   C937    1.421   1_554 S
C255   O288    1.397   .     S
C255   O378    1.223   .     S
C256   O290    1.397   .     S
C256   O441    1.223   1_455 S
C257   C264    1.452   .     S
C257   N285    1.156   .     T
C258   C265    1.452   .     S
C258   N286    1.156   .     T
C259   O291    1.223   .     D
C259   O292    1.396   .     S
C259   C266    1.489   .     S
C260   O294    1.396   .     S
C260   O293    1.223   .     D
C261   H281    1.076   .     S
C261   C263    1.384   .     A
C262   H267    1.084   .     S
C262   C934    1.387   1_554 S
C263   H275    1.084   .     S
C263   C936    1.387   .     S
C264   C494    1.388   .     S
H271   O440    1.014   1_455 S
H272   O366    1.014   .     S
H273   O292    1.013   .     S
H274   O294    1.013   .     S
N283   Zn303   2.011   .     S
N284   Zn304   2.011   .     S
O287   Zn303   1.992   .     S
O288   H347    1.014   .     S
O289   C332    1.223   .     S
O290   H424    1.014   1_455 S
O295   Zn304   1.992   .     S
O296   Zn304   2.003   .     S
O297   Zn303   2.003   .     S
O298   Zn303   1.977   .     S
O299   Zn304   1.977   .     S
O300   Zn304   1.909   .     S
O301   Zn303   1.909   .     S
O302   C407    1.223   1_455 S
C305   O363    1.281   .     A
C305   O372    1.280   .     A
C305   C308    1.420   .     S
C306   C336    1.489   .     S
C306   C308    1.406   .     A
C306   C569    1.388   .     S
C307   C316    1.420   .     S
C307   C342    1.406   .     A
C307   C341    1.405   .     A
C308   C340    1.405   .     A
C309   N360    1.367   .     A
C309   H358    1.081   .     S
C309   C387    1.416   .     S
C310   N359    1.367   .     A
C310   H344    1.081   .     S
C311   N359    1.366   .     A
C311   H345    1.082   .     S
C312   N360    1.366   .     A
C312   H346    1.082   .     S
C312   C386    1.416   .     S
C313   O376    1.302   .     A
C313   O374    1.292   .     A
C313   C315    1.474   .     S
C314   O377    1.302   .     A
C314   O375    1.292   .     A
C314   C317    1.474   .     S
C315   C322    1.397   .     A
C315   C320    1.419   .     A
C316   O371    1.281   .     A
C316   O373    1.280   .     A
C317   C323    1.397   .     A
C317   C321    1.419   .     A
C318   C320    1.400   .     A
C318   C326    1.400   .     A
C318   H354    1.085   .     S
C319   H355    1.085   .     S
C319   C328    1.400   .     A
C319   C321    1.400   .     A
C320   C332    1.484   .     S
C321   C331    1.484   .     S
C322   C324    1.396   .     A
C322   H353    1.074   .     S
C323   C325    1.396   .     A
C323   H352    1.074   .     S
C324   C329    1.423   .     A
C324   C326    1.413   .     A
C325   C330    1.423   .     A
C325   C328    1.413   .     A
C326   C1022   1.387   .     S
C327   C330    1.418   .     A
C327   C338    1.384   .     A
C327   H356    1.076   .     S
C328   C1023   1.387   1_554 S
C329   C337    1.418   .     A
C329   C1014   1.421   .     S
C330   C1013   1.421   1_554 S
C331   O364    1.397   .     S
C331   O454    1.223   .     S
C332   O366    1.397   .     S
C333   C340    1.452   .     S
C333   N361    1.156   .     T
C334   C341    1.452   .     S
C334   N362    1.156   .     T
C335   O367    1.223   .     D
C335   O368    1.396   .     S
C335   C342    1.489   .     S
C336   O370    1.396   .     S
C336   O369    1.223   .     D
C337   H357    1.076   .     S
C337   C339    1.384   .     A
C338   H343    1.084   .     S
C338   C1010   1.387   1_554 S
C339   H351    1.084   .     S
C339   C1012   1.387   .     S
C340   C570    1.388   .     S
H348   O442    1.014   .     S
H349   O368    1.013   .     S
H350   O370    1.013   .     S
N359   Zn379   2.011   .     S
N360   Zn380   2.011   .     S
O363   Zn379   1.992   .     S
O364   H423    1.014   .     S
O365   C408    1.223   .     S
O371   Zn380   1.992   .     S
O372   Zn380   2.003   .     S
O373   Zn379   2.003   .     S
O374   Zn379   1.977   .     S
O375   Zn380   1.977   .     S
O376   Zn380   1.909   .     S
O377   Zn379   1.909   .     S
C381   O439    1.281   .     A
C381   O448    1.280   .     A
C381   C384    1.420   .     S
C382   C412    1.489   .     S
C382   C384    1.406   .     A
C382   C645    1.388   .     S
C383   C392    1.420   .     S
C383   C418    1.406   .     A
C383   C417    1.405   .     A
C384   C416    1.405   .     A
C385   N436    1.367   .     A
C385   H434    1.081   .     S
C385   C235    1.416   1_655 S
C386   N435    1.367   .     A
C386   H420    1.081   .     S
C387   N435    1.366   .     A
C387   H421    1.082   .     S
C388   N436    1.366   .     A
C388   H422    1.082   .     S
C388   C234    1.416   1_655 S
C389   O452    1.302   .     A
C389   O450    1.292   .     A
C389   C391    1.474   .     S
C390   O453    1.302   .     A
C390   O451    1.292   .     A
C390   C393    1.474   .     S
C391   C398    1.397   .     A
C391   C396    1.419   .     A
C392   O447    1.281   .     A
C392   O449    1.280   .     A
C393   C399    1.397   .     A
C393   C397    1.419   .     A
C394   C396    1.400   .     A
C394   C402    1.400   .     A
C394   H430    1.085   .     S
C395   H431    1.085   .     S
C395   C404    1.400   .     A
C395   C397    1.400   .     A
C396   C408    1.484   .     S
C397   C407    1.484   .     S
C398   C400    1.396   .     A
C398   H429    1.074   .     S
C399   C401    1.396   .     A
C399   H428    1.074   .     S
C400   C405    1.423   .     A
C400   C402    1.413   .     A
C401   C406    1.423   .     A
C401   C404    1.413   .     A
C402   C1098   1.387   .     S
C403   C406    1.418   .     A
C403   C414    1.384   .     A
C403   H432    1.076   .     S
C404   C1099   1.387   1_554 S
C405   C413    1.418   .     A
C405   C1090   1.421   .     S
C406   C1089   1.421   1_554 S
C407   O440    1.397   .     S
C407   O302    1.223   1_655 S
C408   O442    1.397   .     S
C409   C416    1.452   .     S
C409   N437    1.156   .     T
C410   C417    1.452   .     S
C410   N438    1.156   .     T
C411   O443    1.223   .     D
C411   O444    1.396   .     S
C411   C418    1.489   .     S
C412   O446    1.396   .     S
C412   O445    1.223   .     D
C413   H433    1.076   .     S
C413   C415    1.384   .     A
C414   H419    1.084   .     S
C414   C1086   1.387   1_554 S
C415   H427    1.084   .     S
C415   C1088   1.387   .     S
C416   C646    1.388   .     S
H424   O290    1.014   1_655 S
H425   O444    1.013   .     S
H426   O446    1.013   .     S
N435   Zn455   2.011   .     S
N436   Zn456   2.011   .     S
O439   Zn455   1.992   .     S
O440   H271    1.014   1_655 S
O441   C256    1.223   1_655 S
O447   Zn456   1.992   .     S
O448   Zn456   2.003   .     S
O449   Zn455   2.003   .     S
O450   Zn455   1.977   .     S
O451   Zn456   1.977   .     S
O452   Zn456   1.909   .     S
O453   Zn455   1.909   .     S
C457   O515    1.281   .     A
C457   O524    1.280   .     A
C457   C460    1.420   .     S
C458   C488    1.489   .     S
C458   C460    1.406   .     A
C458   C37     1.388   1_565 S
C459   C468    1.420   .     S
C459   C494    1.406   .     A
C459   C493    1.405   .     A
C460   C492    1.405   .     A
C461   N512    1.367   .     A
C461   H510    1.081   .     S
C461   C539    1.416   .     S
C462   N511    1.367   .     A
C462   H496    1.081   .     S
C462   C616    1.416   1_455 S
C463   N511    1.366   .     A
C463   H497    1.082   .     S
C463   C613    1.416   1_455 S
C464   N512    1.366   .     A
C464   H498    1.082   .     S
C464   C538    1.416   .     S
C465   O528    1.302   .     A
C465   O526    1.292   .     A
C465   C467    1.474   .     S
C466   O529    1.302   .     A
C466   O527    1.292   .     A
C466   C469    1.474   .     S
C467   C474    1.397   .     A
C467   C472    1.419   .     A
C468   O523    1.281   .     A
C468   O525    1.280   .     A
C469   C475    1.397   .     A
C469   C473    1.419   .     A
C470   C472    1.400   .     A
C470   C478    1.400   .     A
C470   H506    1.085   .     S
C471   H507    1.085   .     S
C471   C480    1.400   .     A
C471   C473    1.400   .     A
C472   C484    1.484   .     S
C473   C483    1.484   .     S
C474   C476    1.396   .     A
C474   H505    1.074   .     S
C475   C477    1.396   .     A
C475   H504    1.074   .     S
C476   C481    1.423   .     A
C476   C478    1.413   .     A
C477   C482    1.423   .     A
C477   C480    1.413   .     A
C478   C1174   1.387   .     S
C479   C482    1.418   .     A
C479   C490    1.384   .     A
C479   H508    1.076   .     S
C480   C1175   1.387   1_554 S
C481   C489    1.418   .     A
C481   C1166   1.421   .     S
C482   C1165   1.421   1_554 S
C483   O516    1.397   .     S
C483   O606    1.223   .     S
C484   O518    1.397   .     S
C484   O669    1.223   1_455 S
C485   C492    1.452   .     S
C485   N513    1.156   .     T
C486   C493    1.452   .     S
C486   N514    1.156   .     T
C487   O519    1.223   .     D
C487   O520    1.396   .     S
C487   C494    1.489   .     S
C488   O522    1.396   .     S
C488   O521    1.223   .     D
C489   H509    1.076   .     S
C489   C491    1.384   .     A
C490   H495    1.084   .     S
C490   C1162   1.387   1_554 S
C491   H503    1.084   .     S
C491   C1164   1.387   .     S
C492   C38     1.388   1_565 S
H499   O668    1.014   1_455 S
H500   O594    1.014   .     S
H501   O520    1.013   .     S
H502   O522    1.013   .     S
N511   Zn531   2.011   .     S
N512   Zn532   2.011   .     S
O515   Zn531   1.992   .     S
O516   H575    1.014   .     S
O517   C560    1.223   .     S
O518   H652    1.014   1_455 S
O523   Zn532   1.992   .     S
O524   Zn532   2.003   .     S
O525   Zn531   2.003   .     S
O526   Zn531   1.977   .     S
O527   Zn532   1.977   .     S
O528   Zn532   1.909   .     S
O529   Zn531   1.909   .     S
O530   C635    1.223   1_455 S
C533   O591    1.281   .     A
C533   O600    1.280   .     A
C533   C536    1.420   .     S
C534   C564    1.489   .     S
C534   C536    1.406   .     A
C534   C113    1.388   1_565 S
C535   C544    1.420   .     S
C535   C570    1.406   .     A
C535   C569    1.405   .     A
C536   C568    1.405   .     A
C537   N588    1.367   .     A
C537   H586    1.081   .     S
C537   C615    1.416   .     S
C538   N587    1.367   .     A
C538   H572    1.081   .     S
C539   N587    1.366   .     A
C539   H573    1.082   .     S
C540   N588    1.366   .     A
C540   H574    1.082   .     S
C540   C614    1.416   .     S
C541   O604    1.302   .     A
C541   O602    1.292   .     A
C541   C543    1.474   .     S
C542   O605    1.302   .     A
C542   O603    1.292   .     A
C542   C545    1.474   .     S
C543   C550    1.397   .     A
C543   C548    1.419   .     A
C544   O599    1.281   .     A
C544   O601    1.280   .     A
C545   C551    1.397   .     A
C545   C549    1.419   .     A
C546   C548    1.400   .     A
C546   C554    1.400   .     A
C546   H582    1.085   .     S
C547   H583    1.085   .     S
C547   C556    1.400   .     A
C547   C549    1.400   .     A
C548   C560    1.484   .     S
C549   C559    1.484   .     S
C550   C552    1.396   .     A
C550   H581    1.074   .     S
C551   C553    1.396   .     A
C551   H580    1.074   .     S
C552   C557    1.423   .     A
C552   C554    1.413   .     A
C553   C558    1.423   .     A
C553   C556    1.413   .     A
C554   C1250   1.387   .     S
C555   C558    1.418   .     A
C555   C566    1.384   .     A
C555   H584    1.076   .     S
C556   C1251   1.387   1_554 S
C557   C565    1.418   .     A
C557   C1242   1.421   .     S
C558   C1241   1.421   1_554 S
C559   O592    1.397   .     S
C559   O682    1.223   .     S
C560   O594    1.397   .     S
C561   C568    1.452   .     S
C561   N589    1.156   .     T
C562   C569    1.452   .     S
C562   N590    1.156   .     T
C563   O595    1.223   .     D
C563   O596    1.396   .     S
C563   C570    1.489   .     S
C564   O598    1.396   .     S
C564   O597    1.223   .     D
C565   H585    1.076   .     S
C565   C567    1.384   .     A
C566   H571    1.084   .     S
C566   C1238   1.387   1_554 S
C567   H579    1.084   .     S
C567   C1240   1.387   .     S
C568   C114    1.388   1_565 S
H576   O670    1.014   .     S
H577   O596    1.013   .     S
H578   O598    1.013   .     S
N587   Zn607   2.011   .     S
N588   Zn608   2.011   .     S
O591   Zn607   1.992   .     S
O592   H651    1.014   .     S
O593   C636    1.223   .     S
O599   Zn608   1.992   .     S
O600   Zn608   2.003   .     S
O601   Zn607   2.003   .     S
O602   Zn607   1.977   .     S
O603   Zn608   1.977   .     S
O604   Zn608   1.909   .     S
O605   Zn607   1.909   .     S
C609   O667    1.281   .     A
C609   O676    1.280   .     A
C609   C612    1.420   .     S
C610   C640    1.489   .     S
C610   C612    1.406   .     A
C610   C189    1.388   1_565 S
C611   C620    1.420   .     S
C611   C646    1.406   .     A
C611   C645    1.405   .     A
C612   C644    1.405   .     A
C613   N664    1.367   .     A
C613   H662    1.081   .     S
C613   C463    1.416   1_655 S
C614   N663    1.367   .     A
C614   H648    1.081   .     S
C615   N663    1.366   .     A
C615   H649    1.082   .     S
C616   N664    1.366   .     A
C616   H650    1.082   .     S
C616   C462    1.416   1_655 S
C617   O680    1.302   .     A
C617   O678    1.292   .     A
C617   C619    1.474   .     S
C618   O681    1.302   .     A
C618   O679    1.292   .     A
C618   C621    1.474   .     S
C619   C626    1.397   .     A
C619   C624    1.419   .     A
C620   O675    1.281   .     A
C620   O677    1.280   .     A
C621   C627    1.397   .     A
C621   C625    1.419   .     A
C622   C624    1.400   .     A
C622   C630    1.400   .     A
C622   H658    1.085   .     S
C623   H659    1.085   .     S
C623   C632    1.400   .     A
C623   C625    1.400   .     A
C624   C636    1.484   .     S
C625   C635    1.484   .     S
C626   C628    1.396   .     A
C626   H657    1.074   .     S
C627   C629    1.396   .     A
C627   H656    1.074   .     S
C628   C633    1.423   .     A
C628   C630    1.413   .     A
C629   C634    1.423   .     A
C629   C632    1.413   .     A
C630   C1326   1.387   .     S
C631   C634    1.418   .     A
C631   C642    1.384   .     A
C631   H660    1.076   .     S
C632   C1327   1.387   1_554 S
C633   C641    1.418   .     A
C633   C1318   1.421   .     S
C634   C1317   1.421   1_554 S
C635   O668    1.397   .     S
C635   O530    1.223   1_655 S
C636   O670    1.397   .     S
C637   C644    1.452   .     S
C637   N665    1.156   .     T
C638   C645    1.452   .     S
C638   N666    1.156   .     T
C639   O671    1.223   .     D
C639   O672    1.396   .     S
C639   C646    1.489   .     S
C640   O674    1.396   .     S
C640   O673    1.223   .     D
C641   H661    1.076   .     S
C641   C643    1.384   .     A
C642   H647    1.084   .     S
C642   C1314   1.387   1_554 S
C643   H655    1.084   .     S
C643   C1316   1.387   .     S
C644   C190    1.388   1_565 S
H652   O518    1.014   1_655 S
H653   O672    1.013   .     S
H654   O674    1.013   .     S
N663   Zn683   2.011   .     S
N664   Zn684   2.011   .     S
O667   Zn683   1.992   .     S
O668   H499    1.014   1_655 S
O669   C484    1.223   1_655 S
O675   Zn684   1.992   .     S
O676   Zn684   2.003   .     S
O677   Zn683   2.003   .     S
O678   Zn683   1.977   .     S
O679   Zn684   1.977   .     S
O680   Zn684   1.909   .     S
O681   Zn683   1.909   .     S
C685   O743    1.281   .     A
C685   O752    1.280   .     A
C685   C688    1.420   .     S
C686   C716    1.489   .     S
C686   C688    1.406   .     A
C686   C949    1.388   .     S
C687   C696    1.420   .     S
C687   C722    1.406   .     A
C687   C721    1.405   .     A
C688   C720    1.405   .     A
C689   N740    1.367   .     A
C689   H738    1.081   .     S
C689   C767    1.416   .     S
C690   N739    1.367   .     A
C690   H724    1.081   .     S
C690   C844    1.416   1_455 S
C691   N739    1.366   .     A
C691   H725    1.082   .     S
C691   C841    1.416   1_455 S
C692   N740    1.366   .     A
C692   H726    1.082   .     S
C692   C766    1.416   .     S
C693   O756    1.302   .     A
C693   O754    1.292   .     A
C693   C695    1.474   .     S
C694   O757    1.302   .     A
C694   O755    1.292   .     A
C694   C697    1.474   .     S
C695   C702    1.397   .     A
C695   C700    1.419   .     A
C696   O751    1.281   .     A
C696   O753    1.280   .     A
C697   C703    1.397   .     A
C697   C701    1.419   .     A
C698   C700    1.400   .     A
C698   C706    1.400   .     A
C698   H734    1.085   .     S
C699   H735    1.085   .     S
C699   C708    1.400   .     A
C699   C701    1.400   .     A
C700   C712    1.484   .     S
C701   C711    1.484   .     S
C702   C704    1.396   .     A
C702   H733    1.074   .     S
C703   C705    1.396   .     A
C703   H732    1.074   .     S
C704   C709    1.423   .     A
C704   C706    1.413   .     A
C705   C710    1.423   .     A
C705   C708    1.413   .     A
C706   C34     1.387   1_556 S
C707   C710    1.418   .     A
C707   C718    1.384   .     A
C707   H736    1.076   .     S
C709   C717    1.418   .     A
C709   C26     1.421   1_556 S
C711   O744    1.397   .     S
C711   O834    1.223   .     S
C712   O746    1.397   .     S
C712   O897    1.223   1_455 S
C713   C720    1.452   .     S
C713   N741    1.156   .     T
C714   C721    1.452   .     S
C714   N742    1.156   .     T
C715   O747    1.223   .     D
C715   O748    1.396   .     S
C715   C722    1.489   .     S
C716   O750    1.396   .     S
C716   O749    1.223   .     D
C717   H737    1.076   .     S
C717   C719    1.384   .     A
C718   H723    1.084   .     S
C719   H731    1.084   .     S
C719   C24     1.387   1_556 S
C720   C950    1.388   .     S
C721   C1142   1.388   1_545 S
C722   C1176   1.388   1_545 S
H727   O896    1.014   1_455 S
H728   O822    1.014   .     S
H729   O748    1.013   .     S
H730   O750    1.013   .     S
N739   Zn759   2.011   .     S
N740   Zn760   2.011   .     S
O743   Zn759   1.992   .     S
O744   H803    1.014   .     S
O745   C788    1.223   .     S
O746   H880    1.014   1_455 S
O751   Zn760   1.992   .     S
O752   Zn760   2.003   .     S
O753   Zn759   2.003   .     S
O754   Zn759   1.977   .     S
O755   Zn760   1.977   .     S
O756   Zn760   1.909   .     S
O757   Zn759   1.909   .     S
O758   C863    1.223   1_455 S
C761   O819    1.281   .     A
C761   O828    1.280   .     A
C761   C764    1.420   .     S
C762   C792    1.489   .     S
C762   C764    1.406   .     A
C762   C1025   1.388   .     S
C763   C772    1.420   .     S
C763   C798    1.406   .     A
C763   C797    1.405   .     A
C764   C796    1.405   .     A
C765   N816    1.367   .     A
C765   H814    1.081   .     S
C765   C843    1.416   .     S
C766   N815    1.367   .     A
C766   H800    1.081   .     S
C767   N815    1.366   .     A
C767   H801    1.082   .     S
C768   N816    1.366   .     A
C768   H802    1.082   .     S
C768   C842    1.416   .     S
C769   O832    1.302   .     A
C769   O830    1.292   .     A
C769   C771    1.474   .     S
C770   O833    1.302   .     A
C770   O831    1.292   .     A
C770   C773    1.474   .     S
C771   C778    1.397   .     A
C771   C776    1.419   .     A
C772   O827    1.281   .     A
C772   O829    1.280   .     A
C773   C779    1.397   .     A
C773   C777    1.419   .     A
C774   C776    1.400   .     A
C774   C782    1.400   .     A
C774   H810    1.085   .     S
C775   H811    1.085   .     S
C775   C784    1.400   .     A
C775   C777    1.400   .     A
C776   C788    1.484   .     S
C777   C787    1.484   .     S
C778   C780    1.396   .     A
C778   H809    1.074   .     S
C779   C781    1.396   .     A
C779   H808    1.074   .     S
C780   C785    1.423   .     A
C780   C782    1.413   .     A
C781   C786    1.423   .     A
C781   C784    1.413   .     A
C782   C110    1.387   1_556 S
C783   C786    1.418   .     A
C783   C794    1.384   .     A
C783   H812    1.076   .     S
C785   C793    1.418   .     A
C785   C102    1.421   1_556 S
C787   O820    1.397   .     S
C787   O910    1.223   .     S
C788   O822    1.397   .     S
C789   C796    1.452   .     S
C789   N817    1.156   .     T
C790   C797    1.452   .     S
C790   N818    1.156   .     T
C791   O823    1.223   .     D
C791   O824    1.396   .     S
C791   C798    1.489   .     S
C792   O826    1.396   .     S
C792   O825    1.223   .     D
C793   H813    1.076   .     S
C793   C795    1.384   .     A
C794   H799    1.084   .     S
C795   H807    1.084   .     S
C795   C100    1.387   1_556 S
C796   C1026   1.388   .     S
C797   C1218   1.388   1_545 S
C798   C1252   1.388   1_545 S
H804   O898    1.014   .     S
H805   O824    1.013   .     S
H806   O826    1.013   .     S
N815   Zn835   2.011   .     S
N816   Zn836   2.011   .     S
O819   Zn835   1.992   .     S
O820   H879    1.014   .     S
O821   C864    1.223   .     S
O827   Zn836   1.992   .     S
O828   Zn836   2.003   .     S
O829   Zn835   2.003   .     S
O830   Zn835   1.977   .     S
O831   Zn836   1.977   .     S
O832   Zn836   1.909   .     S
O833   Zn835   1.909   .     S
C837   O895    1.281   .     A
C837   O904    1.280   .     A
C837   C840    1.420   .     S
C838   C868    1.489   .     S
C838   C840    1.406   .     A
C838   C1101   1.388   .     S
C839   C848    1.420   .     S
C839   C874    1.406   .     A
C839   C873    1.405   .     A
C840   C872    1.405   .     A
C841   N892    1.367   .     A
C841   H890    1.081   .     S
C841   C691    1.416   1_655 S
C842   N891    1.367   .     A
C842   H876    1.081   .     S
C843   N891    1.366   .     A
C843   H877    1.082   .     S
C844   N892    1.366   .     A
C844   H878    1.082   .     S
C844   C690    1.416   1_655 S
C845   O908    1.302   .     A
C845   O906    1.292   .     A
C845   C847    1.474   .     S
C846   O909    1.302   .     A
C846   O907    1.292   .     A
C846   C849    1.474   .     S
C847   C854    1.397   .     A
C847   C852    1.419   .     A
C848   O903    1.281   .     A
C848   O905    1.280   .     A
C849   C855    1.397   .     A
C849   C853    1.419   .     A
C850   C852    1.400   .     A
C850   C858    1.400   .     A
C850   H886    1.085   .     S
C851   H887    1.085   .     S
C851   C860    1.400   .     A
C851   C853    1.400   .     A
C852   C864    1.484   .     S
C853   C863    1.484   .     S
C854   C856    1.396   .     A
C854   H885    1.074   .     S
C855   C857    1.396   .     A
C855   H884    1.074   .     S
C856   C861    1.423   .     A
C856   C858    1.413   .     A
C857   C862    1.423   .     A
C857   C860    1.413   .     A
C858   C186    1.387   1_556 S
C859   C862    1.418   .     A
C859   C870    1.384   .     A
C859   H888    1.076   .     S
C861   C869    1.418   .     A
C861   C178    1.421   1_556 S
C863   O896    1.397   .     S
C863   O758    1.223   1_655 S
C864   O898    1.397   .     S
C865   C872    1.452   .     S
C865   N893    1.156   .     T
C866   C873    1.452   .     S
C866   N894    1.156   .     T
C867   O899    1.223   .     D
C867   O900    1.396   .     S
C867   C874    1.489   .     S
C868   O902    1.396   .     S
C868   O901    1.223   .     D
C869   H889    1.076   .     S
C869   C871    1.384   .     A
C870   H875    1.084   .     S
C871   H883    1.084   .     S
C871   C176    1.387   1_556 S
C872   C1102   1.388   .     S
C873   C1294   1.388   1_545 S
C874   C1328   1.388   1_545 S
H880   O746    1.014   1_655 S
H881   O900    1.013   .     S
H882   O902    1.013   .     S
N891   Zn911   2.011   .     S
N892   Zn912   2.011   .     S
O895   Zn911   1.992   .     S
O896   H727    1.014   1_655 S
O897   C712    1.223   1_655 S
O903   Zn912   1.992   .     S
O904   Zn912   2.003   .     S
O905   Zn911   2.003   .     S
O906   Zn911   1.977   .     S
O907   Zn912   1.977   .     S
O908   Zn912   1.909   .     S
O909   Zn911   1.909   .     S
C913   O971    1.281   .     A
C913   O980    1.280   .     A
C913   C916    1.420   .     S
C914   C944    1.489   .     S
C914   C916    1.406   .     A
C914   C1177   1.388   .     S
C915   C924    1.420   .     S
C915   C950    1.406   .     A
C915   C949    1.405   .     A
C916   C948    1.405   .     A
C917   N968    1.367   .     A
C917   H966    1.081   .     S
C917   C995    1.416   .     S
C918   N967    1.367   .     A
C918   H952    1.081   .     S
C918   C1072   1.416   1_455 S
C919   N967    1.366   .     A
C919   H953    1.082   .     S
C919   C1069   1.416   1_455 S
C920   N968    1.366   .     A
C920   H954    1.082   .     S
C920   C994    1.416   .     S
C921   O984    1.302   .     A
C921   O982    1.292   .     A
C921   C923    1.474   .     S
C922   O985    1.302   .     A
C922   O983    1.292   .     A
C922   C925    1.474   .     S
C923   C930    1.397   .     A
C923   C928    1.419   .     A
C924   O979    1.281   .     A
C924   O981    1.280   .     A
C925   C931    1.397   .     A
C925   C929    1.419   .     A
C926   C928    1.400   .     A
C926   C934    1.400   .     A
C926   H962    1.085   .     S
C927   H963    1.085   .     S
C927   C936    1.400   .     A
C927   C929    1.400   .     A
C928   C940    1.484   .     S
C929   C939    1.484   .     S
C930   C932    1.396   .     A
C930   H961    1.074   .     S
C931   C933    1.396   .     A
C931   H960    1.074   .     S
C932   C937    1.423   .     A
C932   C934    1.413   .     A
C933   C938    1.423   .     A
C933   C936    1.413   .     A
C934   C262    1.387   1_556 S
C935   C938    1.418   .     A
C935   C946    1.384   .     A
C935   H964    1.076   .     S
C937   C945    1.418   .     A
C937   C254    1.421   1_556 S
C939   O972    1.397   .     S
C939   O1062   1.223   .     S
C940   O974    1.397   .     S
C940   O1125   1.223   1_455 S
C941   C948    1.452   .     S
C941   N969    1.156   .     T
C942   C949    1.452   .     S
C942   N970    1.156   .     T
C943   O975    1.223   .     D
C943   O976    1.396   .     S
C943   C950    1.489   .     S
C944   O978    1.396   .     S
C944   O977    1.223   .     D
C945   H965    1.076   .     S
C945   C947    1.384   .     A
C946   H951    1.084   .     S
C947   H959    1.084   .     S
C947   C252    1.387   1_556 S
C948   C1178   1.388   .     S
H955   O1124   1.014   1_455 S
H956   O1050   1.014   .     S
H957   O976    1.013   .     S
H958   O978    1.013   .     S
N967   Zn987   2.011   .     S
N968   Zn988   2.011   .     S
O971   Zn987   1.992   .     S
O972   H1031   1.014   .     S
O973   C1016   1.223   .     S
O974   H1108   1.014   1_455 S
O979   Zn988   1.992   .     S
O980   Zn988   2.003   .     S
O981   Zn987   2.003   .     S
O982   Zn987   1.977   .     S
O983   Zn988   1.977   .     S
O984   Zn988   1.909   .     S
O985   Zn987   1.909   .     S
O986   C1091   1.223   1_455 S
C989   O1047   1.281   .     A
C989   O1056   1.280   .     A
C989   C992    1.420   .     S
C990   C1020   1.489   .     S
C990   C992    1.406   .     A
C990   C1253   1.388   .     S
C991   C1000   1.420   .     S
C991   C1026   1.406   .     A
C991   C1025   1.405   .     A
C992   C1024   1.405   .     A
C993   N1044   1.367   .     A
C993   H1042   1.081   .     S
C993   C1071   1.416   .     S
C994   N1043   1.367   .     A
C994   H1028   1.081   .     S
C995   N1043   1.366   .     A
C995   H1029   1.082   .     S
C996   N1044   1.366   .     A
C996   H1030   1.082   .     S
C996   C1070   1.416   .     S
C997   O1060   1.302   .     A
C997   O1058   1.292   .     A
C997   C999    1.474   .     S
C998   O1061   1.302   .     A
C998   O1059   1.292   .     A
C998   C1001   1.474   .     S
C999   C1006   1.397   .     A
C999   C1004   1.419   .     A
C1000  O1055   1.281   .     A
C1000  O1057   1.280   .     A
C1001  C1007   1.397   .     A
C1001  C1005   1.419   .     A
C1002  C1004   1.400   .     A
C1002  C1010   1.400   .     A
C1002  H1038   1.085   .     S
C1003  H1039   1.085   .     S
C1003  C1012   1.400   .     A
C1003  C1005   1.400   .     A
C1004  C1016   1.484   .     S
C1005  C1015   1.484   .     S
C1006  C1008   1.396   .     A
C1006  H1037   1.074   .     S
C1007  C1009   1.396   .     A
C1007  H1036   1.074   .     S
C1008  C1013   1.423   .     A
C1008  C1010   1.413   .     A
C1009  C1014   1.423   .     A
C1009  C1012   1.413   .     A
C1010  C338    1.387   1_556 S
C1011  C1014   1.418   .     A
C1011  C1022   1.384   .     A
C1011  H1040   1.076   .     S
C1013  C1021   1.418   .     A
C1013  C330    1.421   1_556 S
C1015  O1048   1.397   .     S
C1015  O1138   1.223   .     S
C1016  O1050   1.397   .     S
C1017  C1024   1.452   .     S
C1017  N1045   1.156   .     T
C1018  C1025   1.452   .     S
C1018  N1046   1.156   .     T
C1019  O1051   1.223   .     D
C1019  O1052   1.396   .     S
C1019  C1026   1.489   .     S
C1020  O1054   1.396   .     S
C1020  O1053   1.223   .     D
C1021  H1041   1.076   .     S
C1021  C1023   1.384   .     A
C1022  H1027   1.084   .     S
C1023  H1035   1.084   .     S
C1023  C328    1.387   1_556 S
C1024  C1254   1.388   .     S
H1032  O1126   1.014   .     S
H1033  O1052   1.013   .     S
H1034  O1054   1.013   .     S
N1043  Zn1063  2.011   .     S
N1044  Zn1064  2.011   .     S
O1047  Zn1063  1.992   .     S
O1048  H1107   1.014   .     S
O1049  C1092   1.223   .     S
O1055  Zn1064  1.992   .     S
O1056  Zn1064  2.003   .     S
O1057  Zn1063  2.003   .     S
O1058  Zn1063  1.977   .     S
O1059  Zn1064  1.977   .     S
O1060  Zn1064  1.909   .     S
O1061  Zn1063  1.909   .     S
C1065  O1123   1.281   .     A
C1065  O1132   1.280   .     A
C1065  C1068   1.420   .     S
C1066  C1096   1.489   .     S
C1066  C1068   1.406   .     A
C1066  C1329   1.388   .     S
C1067  C1076   1.420   .     S
C1067  C1102   1.406   .     A
C1067  C1101   1.405   .     A
C1068  C1100   1.405   .     A
C1069  N1120   1.367   .     A
C1069  H1118   1.081   .     S
C1069  C919    1.416   1_655 S
C1070  N1119   1.367   .     A
C1070  H1104   1.081   .     S
C1071  N1119   1.366   .     A
C1071  H1105   1.082   .     S
C1072  N1120   1.366   .     A
C1072  H1106   1.082   .     S
C1072  C918    1.416   1_655 S
C1073  O1136   1.302   .     A
C1073  O1134   1.292   .     A
C1073  C1075   1.474   .     S
C1074  O1137   1.302   .     A
C1074  O1135   1.292   .     A
C1074  C1077   1.474   .     S
C1075  C1082   1.397   .     A
C1075  C1080   1.419   .     A
C1076  O1131   1.281   .     A
C1076  O1133   1.280   .     A
C1077  C1083   1.397   .     A
C1077  C1081   1.419   .     A
C1078  C1080   1.400   .     A
C1078  C1086   1.400   .     A
C1078  H1114   1.085   .     S
C1079  H1115   1.085   .     S
C1079  C1088   1.400   .     A
C1079  C1081   1.400   .     A
C1080  C1092   1.484   .     S
C1081  C1091   1.484   .     S
C1082  C1084   1.396   .     A
C1082  H1113   1.074   .     S
C1083  C1085   1.396   .     A
C1083  H1112   1.074   .     S
C1084  C1089   1.423   .     A
C1084  C1086   1.413   .     A
C1085  C1090   1.423   .     A
C1085  C1088   1.413   .     A
C1086  C414    1.387   1_556 S
C1087  C1090   1.418   .     A
C1087  C1098   1.384   .     A
C1087  H1116   1.076   .     S
C1089  C1097   1.418   .     A
C1089  C406    1.421   1_556 S
C1091  O1124   1.397   .     S
C1091  O986    1.223   1_655 S
C1092  O1126   1.397   .     S
C1093  C1100   1.452   .     S
C1093  N1121   1.156   .     T
C1094  C1101   1.452   .     S
C1094  N1122   1.156   .     T
C1095  O1127   1.223   .     D
C1095  O1128   1.396   .     S
C1095  C1102   1.489   .     S
C1096  O1130   1.396   .     S
C1096  O1129   1.223   .     D
C1097  H1117   1.076   .     S
C1097  C1099   1.384   .     A
C1098  H1103   1.084   .     S
C1099  H1111   1.084   .     S
C1099  C404    1.387   1_556 S
C1100  C1330   1.388   .     S
H1108  O974    1.014   1_655 S
H1109  O1128   1.013   .     S
H1110  O1130   1.013   .     S
N1119  Zn1139  2.011   .     S
N1120  Zn1140  2.011   .     S
O1123  Zn1139  1.992   .     S
O1124  H955    1.014   1_655 S
O1125  C940    1.223   1_655 S
O1131  Zn1140  1.992   .     S
O1132  Zn1140  2.003   .     S
O1133  Zn1139  2.003   .     S
O1134  Zn1139  1.977   .     S
O1135  Zn1140  1.977   .     S
O1136  Zn1140  1.909   .     S
O1137  Zn1139  1.909   .     S
C1141  O1199   1.281   .     A
C1141  O1208   1.280   .     A
C1141  C1144   1.420   .     S
C1142  C1172   1.489   .     S
C1142  C1144   1.406   .     A
C1142  C721    1.388   1_565 S
C1143  C1152   1.420   .     S
C1143  C1178   1.406   .     A
C1143  C1177   1.405   .     A
C1144  C1176   1.405   .     A
C1145  N1196   1.367   .     A
C1145  H1194   1.081   .     S
C1145  C1223   1.416   .     S
C1146  N1195   1.367   .     A
C1146  H1180   1.081   .     S
C1146  C1300   1.416   1_455 S
C1147  N1195   1.366   .     A
C1147  H1181   1.082   .     S
C1147  C1297   1.416   1_455 S
C1148  N1196   1.366   .     A
C1148  H1182   1.082   .     S
C1148  C1222   1.416   .     S
C1149  O1212   1.302   .     A
C1149  O1210   1.292   .     A
C1149  C1151   1.474   .     S
C1150  O1213   1.302   .     A
C1150  O1211   1.292   .     A
C1150  C1153   1.474   .     S
C1151  C1158   1.397   .     A
C1151  C1156   1.419   .     A
C1152  O1207   1.281   .     A
C1152  O1209   1.280   .     A
C1153  C1159   1.397   .     A
C1153  C1157   1.419   .     A
C1154  C1156   1.400   .     A
C1154  C1162   1.400   .     A
C1154  H1190   1.085   .     S
C1155  H1191   1.085   .     S
C1155  C1164   1.400   .     A
C1155  C1157   1.400   .     A
C1156  C1168   1.484   .     S
C1157  C1167   1.484   .     S
C1158  C1160   1.396   .     A
C1158  H1189   1.074   .     S
C1159  C1161   1.396   .     A
C1159  H1188   1.074   .     S
C1160  C1165   1.423   .     A
C1160  C1162   1.413   .     A
C1161  C1166   1.423   .     A
C1161  C1164   1.413   .     A
C1162  C490    1.387   1_556 S
C1163  C1166   1.418   .     A
C1163  C1174   1.384   .     A
C1163  H1192   1.076   .     S
C1165  C1173   1.418   .     A
C1165  C482    1.421   1_556 S
C1167  O1200   1.397   .     S
C1167  O1290   1.223   .     S
C1168  O1202   1.397   .     S
C1168  O1353   1.223   1_455 S
C1169  C1176   1.452   .     S
C1169  N1197   1.156   .     T
C1170  C1177   1.452   .     S
C1170  N1198   1.156   .     T
C1171  O1203   1.223   .     D
C1171  O1204   1.396   .     S
C1171  C1178   1.489   .     S
C1172  O1206   1.396   .     S
C1172  O1205   1.223   .     D
C1173  H1193   1.076   .     S
C1173  C1175   1.384   .     A
C1174  H1179   1.084   .     S
C1175  H1187   1.084   .     S
C1175  C480    1.387   1_556 S
C1176  C722    1.388   1_565 S
H1183  O1352   1.014   1_455 S
H1184  O1278   1.014   .     S
H1185  O1204   1.013   .     S
H1186  O1206   1.013   .     S
N1195  Zn1215  2.011   .     S
N1196  Zn1216  2.011   .     S
O1199  Zn1215  1.992   .     S
O1200  H1259   1.014   .     S
O1201  C1244   1.223   .     S
O1202  H1336   1.014   1_455 S
O1207  Zn1216  1.992   .     S
O1208  Zn1216  2.003   .     S
O1209  Zn1215  2.003   .     S
O1210  Zn1215  1.977   .     S
O1211  Zn1216  1.977   .     S
O1212  Zn1216  1.909   .     S
O1213  Zn1215  1.909   .     S
O1214  C1319   1.223   1_455 S
C1217  O1275   1.281   .     A
C1217  O1284   1.280   .     A
C1217  C1220   1.420   .     S
C1218  C1248   1.489   .     S
C1218  C1220   1.406   .     A
C1218  C797    1.388   1_565 S
C1219  C1228   1.420   .     S
C1219  C1254   1.406   .     A
C1219  C1253   1.405   .     A
C1220  C1252   1.405   .     A
C1221  N1272   1.367   .     A
C1221  H1270   1.081   .     S
C1221  C1299   1.416   .     S
C1222  N1271   1.367   .     A
C1222  H1256   1.081   .     S
C1223  N1271   1.366   .     A
C1223  H1257   1.082   .     S
C1224  N1272   1.366   .     A
C1224  H1258   1.082   .     S
C1224  C1298   1.416   .     S
C1225  O1288   1.302   .     A
C1225  O1286   1.292   .     A
C1225  C1227   1.474   .     S
C1226  O1289   1.302   .     A
C1226  O1287   1.292   .     A
C1226  C1229   1.474   .     S
C1227  C1234   1.397   .     A
C1227  C1232   1.419   .     A
C1228  O1283   1.281   .     A
C1228  O1285   1.280   .     A
C1229  C1235   1.397   .     A
C1229  C1233   1.419   .     A
C1230  C1232   1.400   .     A
C1230  C1238   1.400   .     A
C1230  H1266   1.085   .     S
C1231  H1267   1.085   .     S
C1231  C1240   1.400   .     A
C1231  C1233   1.400   .     A
C1232  C1244   1.484   .     S
C1233  C1243   1.484   .     S
C1234  C1236   1.396   .     A
C1234  H1265   1.074   .     S
C1235  C1237   1.396   .     A
C1235  H1264   1.074   .     S
C1236  C1241   1.423   .     A
C1236  C1238   1.413   .     A
C1237  C1242   1.423   .     A
C1237  C1240   1.413   .     A
C1238  C566    1.387   1_556 S
C1239  C1242   1.418   .     A
C1239  C1250   1.384   .     A
C1239  H1268   1.076   .     S
C1241  C1249   1.418   .     A
C1241  C558    1.421   1_556 S
C1243  O1276   1.397   .     S
C1243  O1366   1.223   .     S
C1244  O1278   1.397   .     S
C1245  C1252   1.452   .     S
C1245  N1273   1.156   .     T
C1246  C1253   1.452   .     S
C1246  N1274   1.156   .     T
C1247  O1279   1.223   .     D
C1247  O1280   1.396   .     S
C1247  C1254   1.489   .     S
C1248  O1282   1.396   .     S
C1248  O1281   1.223   .     D
C1249  H1269   1.076   .     S
C1249  C1251   1.384   .     A
C1250  H1255   1.084   .     S
C1251  H1263   1.084   .     S
C1251  C556    1.387   1_556 S
C1252  C798    1.388   1_565 S
H1260  O1354   1.014   .     S
H1261  O1280   1.013   .     S
H1262  O1282   1.013   .     S
N1271  Zn1291  2.011   .     S
N1272  Zn1292  2.011   .     S
O1275  Zn1291  1.992   .     S
O1276  H1335   1.014   .     S
O1277  C1320   1.223   .     S
O1283  Zn1292  1.992   .     S
O1284  Zn1292  2.003   .     S
O1285  Zn1291  2.003   .     S
O1286  Zn1291  1.977   .     S
O1287  Zn1292  1.977   .     S
O1288  Zn1292  1.909   .     S
O1289  Zn1291  1.909   .     S
C1293  O1351   1.281   .     A
C1293  O1360   1.280   .     A
C1293  C1296   1.420   .     S
C1294  C1324   1.489   .     S
C1294  C1296   1.406   .     A
C1294  C873    1.388   1_565 S
C1295  C1304   1.420   .     S
C1295  C1330   1.406   .     A
C1295  C1329   1.405   .     A
C1296  C1328   1.405   .     A
C1297  N1348   1.367   .     A
C1297  H1346   1.081   .     S
C1297  C1147   1.416   1_655 S
C1298  N1347   1.367   .     A
C1298  H1332   1.081   .     S
C1299  N1347   1.366   .     A
C1299  H1333   1.082   .     S
C1300  N1348   1.366   .     A
C1300  H1334   1.082   .     S
C1300  C1146   1.416   1_655 S
C1301  O1364   1.302   .     A
C1301  O1362   1.292   .     A
C1301  C1303   1.474   .     S
C1302  O1365   1.302   .     A
C1302  O1363   1.292   .     A
C1302  C1305   1.474   .     S
C1303  C1310   1.397   .     A
C1303  C1308   1.419   .     A
C1304  O1359   1.281   .     A
C1304  O1361   1.280   .     A
C1305  C1311   1.397   .     A
C1305  C1309   1.419   .     A
C1306  C1308   1.400   .     A
C1306  C1314   1.400   .     A
C1306  H1342   1.085   .     S
C1307  H1343   1.085   .     S
C1307  C1316   1.400   .     A
C1307  C1309   1.400   .     A
C1308  C1320   1.484   .     S
C1309  C1319   1.484   .     S
C1310  C1312   1.396   .     A
C1310  H1341   1.074   .     S
C1311  C1313   1.396   .     A
C1311  H1340   1.074   .     S
C1312  C1317   1.423   .     A
C1312  C1314   1.413   .     A
C1313  C1318   1.423   .     A
C1313  C1316   1.413   .     A
C1314  C642    1.387   1_556 S
C1315  C1318   1.418   .     A
C1315  C1326   1.384   .     A
C1315  H1344   1.076   .     S
C1317  C1325   1.418   .     A
C1317  C634    1.421   1_556 S
C1319  O1352   1.397   .     S
C1319  O1214   1.223   1_655 S
C1320  O1354   1.397   .     S
C1321  C1328   1.452   .     S
C1321  N1349   1.156   .     T
C1322  C1329   1.452   .     S
C1322  N1350   1.156   .     T
C1323  O1355   1.223   .     D
C1323  O1356   1.396   .     S
C1323  C1330   1.489   .     S
C1324  O1358   1.396   .     S
C1324  O1357   1.223   .     D
C1325  H1345   1.076   .     S
C1325  C1327   1.384   .     A
C1326  H1331   1.084   .     S
C1327  H1339   1.084   .     S
C1327  C632    1.387   1_556 S
C1328  C874    1.388   1_565 S
H1336  O1202   1.014   1_655 S
H1337  O1356   1.013   .     S
H1338  O1358   1.013   .     S
N1347  Zn1367  2.011   .     S
N1348  Zn1368  2.011   .     S
O1351  Zn1367  1.992   .     S
O1352  H1183   1.014   1_655 S
O1353  C1168   1.223   1_655 S
O1359  Zn1368  1.992   .     S
O1360  Zn1368  2.003   .     S
O1361  Zn1367  2.003   .     S
O1362  Zn1367  1.977   .     S
O1363  Zn1368  1.977   .     S
O1364  Zn1368  1.909   .     S
O1365  Zn1367  1.909   .     S
