data_str_m3_o1_o18_pcu_sym.78
_audit_creation_date              2020-01-03
_audit_creation_method            'Materials Studio'
_symmetry_space_group_name_H-M    'P1'
_symmetry_Int_Tables_number       1
_symmetry_cell_setting            triclinic
loop_
_symmetry_equiv_pos_as_xyz
  x,y,z
_cell_length_a                    30.2383
_cell_length_b                    31.8332
_cell_length_c                    31.4220
_cell_angle_alpha                 93.6504
_cell_angle_beta                  70.9899
_cell_angle_gamma                 91.4767
loop_
_atom_site_label
_atom_site_type_symbol
_atom_site_fract_x
_atom_site_fract_y
_atom_site_fract_z
_atom_site_U_iso_or_equiv
_atom_site_adp_type
_atom_site_occupancy
C1     C     0.16979   0.24542   0.24263   0.00000  Uiso   1.00
C2     C     0.13708   0.30900   0.22576   0.00000  Uiso   1.00
C3     C     0.16364   0.04075   0.25351   0.00000  Uiso   1.00
C4     C     0.17511   0.28899   0.23139   0.00000  Uiso   1.00
C5     C     0.31845   0.13919   0.22205   0.00000  Uiso   1.00
C6     C     0.01501   0.19440   0.27798   0.00000  Uiso   1.00
C7     C     0.03288   0.14026   0.22094   0.00000  Uiso   1.00
C8     C     0.30090   0.19479   0.27755   0.00000  Uiso   1.00
C9     C     0.13781   0.16447   0.33689   0.00000  Uiso   1.00
C10    C     0.19552   0.16645   0.16296   0.00000  Uiso   1.00
C11    C     0.12323   0.15402   0.38449   0.00000  Uiso   1.00
C12    C     0.16499   0.08644   0.25294   0.00000  Uiso   1.00
C13    C     0.21187   0.16707   0.11386   0.00000  Uiso   1.00
C14    C     0.07918   0.11161   0.44671   0.00000  Uiso   1.00
C15    C     0.27304   0.18369   0.04892   0.00000  Uiso   1.00
C16    C     0.08720   0.12457   0.40281   0.00000  Uiso   1.00
C17    C     0.25901   0.16256   0.08906   0.00000  Uiso   1.00
C18    C     0.15302   0.16700   0.40882   0.00000  Uiso   1.00
C19    C     0.18066   0.16358   0.08940   0.00000  Uiso   1.00
C20    C     0.14962   0.14956   0.44935   0.00000  Uiso   1.00
C21    C     0.19884   0.16187   0.04204   0.00000  Uiso   1.00
C22    C     0.10874   0.12632   0.47087   0.00000  Uiso   1.00
C23    C     0.13569   0.11824   0.03300   0.00000  Uiso   1.00
C24    C     0.24461   0.17704   0.02121   0.00000  Uiso   1.00
C25    C     0.18397   0.15692   0.47094   0.00000  Uiso   1.00
C26    C     0.17199   0.14683   0.01608   0.00000  Uiso   1.00
C27    C     0.23122   0.16835   0.44864   0.00000  Uiso   1.00
C28    C     0.09969   0.11632   0.01553   0.00000  Uiso   1.00
C29    C     0.26090   0.18067   0.47413   0.00000  Uiso   1.00
C30    C     0.21183   0.31244   0.23891   0.00000  Uiso   1.00
C31    C     0.12854   0.01728   0.24142   0.00000  Uiso   1.00
C32    C     0.20360   0.02031   0.25573   0.00000  Uiso   1.00
H33    H     0.14350   0.16036   0.10631   0.00000  Uiso   1.00
H34    H     0.17993   0.19010   0.39526   0.00000  Uiso   1.00
I35    I     0.04507   0.14975   0.06289   0.00000  Uiso   1.00
I36    I     0.05668   0.03483   0.26163   0.00000  Uiso   1.00
I37    I     0.24411   0.04499   0.29647   0.00000  Uiso   1.00
I38    I     0.09714   0.27796   0.18731   0.00000  Uiso   1.00
I39    I     0.29844   0.09297   0.18021   0.00000  Uiso   1.00
I40    I     0.03535   0.23892   0.32184   0.00000  Uiso   1.00
I41    I     0.08242   0.10253   0.17060   0.00000  Uiso   1.00
I42    I     0.25296   0.23965   0.32139   0.00000  Uiso   1.00
I43    I     0.33115   0.19993   0.44121   0.00000  Uiso   1.00
I44    I     0.26866   0.09600   0.07812   0.00000  Uiso   1.00
I45    I     0.04717   0.09611   0.36447   0.00000  Uiso   1.00
I46    I     0.03069   0.06187   0.47274   0.00000  Uiso   1.00
I47    I     0.29950   0.24536   0.05572   0.00000  Uiso   1.00
I48    I     0.15088   0.06107   0.05618   0.00000  Uiso   1.00
I49    I     0.26345   0.14417   0.38086   0.00000  Uiso   1.00
I50    I     0.28255   0.29116   0.21102   0.00000  Uiso   1.00
N51    N     0.04759   0.16668   0.25001   0.00000  Uiso   1.00
N52    N     0.28574   0.16666   0.24999   0.00000  Uiso   1.00
O53    O     0.12846   0.22775   0.25001   0.00000  Uiso   1.00
O54    O     0.20488   0.10558   0.25000   0.00000  Uiso   1.00
O55    O     0.20490   0.22774   0.25000   0.00000  Uiso   1.00
O56    O     0.12843   0.10559   0.25000   0.00000  Uiso   1.00
O57    O     0.10661   0.16667   0.31613   0.00000  Uiso   1.00
O58    O     0.22672   0.16666   0.18388   0.00000  Uiso   1.00
O59    O     0.18305   0.16666   0.31612   0.00000  Uiso   1.00
O60    O     0.15028   0.16667   0.18388   0.00000  Uiso   1.00
Zn61   Zn    0.11562   0.16667   0.25000   0.00000  Uiso   1.00
Zn62   Zn    0.21771   0.16666   0.25000   0.00000  Uiso   1.00
C63    C     0.50313   0.24542   0.24263   0.00000  Uiso   1.00
C64    C     0.47041   0.30900   0.22576   0.00000  Uiso   1.00
C65    C     0.49698   0.04075   0.25351   0.00000  Uiso   1.00
C66    C     0.50845   0.28899   0.23139   0.00000  Uiso   1.00
C67    C     0.65178   0.13919   0.22205   0.00000  Uiso   1.00
C68    C     0.34835   0.19440   0.27798   0.00000  Uiso   1.00
C69    C     0.36621   0.14026   0.22094   0.00000  Uiso   1.00
C70    C     0.63424   0.19479   0.27755   0.00000  Uiso   1.00
C71    C     0.47115   0.16447   0.33689   0.00000  Uiso   1.00
C72    C     0.52886   0.16645   0.16296   0.00000  Uiso   1.00
C73    C     0.45657   0.15402   0.38449   0.00000  Uiso   1.00
C74    C     0.49832   0.08644   0.25294   0.00000  Uiso   1.00
C75    C     0.54521   0.16707   0.11386   0.00000  Uiso   1.00
C76    C     0.41251   0.11161   0.44671   0.00000  Uiso   1.00
C77    C     0.60637   0.18369   0.04892   0.00000  Uiso   1.00
C78    C     0.42053   0.12457   0.40281   0.00000  Uiso   1.00
C79    C     0.59234   0.16256   0.08906   0.00000  Uiso   1.00
C80    C     0.48635   0.16700   0.40882   0.00000  Uiso   1.00
C81    C     0.51399   0.16358   0.08940   0.00000  Uiso   1.00
C82    C     0.48295   0.14956   0.44935   0.00000  Uiso   1.00
C83    C     0.53218   0.16187   0.04204   0.00000  Uiso   1.00
C84    C     0.44207   0.12632   0.47087   0.00000  Uiso   1.00
C85    C     0.46903   0.11824   0.03300   0.00000  Uiso   1.00
C86    C     0.57794   0.17704   0.02121   0.00000  Uiso   1.00
C87    C     0.51730   0.15692   0.47094   0.00000  Uiso   1.00
C88    C     0.50532   0.14683   0.01608   0.00000  Uiso   1.00
C89    C     0.56455   0.16835   0.44864   0.00000  Uiso   1.00
C90    C     0.43302   0.11632   0.01553   0.00000  Uiso   1.00
C91    C     0.59423   0.18067   0.47413   0.00000  Uiso   1.00
C92    C     0.54516   0.31244   0.23891   0.00000  Uiso   1.00
C93    C     0.46187   0.01728   0.24142   0.00000  Uiso   1.00
C94    C     0.53693   0.02031   0.25573   0.00000  Uiso   1.00
H95    H     0.47684   0.16036   0.10631   0.00000  Uiso   1.00
H96    H     0.51326   0.19010   0.39526   0.00000  Uiso   1.00
I97    I     0.37841   0.14975   0.06289   0.00000  Uiso   1.00
I98    I     0.39001   0.03483   0.26163   0.00000  Uiso   1.00
I99    I     0.57744   0.04499   0.29647   0.00000  Uiso   1.00
I100   I     0.43047   0.27796   0.18731   0.00000  Uiso   1.00
I101   I     0.63177   0.09297   0.18021   0.00000  Uiso   1.00
I102   I     0.36868   0.23892   0.32184   0.00000  Uiso   1.00
I103   I     0.41576   0.10253   0.17060   0.00000  Uiso   1.00
I104   I     0.58629   0.23965   0.32139   0.00000  Uiso   1.00
I105   I     0.66449   0.19993   0.44121   0.00000  Uiso   1.00
I106   I     0.60199   0.09600   0.07812   0.00000  Uiso   1.00
I107   I     0.38051   0.09611   0.36447   0.00000  Uiso   1.00
I108   I     0.36402   0.06187   0.47274   0.00000  Uiso   1.00
I109   I     0.63283   0.24536   0.05572   0.00000  Uiso   1.00
I110   I     0.48421   0.06107   0.05618   0.00000  Uiso   1.00
I111   I     0.59679   0.14417   0.38086   0.00000  Uiso   1.00
I112   I     0.61588   0.29116   0.21102   0.00000  Uiso   1.00
N113   N     0.38093   0.16668   0.25001   0.00000  Uiso   1.00
N114   N     0.61907   0.16666   0.24999   0.00000  Uiso   1.00
O115   O     0.46179   0.22775   0.25001   0.00000  Uiso   1.00
O116   O     0.53821   0.10558   0.25000   0.00000  Uiso   1.00
O117   O     0.53823   0.22774   0.25000   0.00000  Uiso   1.00
O118   O     0.46177   0.10559   0.25000   0.00000  Uiso   1.00
O119   O     0.43994   0.16667   0.31613   0.00000  Uiso   1.00
O120   O     0.56006   0.16666   0.18388   0.00000  Uiso   1.00
O121   O     0.51639   0.16666   0.31612   0.00000  Uiso   1.00
O122   O     0.48361   0.16667   0.18388   0.00000  Uiso   1.00
Zn123  Zn    0.44896   0.16667   0.25000   0.00000  Uiso   1.00
Zn124  Zn    0.55104   0.16666   0.25000   0.00000  Uiso   1.00
C125   C     0.83646   0.24542   0.24263   0.00000  Uiso   1.00
C126   C     0.80375   0.30900   0.22576   0.00000  Uiso   1.00
C127   C     0.83031   0.04075   0.25351   0.00000  Uiso   1.00
C128   C     0.84178   0.28899   0.23139   0.00000  Uiso   1.00
C129   C     0.98512   0.13919   0.22205   0.00000  Uiso   1.00
C130   C     0.68168   0.19440   0.27798   0.00000  Uiso   1.00
C131   C     0.69954   0.14026   0.22094   0.00000  Uiso   1.00
C132   C     0.96757   0.19479   0.27755   0.00000  Uiso   1.00
C133   C     0.80448   0.16447   0.33689   0.00000  Uiso   1.00
C134   C     0.86219   0.16645   0.16296   0.00000  Uiso   1.00
C135   C     0.78990   0.15402   0.38449   0.00000  Uiso   1.00
C136   C     0.83165   0.08644   0.25294   0.00000  Uiso   1.00
C137   C     0.87854   0.16707   0.11386   0.00000  Uiso   1.00
C138   C     0.74585   0.11161   0.44671   0.00000  Uiso   1.00
C139   C     0.93971   0.18369   0.04892   0.00000  Uiso   1.00
C140   C     0.75387   0.12457   0.40281   0.00000  Uiso   1.00
C141   C     0.92567   0.16256   0.08906   0.00000  Uiso   1.00
C142   C     0.81969   0.16700   0.40882   0.00000  Uiso   1.00
C143   C     0.84733   0.16358   0.08940   0.00000  Uiso   1.00
C144   C     0.81629   0.14956   0.44935   0.00000  Uiso   1.00
C145   C     0.86551   0.16187   0.04204   0.00000  Uiso   1.00
C146   C     0.77540   0.12632   0.47087   0.00000  Uiso   1.00
C147   C     0.80236   0.11824   0.03300   0.00000  Uiso   1.00
C148   C     0.91127   0.17704   0.02121   0.00000  Uiso   1.00
C149   C     0.85064   0.15692   0.47094   0.00000  Uiso   1.00
C150   C     0.83865   0.14683   0.01608   0.00000  Uiso   1.00
C151   C     0.89789   0.16835   0.44864   0.00000  Uiso   1.00
C152   C     0.76636   0.11632   0.01553   0.00000  Uiso   1.00
C153   C     0.92757   0.18067   0.47413   0.00000  Uiso   1.00
C154   C     0.87849   0.31244   0.23891   0.00000  Uiso   1.00
C155   C     0.79521   0.01728   0.24142   0.00000  Uiso   1.00
C156   C     0.87026   0.02031   0.25573   0.00000  Uiso   1.00
H157   H     0.81017   0.16036   0.10631   0.00000  Uiso   1.00
H158   H     0.84660   0.19010   0.39526   0.00000  Uiso   1.00
I159   I     0.71174   0.14975   0.06289   0.00000  Uiso   1.00
I160   I     0.72334   0.03483   0.26163   0.00000  Uiso   1.00
I161   I     0.91078   0.04499   0.29647   0.00000  Uiso   1.00
I162   I     0.76380   0.27796   0.18731   0.00000  Uiso   1.00
I163   I     0.96510   0.09297   0.18021   0.00000  Uiso   1.00
I164   I     0.70202   0.23892   0.32184   0.00000  Uiso   1.00
I165   I     0.74909   0.10253   0.17060   0.00000  Uiso   1.00
I166   I     0.91962   0.23965   0.32139   0.00000  Uiso   1.00
I167   I     0.99782   0.19993   0.44121   0.00000  Uiso   1.00
I168   I     0.93532   0.09600   0.07812   0.00000  Uiso   1.00
I169   I     0.71384   0.09611   0.36447   0.00000  Uiso   1.00
I170   I     0.69736   0.06187   0.47274   0.00000  Uiso   1.00
I171   I     0.96617   0.24536   0.05572   0.00000  Uiso   1.00
I172   I     0.81754   0.06107   0.05618   0.00000  Uiso   1.00
I173   I     0.93012   0.14417   0.38086   0.00000  Uiso   1.00
I174   I     0.94922   0.29116   0.21102   0.00000  Uiso   1.00
N175   N     0.71426   0.16668   0.25001   0.00000  Uiso   1.00
N176   N     0.95241   0.16666   0.24999   0.00000  Uiso   1.00
O177   O     0.79512   0.22775   0.25001   0.00000  Uiso   1.00
O178   O     0.87154   0.10558   0.25000   0.00000  Uiso   1.00
O179   O     0.87157   0.22774   0.25000   0.00000  Uiso   1.00
O180   O     0.79510   0.10559   0.25000   0.00000  Uiso   1.00
O181   O     0.77328   0.16667   0.31613   0.00000  Uiso   1.00
O182   O     0.89339   0.16666   0.18388   0.00000  Uiso   1.00
O183   O     0.84972   0.16666   0.31612   0.00000  Uiso   1.00
O184   O     0.81695   0.16667   0.18388   0.00000  Uiso   1.00
Zn185  Zn    0.78229   0.16667   0.25000   0.00000  Uiso   1.00
Zn186  Zn    0.88438   0.16666   0.25000   0.00000  Uiso   1.00
C187   C     0.16979   0.57876   0.24263   0.00000  Uiso   1.00
C188   C     0.13708   0.64233   0.22576   0.00000  Uiso   1.00
C189   C     0.16364   0.37409   0.25351   0.00000  Uiso   1.00
C190   C     0.17511   0.62232   0.23139   0.00000  Uiso   1.00
C191   C     0.31845   0.47252   0.22205   0.00000  Uiso   1.00
C192   C     0.01501   0.52773   0.27798   0.00000  Uiso   1.00
C193   C     0.03288   0.47359   0.22094   0.00000  Uiso   1.00
C194   C     0.30090   0.52813   0.27755   0.00000  Uiso   1.00
C195   C     0.13781   0.49780   0.33689   0.00000  Uiso   1.00
C196   C     0.19552   0.49978   0.16296   0.00000  Uiso   1.00
C197   C     0.12323   0.48735   0.38449   0.00000  Uiso   1.00
C198   C     0.16499   0.41978   0.25294   0.00000  Uiso   1.00
C199   C     0.21187   0.50040   0.11386   0.00000  Uiso   1.00
C200   C     0.07918   0.44495   0.44671   0.00000  Uiso   1.00
C201   C     0.27304   0.51702   0.04892   0.00000  Uiso   1.00
C202   C     0.08720   0.45790   0.40281   0.00000  Uiso   1.00
C203   C     0.25901   0.49589   0.08906   0.00000  Uiso   1.00
C204   C     0.15302   0.50033   0.40882   0.00000  Uiso   1.00
C205   C     0.18066   0.49691   0.08940   0.00000  Uiso   1.00
C206   C     0.14962   0.48290   0.44935   0.00000  Uiso   1.00
C207   C     0.19884   0.49520   0.04204   0.00000  Uiso   1.00
C208   C     0.10874   0.45965   0.47087   0.00000  Uiso   1.00
C209   C     0.13569   0.45157   0.03300   0.00000  Uiso   1.00
C210   C     0.24461   0.51037   0.02121   0.00000  Uiso   1.00
C211   C     0.18397   0.49025   0.47094   0.00000  Uiso   1.00
C212   C     0.17199   0.48016   0.01608   0.00000  Uiso   1.00
C213   C     0.23122   0.50168   0.44864   0.00000  Uiso   1.00
C214   C     0.09969   0.44965   0.01553   0.00000  Uiso   1.00
C215   C     0.26090   0.51400   0.47413   0.00000  Uiso   1.00
C216   C     0.21183   0.64578   0.23891   0.00000  Uiso   1.00
C217   C     0.12854   0.35061   0.24142   0.00000  Uiso   1.00
C218   C     0.20360   0.35365   0.25573   0.00000  Uiso   1.00
H219   H     0.14350   0.49369   0.10631   0.00000  Uiso   1.00
H220   H     0.17993   0.52343   0.39526   0.00000  Uiso   1.00
I221   I     0.04507   0.48308   0.06289   0.00000  Uiso   1.00
I222   I     0.05668   0.36816   0.26163   0.00000  Uiso   1.00
I223   I     0.24411   0.37833   0.29647   0.00000  Uiso   1.00
I224   I     0.09714   0.61129   0.18731   0.00000  Uiso   1.00
I225   I     0.29844   0.42630   0.18021   0.00000  Uiso   1.00
I226   I     0.03535   0.57225   0.32184   0.00000  Uiso   1.00
I227   I     0.08242   0.43587   0.17060   0.00000  Uiso   1.00
I228   I     0.25296   0.57298   0.32139   0.00000  Uiso   1.00
I229   I     0.33115   0.53326   0.44121   0.00000  Uiso   1.00
I230   I     0.26866   0.42933   0.07812   0.00000  Uiso   1.00
I231   I     0.04717   0.42945   0.36447   0.00000  Uiso   1.00
I232   I     0.03069   0.39520   0.47274   0.00000  Uiso   1.00
I233   I     0.29950   0.57869   0.05572   0.00000  Uiso   1.00
I234   I     0.15088   0.39441   0.05618   0.00000  Uiso   1.00
I235   I     0.26345   0.47750   0.38086   0.00000  Uiso   1.00
I236   I     0.28255   0.62449   0.21102   0.00000  Uiso   1.00
N237   N     0.04759   0.50001   0.25001   0.00000  Uiso   1.00
N238   N     0.28574   0.49999   0.24999   0.00000  Uiso   1.00
O239   O     0.12846   0.56108   0.25001   0.00000  Uiso   1.00
O240   O     0.20488   0.43892   0.25000   0.00000  Uiso   1.00
O241   O     0.20490   0.56107   0.25000   0.00000  Uiso   1.00
O242   O     0.12843   0.43893   0.25000   0.00000  Uiso   1.00
O243   O     0.10661   0.50001   0.31613   0.00000  Uiso   1.00
O244   O     0.22672   0.49999   0.18388   0.00000  Uiso   1.00
O245   O     0.18305   0.50000   0.31612   0.00000  Uiso   1.00
O246   O     0.15028   0.50000   0.18388   0.00000  Uiso   1.00
Zn247  Zn    0.11562   0.50001   0.25000   0.00000  Uiso   1.00
Zn248  Zn    0.21771   0.49999   0.25000   0.00000  Uiso   1.00
C249   C     0.50313   0.57876   0.24263   0.00000  Uiso   1.00
C250   C     0.47041   0.64233   0.22576   0.00000  Uiso   1.00
C251   C     0.49698   0.37409   0.25351   0.00000  Uiso   1.00
C252   C     0.50845   0.62232   0.23139   0.00000  Uiso   1.00
C253   C     0.65178   0.47252   0.22205   0.00000  Uiso   1.00
C254   C     0.34835   0.52773   0.27798   0.00000  Uiso   1.00
C255   C     0.36621   0.47359   0.22094   0.00000  Uiso   1.00
C256   C     0.63424   0.52813   0.27755   0.00000  Uiso   1.00
C257   C     0.47115   0.49780   0.33689   0.00000  Uiso   1.00
C258   C     0.52886   0.49978   0.16296   0.00000  Uiso   1.00
C259   C     0.45657   0.48735   0.38449   0.00000  Uiso   1.00
C260   C     0.49832   0.41978   0.25294   0.00000  Uiso   1.00
C261   C     0.54521   0.50040   0.11386   0.00000  Uiso   1.00
C262   C     0.41251   0.44495   0.44671   0.00000  Uiso   1.00
C263   C     0.60637   0.51702   0.04892   0.00000  Uiso   1.00
C264   C     0.42053   0.45790   0.40281   0.00000  Uiso   1.00
C265   C     0.59234   0.49589   0.08906   0.00000  Uiso   1.00
C266   C     0.48635   0.50033   0.40882   0.00000  Uiso   1.00
C267   C     0.51399   0.49691   0.08940   0.00000  Uiso   1.00
C268   C     0.48295   0.48290   0.44935   0.00000  Uiso   1.00
C269   C     0.53218   0.49520   0.04204   0.00000  Uiso   1.00
C270   C     0.44207   0.45965   0.47087   0.00000  Uiso   1.00
C271   C     0.46903   0.45157   0.03300   0.00000  Uiso   1.00
C272   C     0.57794   0.51037   0.02121   0.00000  Uiso   1.00
C273   C     0.51730   0.49025   0.47094   0.00000  Uiso   1.00
C274   C     0.50532   0.48016   0.01608   0.00000  Uiso   1.00
C275   C     0.56455   0.50168   0.44864   0.00000  Uiso   1.00
C276   C     0.43302   0.44965   0.01553   0.00000  Uiso   1.00
C277   C     0.59423   0.51400   0.47413   0.00000  Uiso   1.00
C278   C     0.54516   0.64578   0.23891   0.00000  Uiso   1.00
C279   C     0.46187   0.35061   0.24142   0.00000  Uiso   1.00
C280   C     0.53693   0.35365   0.25573   0.00000  Uiso   1.00
H281   H     0.47684   0.49369   0.10631   0.00000  Uiso   1.00
H282   H     0.51326   0.52343   0.39526   0.00000  Uiso   1.00
I283   I     0.37841   0.48308   0.06289   0.00000  Uiso   1.00
I284   I     0.39001   0.36816   0.26163   0.00000  Uiso   1.00
I285   I     0.57744   0.37833   0.29647   0.00000  Uiso   1.00
I286   I     0.43047   0.61129   0.18731   0.00000  Uiso   1.00
I287   I     0.63177   0.42630   0.18021   0.00000  Uiso   1.00
I288   I     0.36868   0.57225   0.32184   0.00000  Uiso   1.00
I289   I     0.41576   0.43587   0.17060   0.00000  Uiso   1.00
I290   I     0.58629   0.57298   0.32139   0.00000  Uiso   1.00
I291   I     0.66449   0.53326   0.44121   0.00000  Uiso   1.00
I292   I     0.60199   0.42933   0.07812   0.00000  Uiso   1.00
I293   I     0.38051   0.42945   0.36447   0.00000  Uiso   1.00
I294   I     0.36402   0.39520   0.47274   0.00000  Uiso   1.00
I295   I     0.63283   0.57869   0.05572   0.00000  Uiso   1.00
I296   I     0.48421   0.39441   0.05618   0.00000  Uiso   1.00
I297   I     0.59679   0.47750   0.38086   0.00000  Uiso   1.00
I298   I     0.61588   0.62449   0.21102   0.00000  Uiso   1.00
N299   N     0.38093   0.50001   0.25001   0.00000  Uiso   1.00
N300   N     0.61907   0.49999   0.24999   0.00000  Uiso   1.00
O301   O     0.46179   0.56108   0.25001   0.00000  Uiso   1.00
O302   O     0.53821   0.43892   0.25000   0.00000  Uiso   1.00
O303   O     0.53823   0.56107   0.25000   0.00000  Uiso   1.00
O304   O     0.46177   0.43893   0.25000   0.00000  Uiso   1.00
O305   O     0.43994   0.50001   0.31613   0.00000  Uiso   1.00
O306   O     0.56006   0.49999   0.18388   0.00000  Uiso   1.00
O307   O     0.51639   0.50000   0.31612   0.00000  Uiso   1.00
O308   O     0.48361   0.50000   0.18388   0.00000  Uiso   1.00
Zn309  Zn    0.44896   0.50001   0.25000   0.00000  Uiso   1.00
Zn310  Zn    0.55104   0.49999   0.25000   0.00000  Uiso   1.00
C311   C     0.83646   0.57876   0.24263   0.00000  Uiso   1.00
C312   C     0.80375   0.64233   0.22576   0.00000  Uiso   1.00
C313   C     0.83031   0.37409   0.25351   0.00000  Uiso   1.00
C314   C     0.84178   0.62232   0.23139   0.00000  Uiso   1.00
C315   C     0.98512   0.47252   0.22205   0.00000  Uiso   1.00
C316   C     0.68168   0.52773   0.27798   0.00000  Uiso   1.00
C317   C     0.69954   0.47359   0.22094   0.00000  Uiso   1.00
C318   C     0.96757   0.52813   0.27755   0.00000  Uiso   1.00
C319   C     0.80448   0.49780   0.33689   0.00000  Uiso   1.00
C320   C     0.86219   0.49978   0.16296   0.00000  Uiso   1.00
C321   C     0.78990   0.48735   0.38449   0.00000  Uiso   1.00
C322   C     0.83165   0.41978   0.25294   0.00000  Uiso   1.00
C323   C     0.87854   0.50040   0.11386   0.00000  Uiso   1.00
C324   C     0.74585   0.44495   0.44671   0.00000  Uiso   1.00
C325   C     0.93971   0.51702   0.04892   0.00000  Uiso   1.00
C326   C     0.75387   0.45790   0.40281   0.00000  Uiso   1.00
C327   C     0.92567   0.49589   0.08906   0.00000  Uiso   1.00
C328   C     0.81969   0.50033   0.40882   0.00000  Uiso   1.00
C329   C     0.84733   0.49691   0.08940   0.00000  Uiso   1.00
C330   C     0.81629   0.48290   0.44935   0.00000  Uiso   1.00
C331   C     0.86551   0.49520   0.04204   0.00000  Uiso   1.00
C332   C     0.77540   0.45965   0.47087   0.00000  Uiso   1.00
C333   C     0.80236   0.45157   0.03300   0.00000  Uiso   1.00
C334   C     0.91127   0.51037   0.02121   0.00000  Uiso   1.00
C335   C     0.85064   0.49025   0.47094   0.00000  Uiso   1.00
C336   C     0.83865   0.48016   0.01608   0.00000  Uiso   1.00
C337   C     0.89789   0.50168   0.44864   0.00000  Uiso   1.00
C338   C     0.76636   0.44965   0.01553   0.00000  Uiso   1.00
C339   C     0.92757   0.51400   0.47413   0.00000  Uiso   1.00
C340   C     0.87849   0.64578   0.23891   0.00000  Uiso   1.00
C341   C     0.79521   0.35061   0.24142   0.00000  Uiso   1.00
C342   C     0.87026   0.35365   0.25573   0.00000  Uiso   1.00
H343   H     0.81017   0.49369   0.10631   0.00000  Uiso   1.00
H344   H     0.84660   0.52343   0.39526   0.00000  Uiso   1.00
I345   I     0.71174   0.48308   0.06289   0.00000  Uiso   1.00
I346   I     0.72334   0.36816   0.26163   0.00000  Uiso   1.00
I347   I     0.91078   0.37833   0.29647   0.00000  Uiso   1.00
I348   I     0.76380   0.61129   0.18731   0.00000  Uiso   1.00
I349   I     0.96510   0.42630   0.18021   0.00000  Uiso   1.00
I350   I     0.70202   0.57225   0.32184   0.00000  Uiso   1.00
I351   I     0.74909   0.43587   0.17060   0.00000  Uiso   1.00
I352   I     0.91962   0.57298   0.32139   0.00000  Uiso   1.00
I353   I     0.99782   0.53326   0.44121   0.00000  Uiso   1.00
I354   I     0.93532   0.42933   0.07812   0.00000  Uiso   1.00
I355   I     0.71384   0.42945   0.36447   0.00000  Uiso   1.00
I356   I     0.69736   0.39520   0.47274   0.00000  Uiso   1.00
I357   I     0.96617   0.57869   0.05572   0.00000  Uiso   1.00
I358   I     0.81754   0.39441   0.05618   0.00000  Uiso   1.00
I359   I     0.93012   0.47750   0.38086   0.00000  Uiso   1.00
I360   I     0.94922   0.62449   0.21102   0.00000  Uiso   1.00
N361   N     0.71426   0.50001   0.25001   0.00000  Uiso   1.00
N362   N     0.95241   0.49999   0.24999   0.00000  Uiso   1.00
O363   O     0.79512   0.56108   0.25001   0.00000  Uiso   1.00
O364   O     0.87154   0.43892   0.25000   0.00000  Uiso   1.00
O365   O     0.87157   0.56107   0.25000   0.00000  Uiso   1.00
O366   O     0.79510   0.43893   0.25000   0.00000  Uiso   1.00
O367   O     0.77328   0.50001   0.31613   0.00000  Uiso   1.00
O368   O     0.89339   0.49999   0.18388   0.00000  Uiso   1.00
O369   O     0.84972   0.50000   0.31612   0.00000  Uiso   1.00
O370   O     0.81695   0.50000   0.18388   0.00000  Uiso   1.00
Zn371  Zn    0.78229   0.50001   0.25000   0.00000  Uiso   1.00
Zn372  Zn    0.88438   0.49999   0.25000   0.00000  Uiso   1.00
C373   C     0.16979   0.91209   0.24263   0.00000  Uiso   1.00
C374   C     0.13708   0.97566   0.22576   0.00000  Uiso   1.00
C375   C     0.16364   0.70742   0.25351   0.00000  Uiso   1.00
C376   C     0.17511   0.95565   0.23139   0.00000  Uiso   1.00
C377   C     0.31845   0.80585   0.22205   0.00000  Uiso   1.00
C378   C     0.01501   0.86107   0.27798   0.00000  Uiso   1.00
C379   C     0.03288   0.80692   0.22094   0.00000  Uiso   1.00
C380   C     0.30090   0.86146   0.27755   0.00000  Uiso   1.00
C381   C     0.13781   0.83114   0.33689   0.00000  Uiso   1.00
C382   C     0.19552   0.83311   0.16296   0.00000  Uiso   1.00
C383   C     0.12323   0.82068   0.38449   0.00000  Uiso   1.00
C384   C     0.16499   0.75311   0.25294   0.00000  Uiso   1.00
C385   C     0.21187   0.83374   0.11386   0.00000  Uiso   1.00
C386   C     0.07918   0.77828   0.44671   0.00000  Uiso   1.00
C387   C     0.27304   0.85035   0.04892   0.00000  Uiso   1.00
C388   C     0.08720   0.79123   0.40281   0.00000  Uiso   1.00
C389   C     0.25901   0.82923   0.08906   0.00000  Uiso   1.00
C390   C     0.15302   0.83366   0.40882   0.00000  Uiso   1.00
C391   C     0.18066   0.83024   0.08940   0.00000  Uiso   1.00
C392   C     0.14962   0.81623   0.44935   0.00000  Uiso   1.00
C393   C     0.19884   0.82853   0.04204   0.00000  Uiso   1.00
C394   C     0.10874   0.79299   0.47087   0.00000  Uiso   1.00
C395   C     0.13569   0.78491   0.03300   0.00000  Uiso   1.00
C396   C     0.24461   0.84370   0.02121   0.00000  Uiso   1.00
C397   C     0.18397   0.82359   0.47094   0.00000  Uiso   1.00
C398   C     0.17199   0.81349   0.01608   0.00000  Uiso   1.00
C399   C     0.23122   0.83501   0.44864   0.00000  Uiso   1.00
C400   C     0.09969   0.78298   0.01553   0.00000  Uiso   1.00
C401   C     0.26090   0.84733   0.47413   0.00000  Uiso   1.00
C402   C     0.21183   0.97911   0.23891   0.00000  Uiso   1.00
C403   C     0.12854   0.68394   0.24142   0.00000  Uiso   1.00
C404   C     0.20360   0.68698   0.25573   0.00000  Uiso   1.00
H405   H     0.14350   0.82702   0.10631   0.00000  Uiso   1.00
H406   H     0.17993   0.85677   0.39526   0.00000  Uiso   1.00
I407   I     0.04507   0.81641   0.06289   0.00000  Uiso   1.00
I408   I     0.05668   0.70149   0.26163   0.00000  Uiso   1.00
I409   I     0.24411   0.71166   0.29647   0.00000  Uiso   1.00
I410   I     0.09714   0.94462   0.18731   0.00000  Uiso   1.00
I411   I     0.29844   0.75964   0.18021   0.00000  Uiso   1.00
I412   I     0.03535   0.90559   0.32184   0.00000  Uiso   1.00
I413   I     0.08242   0.76920   0.17060   0.00000  Uiso   1.00
I414   I     0.25296   0.90631   0.32139   0.00000  Uiso   1.00
I415   I     0.33115   0.86660   0.44121   0.00000  Uiso   1.00
I416   I     0.26866   0.76266   0.07812   0.00000  Uiso   1.00
I417   I     0.04717   0.76278   0.36447   0.00000  Uiso   1.00
I418   I     0.03069   0.72854   0.47274   0.00000  Uiso   1.00
I419   I     0.29950   0.91203   0.05572   0.00000  Uiso   1.00
I420   I     0.15088   0.72774   0.05618   0.00000  Uiso   1.00
I421   I     0.26345   0.81084   0.38086   0.00000  Uiso   1.00
I422   I     0.28255   0.95782   0.21102   0.00000  Uiso   1.00
N423   N     0.04759   0.83334   0.25001   0.00000  Uiso   1.00
N424   N     0.28574   0.83332   0.24999   0.00000  Uiso   1.00
O425   O     0.12846   0.89442   0.25001   0.00000  Uiso   1.00
O426   O     0.20488   0.77225   0.25000   0.00000  Uiso   1.00
O427   O     0.20490   0.89441   0.25000   0.00000  Uiso   1.00
O428   O     0.12843   0.77226   0.25000   0.00000  Uiso   1.00
O429   O     0.10661   0.83334   0.31613   0.00000  Uiso   1.00
O430   O     0.22672   0.83333   0.18388   0.00000  Uiso   1.00
O431   O     0.18305   0.83333   0.31612   0.00000  Uiso   1.00
O432   O     0.15028   0.83334   0.18388   0.00000  Uiso   1.00
Zn433  Zn    0.11562   0.83334   0.25000   0.00000  Uiso   1.00
Zn434  Zn    0.21771   0.83333   0.25000   0.00000  Uiso   1.00
C435   C     0.50313   0.91209   0.24263   0.00000  Uiso   1.00
C436   C     0.47041   0.97566   0.22576   0.00000  Uiso   1.00
C437   C     0.49698   0.70742   0.25351   0.00000  Uiso   1.00
C438   C     0.50845   0.95565   0.23139   0.00000  Uiso   1.00
C439   C     0.65178   0.80585   0.22205   0.00000  Uiso   1.00
C440   C     0.34835   0.86107   0.27798   0.00000  Uiso   1.00
C441   C     0.36621   0.80692   0.22094   0.00000  Uiso   1.00
C442   C     0.63424   0.86146   0.27755   0.00000  Uiso   1.00
C443   C     0.47115   0.83114   0.33689   0.00000  Uiso   1.00
C444   C     0.52886   0.83311   0.16296   0.00000  Uiso   1.00
C445   C     0.45657   0.82068   0.38449   0.00000  Uiso   1.00
C446   C     0.49832   0.75311   0.25294   0.00000  Uiso   1.00
C447   C     0.54521   0.83374   0.11386   0.00000  Uiso   1.00
C448   C     0.41251   0.77828   0.44671   0.00000  Uiso   1.00
C449   C     0.60637   0.85035   0.04892   0.00000  Uiso   1.00
C450   C     0.42053   0.79123   0.40281   0.00000  Uiso   1.00
C451   C     0.59234   0.82923   0.08906   0.00000  Uiso   1.00
C452   C     0.48635   0.83366   0.40882   0.00000  Uiso   1.00
C453   C     0.51399   0.83024   0.08940   0.00000  Uiso   1.00
C454   C     0.48295   0.81623   0.44935   0.00000  Uiso   1.00
C455   C     0.53218   0.82853   0.04204   0.00000  Uiso   1.00
C456   C     0.44207   0.79299   0.47087   0.00000  Uiso   1.00
C457   C     0.46903   0.78491   0.03300   0.00000  Uiso   1.00
C458   C     0.57794   0.84370   0.02121   0.00000  Uiso   1.00
C459   C     0.51730   0.82359   0.47094   0.00000  Uiso   1.00
C460   C     0.50532   0.81349   0.01608   0.00000  Uiso   1.00
C461   C     0.56455   0.83501   0.44864   0.00000  Uiso   1.00
C462   C     0.43302   0.78298   0.01553   0.00000  Uiso   1.00
C463   C     0.59423   0.84733   0.47413   0.00000  Uiso   1.00
C464   C     0.54516   0.97911   0.23891   0.00000  Uiso   1.00
C465   C     0.46187   0.68394   0.24142   0.00000  Uiso   1.00
C466   C     0.53693   0.68698   0.25573   0.00000  Uiso   1.00
H467   H     0.47684   0.82702   0.10631   0.00000  Uiso   1.00
H468   H     0.51326   0.85677   0.39526   0.00000  Uiso   1.00
I469   I     0.37841   0.81641   0.06289   0.00000  Uiso   1.00
I470   I     0.39001   0.70149   0.26163   0.00000  Uiso   1.00
I471   I     0.57744   0.71166   0.29647   0.00000  Uiso   1.00
I472   I     0.43047   0.94462   0.18731   0.00000  Uiso   1.00
I473   I     0.63177   0.75964   0.18021   0.00000  Uiso   1.00
I474   I     0.36868   0.90559   0.32184   0.00000  Uiso   1.00
I475   I     0.41576   0.76920   0.17060   0.00000  Uiso   1.00
I476   I     0.58629   0.90631   0.32139   0.00000  Uiso   1.00
I477   I     0.66449   0.86660   0.44121   0.00000  Uiso   1.00
I478   I     0.60199   0.76266   0.07812   0.00000  Uiso   1.00
I479   I     0.38051   0.76278   0.36447   0.00000  Uiso   1.00
I480   I     0.36402   0.72854   0.47274   0.00000  Uiso   1.00
I481   I     0.63283   0.91203   0.05572   0.00000  Uiso   1.00
I482   I     0.48421   0.72774   0.05618   0.00000  Uiso   1.00
I483   I     0.59679   0.81084   0.38086   0.00000  Uiso   1.00
I484   I     0.61588   0.95782   0.21102   0.00000  Uiso   1.00
N485   N     0.38093   0.83334   0.25001   0.00000  Uiso   1.00
N486   N     0.61907   0.83332   0.24999   0.00000  Uiso   1.00
O487   O     0.46179   0.89442   0.25001   0.00000  Uiso   1.00
O488   O     0.53821   0.77225   0.25000   0.00000  Uiso   1.00
O489   O     0.53823   0.89441   0.25000   0.00000  Uiso   1.00
O490   O     0.46177   0.77226   0.25000   0.00000  Uiso   1.00
O491   O     0.43994   0.83334   0.31613   0.00000  Uiso   1.00
O492   O     0.56006   0.83333   0.18388   0.00000  Uiso   1.00
O493   O     0.51639   0.83333   0.31612   0.00000  Uiso   1.00
O494   O     0.48361   0.83334   0.18388   0.00000  Uiso   1.00
Zn495  Zn    0.44896   0.83334   0.25000   0.00000  Uiso   1.00
Zn496  Zn    0.55104   0.83333   0.25000   0.00000  Uiso   1.00
C497   C     0.83646   0.91209   0.24263   0.00000  Uiso   1.00
C498   C     0.80375   0.97566   0.22576   0.00000  Uiso   1.00
C499   C     0.83031   0.70742   0.25351   0.00000  Uiso   1.00
C500   C     0.84178   0.95565   0.23139   0.00000  Uiso   1.00
C501   C     0.98512   0.80585   0.22205   0.00000  Uiso   1.00
C502   C     0.68168   0.86107   0.27798   0.00000  Uiso   1.00
C503   C     0.69954   0.80692   0.22094   0.00000  Uiso   1.00
C504   C     0.96757   0.86146   0.27755   0.00000  Uiso   1.00
C505   C     0.80448   0.83114   0.33689   0.00000  Uiso   1.00
C506   C     0.86219   0.83311   0.16296   0.00000  Uiso   1.00
C507   C     0.78990   0.82068   0.38449   0.00000  Uiso   1.00
C508   C     0.83165   0.75311   0.25294   0.00000  Uiso   1.00
C509   C     0.87854   0.83374   0.11386   0.00000  Uiso   1.00
C510   C     0.74585   0.77828   0.44671   0.00000  Uiso   1.00
C511   C     0.93971   0.85035   0.04892   0.00000  Uiso   1.00
C512   C     0.75387   0.79123   0.40281   0.00000  Uiso   1.00
C513   C     0.92567   0.82923   0.08906   0.00000  Uiso   1.00
C514   C     0.81969   0.83366   0.40882   0.00000  Uiso   1.00
C515   C     0.84733   0.83024   0.08940   0.00000  Uiso   1.00
C516   C     0.81629   0.81623   0.44935   0.00000  Uiso   1.00
C517   C     0.86551   0.82853   0.04204   0.00000  Uiso   1.00
C518   C     0.77540   0.79299   0.47087   0.00000  Uiso   1.00
C519   C     0.80236   0.78491   0.03300   0.00000  Uiso   1.00
C520   C     0.91127   0.84370   0.02121   0.00000  Uiso   1.00
C521   C     0.85064   0.82359   0.47094   0.00000  Uiso   1.00
C522   C     0.83865   0.81349   0.01608   0.00000  Uiso   1.00
C523   C     0.89789   0.83501   0.44864   0.00000  Uiso   1.00
C524   C     0.76636   0.78298   0.01553   0.00000  Uiso   1.00
C525   C     0.92757   0.84733   0.47413   0.00000  Uiso   1.00
C526   C     0.87849   0.97911   0.23891   0.00000  Uiso   1.00
C527   C     0.79521   0.68394   0.24142   0.00000  Uiso   1.00
C528   C     0.87026   0.68698   0.25573   0.00000  Uiso   1.00
H529   H     0.81017   0.82702   0.10631   0.00000  Uiso   1.00
H530   H     0.84660   0.85677   0.39526   0.00000  Uiso   1.00
I531   I     0.71174   0.81641   0.06289   0.00000  Uiso   1.00
I532   I     0.72334   0.70149   0.26163   0.00000  Uiso   1.00
I533   I     0.91078   0.71166   0.29647   0.00000  Uiso   1.00
I534   I     0.76380   0.94462   0.18731   0.00000  Uiso   1.00
I535   I     0.96510   0.75964   0.18021   0.00000  Uiso   1.00
I536   I     0.70202   0.90559   0.32184   0.00000  Uiso   1.00
I537   I     0.74909   0.76920   0.17060   0.00000  Uiso   1.00
I538   I     0.91962   0.90631   0.32139   0.00000  Uiso   1.00
I539   I     0.99782   0.86660   0.44121   0.00000  Uiso   1.00
I540   I     0.93532   0.76266   0.07812   0.00000  Uiso   1.00
I541   I     0.71384   0.76278   0.36447   0.00000  Uiso   1.00
I542   I     0.69736   0.72854   0.47274   0.00000  Uiso   1.00
I543   I     0.96617   0.91203   0.05572   0.00000  Uiso   1.00
I544   I     0.81754   0.72774   0.05618   0.00000  Uiso   1.00
I545   I     0.93012   0.81084   0.38086   0.00000  Uiso   1.00
I546   I     0.94922   0.95782   0.21102   0.00000  Uiso   1.00
N547   N     0.71426   0.83334   0.25001   0.00000  Uiso   1.00
N548   N     0.95241   0.83332   0.24999   0.00000  Uiso   1.00
O549   O     0.79512   0.89442   0.25001   0.00000  Uiso   1.00
O550   O     0.87154   0.77225   0.25000   0.00000  Uiso   1.00
O551   O     0.87157   0.89441   0.25000   0.00000  Uiso   1.00
O552   O     0.79510   0.77226   0.25000   0.00000  Uiso   1.00
O553   O     0.77328   0.83334   0.31613   0.00000  Uiso   1.00
O554   O     0.89339   0.83333   0.18388   0.00000  Uiso   1.00
O555   O     0.84972   0.83333   0.31612   0.00000  Uiso   1.00
O556   O     0.81695   0.83334   0.18388   0.00000  Uiso   1.00
Zn557  Zn    0.78229   0.83334   0.25000   0.00000  Uiso   1.00
Zn558  Zn    0.88438   0.83333   0.25000   0.00000  Uiso   1.00
C559   C     0.16979   0.24542   0.74263   0.00000  Uiso   1.00
C560   C     0.13708   0.30900   0.72576   0.00000  Uiso   1.00
C561   C     0.16364   0.04075   0.75351   0.00000  Uiso   1.00
C562   C     0.17511   0.28899   0.73139   0.00000  Uiso   1.00
C563   C     0.31845   0.13919   0.72205   0.00000  Uiso   1.00
C564   C     0.01501   0.19440   0.77798   0.00000  Uiso   1.00
C565   C     0.03288   0.14026   0.72094   0.00000  Uiso   1.00
C566   C     0.30090   0.19479   0.77755   0.00000  Uiso   1.00
C567   C     0.13781   0.16447   0.83689   0.00000  Uiso   1.00
C568   C     0.19552   0.16645   0.66296   0.00000  Uiso   1.00
C569   C     0.12323   0.15402   0.88449   0.00000  Uiso   1.00
C570   C     0.16499   0.08644   0.75294   0.00000  Uiso   1.00
C571   C     0.21187   0.16707   0.61386   0.00000  Uiso   1.00
C572   C     0.07918   0.11161   0.94671   0.00000  Uiso   1.00
C573   C     0.27304   0.18369   0.54892   0.00000  Uiso   1.00
C574   C     0.08720   0.12457   0.90281   0.00000  Uiso   1.00
C575   C     0.25901   0.16256   0.58906   0.00000  Uiso   1.00
C576   C     0.15302   0.16700   0.90882   0.00000  Uiso   1.00
C577   C     0.18066   0.16358   0.58940   0.00000  Uiso   1.00
C578   C     0.14962   0.14956   0.94935   0.00000  Uiso   1.00
C579   C     0.19884   0.16187   0.54204   0.00000  Uiso   1.00
C580   C     0.10874   0.12632   0.97087   0.00000  Uiso   1.00
C581   C     0.13569   0.11824   0.53300   0.00000  Uiso   1.00
C582   C     0.24461   0.17704   0.52121   0.00000  Uiso   1.00
C583   C     0.18397   0.15692   0.97094   0.00000  Uiso   1.00
C584   C     0.17199   0.14683   0.51608   0.00000  Uiso   1.00
C585   C     0.23122   0.16835   0.94864   0.00000  Uiso   1.00
C586   C     0.09969   0.11632   0.51553   0.00000  Uiso   1.00
C587   C     0.26090   0.18067   0.97413   0.00000  Uiso   1.00
C588   C     0.21183   0.31244   0.73891   0.00000  Uiso   1.00
C589   C     0.12854   0.01728   0.74142   0.00000  Uiso   1.00
C590   C     0.20360   0.02031   0.75573   0.00000  Uiso   1.00
H591   H     0.14350   0.16036   0.60631   0.00000  Uiso   1.00
H592   H     0.17993   0.19010   0.89526   0.00000  Uiso   1.00
I593   I     0.04507   0.14975   0.56289   0.00000  Uiso   1.00
I594   I     0.05668   0.03483   0.76163   0.00000  Uiso   1.00
I595   I     0.24411   0.04499   0.79647   0.00000  Uiso   1.00
I596   I     0.09714   0.27796   0.68731   0.00000  Uiso   1.00
I597   I     0.29844   0.09297   0.68021   0.00000  Uiso   1.00
I598   I     0.03535   0.23892   0.82184   0.00000  Uiso   1.00
I599   I     0.08242   0.10253   0.67060   0.00000  Uiso   1.00
I600   I     0.25296   0.23965   0.82139   0.00000  Uiso   1.00
I601   I     0.33115   0.19993   0.94121   0.00000  Uiso   1.00
I602   I     0.26866   0.09600   0.57812   0.00000  Uiso   1.00
I603   I     0.04717   0.09611   0.86447   0.00000  Uiso   1.00
I604   I     0.03069   0.06187   0.97274   0.00000  Uiso   1.00
I605   I     0.29950   0.24536   0.55572   0.00000  Uiso   1.00
I606   I     0.15088   0.06107   0.55618   0.00000  Uiso   1.00
I607   I     0.26345   0.14417   0.88086   0.00000  Uiso   1.00
I608   I     0.28255   0.29116   0.71102   0.00000  Uiso   1.00
N609   N     0.04759   0.16668   0.75001   0.00000  Uiso   1.00
N610   N     0.28574   0.16666   0.74999   0.00000  Uiso   1.00
O611   O     0.12846   0.22775   0.75001   0.00000  Uiso   1.00
O612   O     0.20488   0.10558   0.75000   0.00000  Uiso   1.00
O613   O     0.20490   0.22774   0.75000   0.00000  Uiso   1.00
O614   O     0.12843   0.10559   0.75000   0.00000  Uiso   1.00
O615   O     0.10661   0.16667   0.81613   0.00000  Uiso   1.00
O616   O     0.22672   0.16666   0.68388   0.00000  Uiso   1.00
O617   O     0.18305   0.16666   0.81612   0.00000  Uiso   1.00
O618   O     0.15028   0.16667   0.68388   0.00000  Uiso   1.00
Zn619  Zn    0.11562   0.16667   0.75000   0.00000  Uiso   1.00
Zn620  Zn    0.21771   0.16666   0.75000   0.00000  Uiso   1.00
C621   C     0.50313   0.24542   0.74263   0.00000  Uiso   1.00
C622   C     0.47041   0.30900   0.72576   0.00000  Uiso   1.00
C623   C     0.49698   0.04075   0.75351   0.00000  Uiso   1.00
C624   C     0.50845   0.28899   0.73139   0.00000  Uiso   1.00
C625   C     0.65178   0.13919   0.72205   0.00000  Uiso   1.00
C626   C     0.34835   0.19440   0.77798   0.00000  Uiso   1.00
C627   C     0.36621   0.14026   0.72094   0.00000  Uiso   1.00
C628   C     0.63424   0.19479   0.77755   0.00000  Uiso   1.00
C629   C     0.47115   0.16447   0.83689   0.00000  Uiso   1.00
C630   C     0.52886   0.16645   0.66296   0.00000  Uiso   1.00
C631   C     0.45657   0.15402   0.88449   0.00000  Uiso   1.00
C632   C     0.49832   0.08644   0.75294   0.00000  Uiso   1.00
C633   C     0.54521   0.16707   0.61386   0.00000  Uiso   1.00
C634   C     0.41251   0.11161   0.94671   0.00000  Uiso   1.00
C635   C     0.60637   0.18369   0.54892   0.00000  Uiso   1.00
C636   C     0.42053   0.12457   0.90281   0.00000  Uiso   1.00
C637   C     0.59234   0.16256   0.58906   0.00000  Uiso   1.00
C638   C     0.48635   0.16700   0.90882   0.00000  Uiso   1.00
C639   C     0.51399   0.16358   0.58940   0.00000  Uiso   1.00
C640   C     0.48295   0.14956   0.94935   0.00000  Uiso   1.00
C641   C     0.53218   0.16187   0.54204   0.00000  Uiso   1.00
C642   C     0.44207   0.12632   0.97087   0.00000  Uiso   1.00
C643   C     0.46903   0.11824   0.53300   0.00000  Uiso   1.00
C644   C     0.57794   0.17704   0.52121   0.00000  Uiso   1.00
C645   C     0.51730   0.15692   0.97094   0.00000  Uiso   1.00
C646   C     0.50532   0.14683   0.51608   0.00000  Uiso   1.00
C647   C     0.56455   0.16835   0.94864   0.00000  Uiso   1.00
C648   C     0.43302   0.11632   0.51553   0.00000  Uiso   1.00
C649   C     0.59423   0.18067   0.97413   0.00000  Uiso   1.00
C650   C     0.54516   0.31244   0.73891   0.00000  Uiso   1.00
C651   C     0.46187   0.01728   0.74142   0.00000  Uiso   1.00
C652   C     0.53693   0.02031   0.75573   0.00000  Uiso   1.00
H653   H     0.47684   0.16036   0.60631   0.00000  Uiso   1.00
H654   H     0.51326   0.19010   0.89526   0.00000  Uiso   1.00
I655   I     0.37841   0.14975   0.56289   0.00000  Uiso   1.00
I656   I     0.39001   0.03483   0.76163   0.00000  Uiso   1.00
I657   I     0.57744   0.04499   0.79647   0.00000  Uiso   1.00
I658   I     0.43047   0.27796   0.68731   0.00000  Uiso   1.00
I659   I     0.63177   0.09297   0.68021   0.00000  Uiso   1.00
I660   I     0.36868   0.23892   0.82184   0.00000  Uiso   1.00
I661   I     0.41576   0.10253   0.67060   0.00000  Uiso   1.00
I662   I     0.58629   0.23965   0.82139   0.00000  Uiso   1.00
I663   I     0.66449   0.19993   0.94121   0.00000  Uiso   1.00
I664   I     0.60199   0.09600   0.57812   0.00000  Uiso   1.00
I665   I     0.38051   0.09611   0.86447   0.00000  Uiso   1.00
I666   I     0.36402   0.06187   0.97274   0.00000  Uiso   1.00
I667   I     0.63283   0.24536   0.55572   0.00000  Uiso   1.00
I668   I     0.48421   0.06107   0.55618   0.00000  Uiso   1.00
I669   I     0.59679   0.14417   0.88086   0.00000  Uiso   1.00
I670   I     0.61588   0.29116   0.71102   0.00000  Uiso   1.00
N671   N     0.38093   0.16668   0.75001   0.00000  Uiso   1.00
N672   N     0.61907   0.16666   0.74999   0.00000  Uiso   1.00
O673   O     0.46179   0.22775   0.75001   0.00000  Uiso   1.00
O674   O     0.53821   0.10558   0.75000   0.00000  Uiso   1.00
O675   O     0.53823   0.22774   0.75000   0.00000  Uiso   1.00
O676   O     0.46177   0.10559   0.75000   0.00000  Uiso   1.00
O677   O     0.43994   0.16667   0.81613   0.00000  Uiso   1.00
O678   O     0.56006   0.16666   0.68388   0.00000  Uiso   1.00
O679   O     0.51639   0.16666   0.81612   0.00000  Uiso   1.00
O680   O     0.48361   0.16667   0.68388   0.00000  Uiso   1.00
Zn681  Zn    0.44896   0.16667   0.75000   0.00000  Uiso   1.00
Zn682  Zn    0.55104   0.16666   0.75000   0.00000  Uiso   1.00
C683   C     0.83646   0.24542   0.74263   0.00000  Uiso   1.00
C684   C     0.80375   0.30900   0.72576   0.00000  Uiso   1.00
C685   C     0.83031   0.04075   0.75351   0.00000  Uiso   1.00
C686   C     0.84178   0.28899   0.73139   0.00000  Uiso   1.00
C687   C     0.98512   0.13919   0.72205   0.00000  Uiso   1.00
C688   C     0.68168   0.19440   0.77798   0.00000  Uiso   1.00
C689   C     0.69954   0.14026   0.72094   0.00000  Uiso   1.00
C690   C     0.96757   0.19479   0.77755   0.00000  Uiso   1.00
C691   C     0.80448   0.16447   0.83689   0.00000  Uiso   1.00
C692   C     0.86219   0.16645   0.66296   0.00000  Uiso   1.00
C693   C     0.78990   0.15402   0.88449   0.00000  Uiso   1.00
C694   C     0.83165   0.08644   0.75294   0.00000  Uiso   1.00
C695   C     0.87854   0.16707   0.61386   0.00000  Uiso   1.00
C696   C     0.74585   0.11161   0.94671   0.00000  Uiso   1.00
C697   C     0.93971   0.18369   0.54892   0.00000  Uiso   1.00
C698   C     0.75387   0.12457   0.90281   0.00000  Uiso   1.00
C699   C     0.92567   0.16256   0.58906   0.00000  Uiso   1.00
C700   C     0.81969   0.16700   0.90882   0.00000  Uiso   1.00
C701   C     0.84733   0.16358   0.58940   0.00000  Uiso   1.00
C702   C     0.81629   0.14956   0.94935   0.00000  Uiso   1.00
C703   C     0.86551   0.16187   0.54204   0.00000  Uiso   1.00
C704   C     0.77540   0.12632   0.97087   0.00000  Uiso   1.00
C705   C     0.80236   0.11824   0.53300   0.00000  Uiso   1.00
C706   C     0.91127   0.17704   0.52121   0.00000  Uiso   1.00
C707   C     0.85064   0.15692   0.97094   0.00000  Uiso   1.00
C708   C     0.83865   0.14683   0.51608   0.00000  Uiso   1.00
C709   C     0.89789   0.16835   0.94864   0.00000  Uiso   1.00
C710   C     0.76636   0.11632   0.51553   0.00000  Uiso   1.00
C711   C     0.92757   0.18067   0.97413   0.00000  Uiso   1.00
C712   C     0.87849   0.31244   0.73891   0.00000  Uiso   1.00
C713   C     0.79521   0.01728   0.74142   0.00000  Uiso   1.00
C714   C     0.87026   0.02031   0.75573   0.00000  Uiso   1.00
H715   H     0.81017   0.16036   0.60631   0.00000  Uiso   1.00
H716   H     0.84660   0.19010   0.89526   0.00000  Uiso   1.00
I717   I     0.71174   0.14975   0.56289   0.00000  Uiso   1.00
I718   I     0.72334   0.03483   0.76163   0.00000  Uiso   1.00
I719   I     0.91078   0.04499   0.79647   0.00000  Uiso   1.00
I720   I     0.76380   0.27796   0.68731   0.00000  Uiso   1.00
I721   I     0.96510   0.09297   0.68021   0.00000  Uiso   1.00
I722   I     0.70202   0.23892   0.82184   0.00000  Uiso   1.00
I723   I     0.74909   0.10253   0.67060   0.00000  Uiso   1.00
I724   I     0.91962   0.23965   0.82139   0.00000  Uiso   1.00
I725   I     0.99782   0.19993   0.94121   0.00000  Uiso   1.00
I726   I     0.93532   0.09600   0.57812   0.00000  Uiso   1.00
I727   I     0.71384   0.09611   0.86447   0.00000  Uiso   1.00
I728   I     0.69736   0.06187   0.97274   0.00000  Uiso   1.00
I729   I     0.96617   0.24536   0.55572   0.00000  Uiso   1.00
I730   I     0.81754   0.06107   0.55618   0.00000  Uiso   1.00
I731   I     0.93012   0.14417   0.88086   0.00000  Uiso   1.00
I732   I     0.94922   0.29116   0.71102   0.00000  Uiso   1.00
N733   N     0.71426   0.16668   0.75001   0.00000  Uiso   1.00
N734   N     0.95241   0.16666   0.74999   0.00000  Uiso   1.00
O735   O     0.79512   0.22775   0.75001   0.00000  Uiso   1.00
O736   O     0.87154   0.10558   0.75000   0.00000  Uiso   1.00
O737   O     0.87157   0.22774   0.75000   0.00000  Uiso   1.00
O738   O     0.79510   0.10559   0.75000   0.00000  Uiso   1.00
O739   O     0.77328   0.16667   0.81613   0.00000  Uiso   1.00
O740   O     0.89339   0.16666   0.68388   0.00000  Uiso   1.00
O741   O     0.84972   0.16666   0.81612   0.00000  Uiso   1.00
O742   O     0.81695   0.16667   0.68388   0.00000  Uiso   1.00
Zn743  Zn    0.78229   0.16667   0.75000   0.00000  Uiso   1.00
Zn744  Zn    0.88438   0.16666   0.75000   0.00000  Uiso   1.00
C745   C     0.16979   0.57876   0.74263   0.00000  Uiso   1.00
C746   C     0.13708   0.64233   0.72576   0.00000  Uiso   1.00
C747   C     0.16364   0.37409   0.75351   0.00000  Uiso   1.00
C748   C     0.17511   0.62232   0.73139   0.00000  Uiso   1.00
C749   C     0.31845   0.47252   0.72205   0.00000  Uiso   1.00
C750   C     0.01501   0.52773   0.77798   0.00000  Uiso   1.00
C751   C     0.03288   0.47359   0.72094   0.00000  Uiso   1.00
C752   C     0.30090   0.52813   0.77755   0.00000  Uiso   1.00
C753   C     0.13781   0.49780   0.83689   0.00000  Uiso   1.00
C754   C     0.19552   0.49978   0.66296   0.00000  Uiso   1.00
C755   C     0.12323   0.48735   0.88449   0.00000  Uiso   1.00
C756   C     0.16499   0.41978   0.75294   0.00000  Uiso   1.00
C757   C     0.21187   0.50040   0.61386   0.00000  Uiso   1.00
C758   C     0.07918   0.44495   0.94671   0.00000  Uiso   1.00
C759   C     0.27304   0.51702   0.54892   0.00000  Uiso   1.00
C760   C     0.08720   0.45790   0.90281   0.00000  Uiso   1.00
C761   C     0.25901   0.49589   0.58906   0.00000  Uiso   1.00
C762   C     0.15302   0.50033   0.90882   0.00000  Uiso   1.00
C763   C     0.18066   0.49691   0.58940   0.00000  Uiso   1.00
C764   C     0.14962   0.48290   0.94935   0.00000  Uiso   1.00
C765   C     0.19884   0.49520   0.54204   0.00000  Uiso   1.00
C766   C     0.10874   0.45965   0.97087   0.00000  Uiso   1.00
C767   C     0.13569   0.45157   0.53300   0.00000  Uiso   1.00
C768   C     0.24461   0.51037   0.52121   0.00000  Uiso   1.00
C769   C     0.18397   0.49025   0.97094   0.00000  Uiso   1.00
C770   C     0.17199   0.48016   0.51608   0.00000  Uiso   1.00
C771   C     0.23122   0.50168   0.94864   0.00000  Uiso   1.00
C772   C     0.09969   0.44965   0.51553   0.00000  Uiso   1.00
C773   C     0.26090   0.51400   0.97413   0.00000  Uiso   1.00
C774   C     0.21183   0.64578   0.73891   0.00000  Uiso   1.00
C775   C     0.12854   0.35061   0.74142   0.00000  Uiso   1.00
C776   C     0.20360   0.35365   0.75573   0.00000  Uiso   1.00
H777   H     0.14350   0.49369   0.60631   0.00000  Uiso   1.00
H778   H     0.17993   0.52343   0.89526   0.00000  Uiso   1.00
I779   I     0.04507   0.48308   0.56289   0.00000  Uiso   1.00
I780   I     0.05668   0.36816   0.76163   0.00000  Uiso   1.00
I781   I     0.24411   0.37833   0.79647   0.00000  Uiso   1.00
I782   I     0.09714   0.61129   0.68731   0.00000  Uiso   1.00
I783   I     0.29844   0.42630   0.68021   0.00000  Uiso   1.00
I784   I     0.03535   0.57225   0.82184   0.00000  Uiso   1.00
I785   I     0.08242   0.43587   0.67060   0.00000  Uiso   1.00
I786   I     0.25296   0.57298   0.82139   0.00000  Uiso   1.00
I787   I     0.33115   0.53326   0.94121   0.00000  Uiso   1.00
I788   I     0.26866   0.42933   0.57812   0.00000  Uiso   1.00
I789   I     0.04717   0.42945   0.86447   0.00000  Uiso   1.00
I790   I     0.03069   0.39520   0.97274   0.00000  Uiso   1.00
I791   I     0.29950   0.57869   0.55572   0.00000  Uiso   1.00
I792   I     0.15088   0.39441   0.55618   0.00000  Uiso   1.00
I793   I     0.26345   0.47750   0.88086   0.00000  Uiso   1.00
I794   I     0.28255   0.62449   0.71102   0.00000  Uiso   1.00
N795   N     0.04759   0.50001   0.75001   0.00000  Uiso   1.00
N796   N     0.28574   0.49999   0.74999   0.00000  Uiso   1.00
O797   O     0.12846   0.56108   0.75001   0.00000  Uiso   1.00
O798   O     0.20488   0.43892   0.75000   0.00000  Uiso   1.00
O799   O     0.20490   0.56107   0.75000   0.00000  Uiso   1.00
O800   O     0.12843   0.43893   0.75000   0.00000  Uiso   1.00
O801   O     0.10661   0.50001   0.81613   0.00000  Uiso   1.00
O802   O     0.22672   0.49999   0.68388   0.00000  Uiso   1.00
O803   O     0.18305   0.50000   0.81612   0.00000  Uiso   1.00
O804   O     0.15028   0.50000   0.68388   0.00000  Uiso   1.00
Zn805  Zn    0.11562   0.50001   0.75000   0.00000  Uiso   1.00
Zn806  Zn    0.21771   0.49999   0.75000   0.00000  Uiso   1.00
C807   C     0.50313   0.57876   0.74263   0.00000  Uiso   1.00
C808   C     0.47041   0.64233   0.72576   0.00000  Uiso   1.00
C809   C     0.49698   0.37409   0.75351   0.00000  Uiso   1.00
C810   C     0.50845   0.62232   0.73139   0.00000  Uiso   1.00
C811   C     0.65178   0.47252   0.72205   0.00000  Uiso   1.00
C812   C     0.34835   0.52773   0.77798   0.00000  Uiso   1.00
C813   C     0.36621   0.47359   0.72094   0.00000  Uiso   1.00
C814   C     0.63424   0.52813   0.77755   0.00000  Uiso   1.00
C815   C     0.47115   0.49780   0.83689   0.00000  Uiso   1.00
C816   C     0.52886   0.49978   0.66296   0.00000  Uiso   1.00
C817   C     0.45657   0.48735   0.88449   0.00000  Uiso   1.00
C818   C     0.49832   0.41978   0.75294   0.00000  Uiso   1.00
C819   C     0.54521   0.50040   0.61386   0.00000  Uiso   1.00
C820   C     0.41251   0.44495   0.94671   0.00000  Uiso   1.00
C821   C     0.60637   0.51702   0.54892   0.00000  Uiso   1.00
C822   C     0.42053   0.45790   0.90281   0.00000  Uiso   1.00
C823   C     0.59234   0.49589   0.58906   0.00000  Uiso   1.00
C824   C     0.48635   0.50033   0.90882   0.00000  Uiso   1.00
C825   C     0.51399   0.49691   0.58940   0.00000  Uiso   1.00
C826   C     0.48295   0.48290   0.94935   0.00000  Uiso   1.00
C827   C     0.53218   0.49520   0.54204   0.00000  Uiso   1.00
C828   C     0.44207   0.45965   0.97087   0.00000  Uiso   1.00
C829   C     0.46903   0.45157   0.53300   0.00000  Uiso   1.00
C830   C     0.57794   0.51037   0.52121   0.00000  Uiso   1.00
C831   C     0.51730   0.49025   0.97094   0.00000  Uiso   1.00
C832   C     0.50532   0.48016   0.51608   0.00000  Uiso   1.00
C833   C     0.56455   0.50168   0.94864   0.00000  Uiso   1.00
C834   C     0.43302   0.44965   0.51553   0.00000  Uiso   1.00
C835   C     0.59423   0.51400   0.97413   0.00000  Uiso   1.00
C836   C     0.54516   0.64578   0.73891   0.00000  Uiso   1.00
C837   C     0.46187   0.35061   0.74142   0.00000  Uiso   1.00
C838   C     0.53693   0.35365   0.75573   0.00000  Uiso   1.00
H839   H     0.47684   0.49369   0.60631   0.00000  Uiso   1.00
H840   H     0.51326   0.52343   0.89526   0.00000  Uiso   1.00
I841   I     0.37841   0.48308   0.56289   0.00000  Uiso   1.00
I842   I     0.39001   0.36816   0.76163   0.00000  Uiso   1.00
I843   I     0.57744   0.37833   0.79647   0.00000  Uiso   1.00
I844   I     0.43047   0.61129   0.68731   0.00000  Uiso   1.00
I845   I     0.63177   0.42630   0.68021   0.00000  Uiso   1.00
I846   I     0.36868   0.57225   0.82184   0.00000  Uiso   1.00
I847   I     0.41576   0.43587   0.67060   0.00000  Uiso   1.00
I848   I     0.58629   0.57298   0.82139   0.00000  Uiso   1.00
I849   I     0.66449   0.53326   0.94121   0.00000  Uiso   1.00
I850   I     0.60199   0.42933   0.57812   0.00000  Uiso   1.00
I851   I     0.38051   0.42945   0.86447   0.00000  Uiso   1.00
I852   I     0.36402   0.39520   0.97274   0.00000  Uiso   1.00
I853   I     0.63283   0.57869   0.55572   0.00000  Uiso   1.00
I854   I     0.48421   0.39441   0.55618   0.00000  Uiso   1.00
I855   I     0.59679   0.47750   0.88086   0.00000  Uiso   1.00
I856   I     0.61588   0.62449   0.71102   0.00000  Uiso   1.00
N857   N     0.38093   0.50001   0.75001   0.00000  Uiso   1.00
N858   N     0.61907   0.49999   0.74999   0.00000  Uiso   1.00
O859   O     0.46179   0.56108   0.75001   0.00000  Uiso   1.00
O860   O     0.53821   0.43892   0.75000   0.00000  Uiso   1.00
O861   O     0.53823   0.56107   0.75000   0.00000  Uiso   1.00
O862   O     0.46177   0.43893   0.75000   0.00000  Uiso   1.00
O863   O     0.43994   0.50001   0.81613   0.00000  Uiso   1.00
O864   O     0.56006   0.49999   0.68388   0.00000  Uiso   1.00
O865   O     0.51639   0.50000   0.81612   0.00000  Uiso   1.00
O866   O     0.48361   0.50000   0.68388   0.00000  Uiso   1.00
Zn867  Zn    0.44896   0.50001   0.75000   0.00000  Uiso   1.00
Zn868  Zn    0.55104   0.49999   0.75000   0.00000  Uiso   1.00
C869   C     0.83646   0.57876   0.74263   0.00000  Uiso   1.00
C870   C     0.80375   0.64233   0.72576   0.00000  Uiso   1.00
C871   C     0.83031   0.37409   0.75351   0.00000  Uiso   1.00
C872   C     0.84178   0.62232   0.73139   0.00000  Uiso   1.00
C873   C     0.98512   0.47252   0.72205   0.00000  Uiso   1.00
C874   C     0.68168   0.52773   0.77798   0.00000  Uiso   1.00
C875   C     0.69954   0.47359   0.72094   0.00000  Uiso   1.00
C876   C     0.96757   0.52813   0.77755   0.00000  Uiso   1.00
C877   C     0.80448   0.49780   0.83689   0.00000  Uiso   1.00
C878   C     0.86219   0.49978   0.66296   0.00000  Uiso   1.00
C879   C     0.78990   0.48735   0.88449   0.00000  Uiso   1.00
C880   C     0.83165   0.41978   0.75294   0.00000  Uiso   1.00
C881   C     0.87854   0.50040   0.61386   0.00000  Uiso   1.00
C882   C     0.74585   0.44495   0.94671   0.00000  Uiso   1.00
C883   C     0.93971   0.51702   0.54892   0.00000  Uiso   1.00
C884   C     0.75387   0.45790   0.90281   0.00000  Uiso   1.00
C885   C     0.92567   0.49589   0.58906   0.00000  Uiso   1.00
C886   C     0.81969   0.50033   0.90882   0.00000  Uiso   1.00
C887   C     0.84733   0.49691   0.58940   0.00000  Uiso   1.00
C888   C     0.81629   0.48290   0.94935   0.00000  Uiso   1.00
C889   C     0.86551   0.49520   0.54204   0.00000  Uiso   1.00
C890   C     0.77540   0.45965   0.97087   0.00000  Uiso   1.00
C891   C     0.80236   0.45157   0.53300   0.00000  Uiso   1.00
C892   C     0.91127   0.51037   0.52121   0.00000  Uiso   1.00
C893   C     0.85064   0.49025   0.97094   0.00000  Uiso   1.00
C894   C     0.83865   0.48016   0.51608   0.00000  Uiso   1.00
C895   C     0.89789   0.50168   0.94864   0.00000  Uiso   1.00
C896   C     0.76636   0.44965   0.51553   0.00000  Uiso   1.00
C897   C     0.92757   0.51400   0.97413   0.00000  Uiso   1.00
C898   C     0.87849   0.64578   0.73891   0.00000  Uiso   1.00
C899   C     0.79521   0.35061   0.74142   0.00000  Uiso   1.00
C900   C     0.87026   0.35365   0.75573   0.00000  Uiso   1.00
H901   H     0.81017   0.49369   0.60631   0.00000  Uiso   1.00
H902   H     0.84660   0.52343   0.89526   0.00000  Uiso   1.00
I903   I     0.71174   0.48308   0.56289   0.00000  Uiso   1.00
I904   I     0.72334   0.36816   0.76163   0.00000  Uiso   1.00
I905   I     0.91078   0.37833   0.79647   0.00000  Uiso   1.00
I906   I     0.76380   0.61129   0.68731   0.00000  Uiso   1.00
I907   I     0.96510   0.42630   0.68021   0.00000  Uiso   1.00
I908   I     0.70202   0.57225   0.82184   0.00000  Uiso   1.00
I909   I     0.74909   0.43587   0.67060   0.00000  Uiso   1.00
I910   I     0.91962   0.57298   0.82139   0.00000  Uiso   1.00
I911   I     0.99782   0.53326   0.94121   0.00000  Uiso   1.00
I912   I     0.93532   0.42933   0.57812   0.00000  Uiso   1.00
I913   I     0.71384   0.42945   0.86447   0.00000  Uiso   1.00
I914   I     0.69736   0.39520   0.97274   0.00000  Uiso   1.00
I915   I     0.96617   0.57869   0.55572   0.00000  Uiso   1.00
I916   I     0.81754   0.39441   0.55618   0.00000  Uiso   1.00
I917   I     0.93012   0.47750   0.88086   0.00000  Uiso   1.00
I918   I     0.94922   0.62449   0.71102   0.00000  Uiso   1.00
N919   N     0.71426   0.50001   0.75001   0.00000  Uiso   1.00
N920   N     0.95241   0.49999   0.74999   0.00000  Uiso   1.00
O921   O     0.79512   0.56108   0.75001   0.00000  Uiso   1.00
O922   O     0.87154   0.43892   0.75000   0.00000  Uiso   1.00
O923   O     0.87157   0.56107   0.75000   0.00000  Uiso   1.00
O924   O     0.79510   0.43893   0.75000   0.00000  Uiso   1.00
O925   O     0.77328   0.50001   0.81613   0.00000  Uiso   1.00
O926   O     0.89339   0.49999   0.68388   0.00000  Uiso   1.00
O927   O     0.84972   0.50000   0.81612   0.00000  Uiso   1.00
O928   O     0.81695   0.50000   0.68388   0.00000  Uiso   1.00
Zn929  Zn    0.78229   0.50001   0.75000   0.00000  Uiso   1.00
Zn930  Zn    0.88438   0.49999   0.75000   0.00000  Uiso   1.00
C931   C     0.16979   0.91209   0.74263   0.00000  Uiso   1.00
C932   C     0.13708   0.97566   0.72576   0.00000  Uiso   1.00
C933   C     0.16364   0.70742   0.75351   0.00000  Uiso   1.00
C934   C     0.17511   0.95565   0.73139   0.00000  Uiso   1.00
C935   C     0.31845   0.80585   0.72205   0.00000  Uiso   1.00
C936   C     0.01501   0.86107   0.77798   0.00000  Uiso   1.00
C937   C     0.03288   0.80692   0.72094   0.00000  Uiso   1.00
C938   C     0.30090   0.86146   0.77755   0.00000  Uiso   1.00
C939   C     0.13781   0.83114   0.83689   0.00000  Uiso   1.00
C940   C     0.19552   0.83311   0.66296   0.00000  Uiso   1.00
C941   C     0.12323   0.82068   0.88449   0.00000  Uiso   1.00
C942   C     0.16499   0.75311   0.75294   0.00000  Uiso   1.00
C943   C     0.21187   0.83374   0.61386   0.00000  Uiso   1.00
C944   C     0.07918   0.77828   0.94671   0.00000  Uiso   1.00
C945   C     0.27304   0.85035   0.54892   0.00000  Uiso   1.00
C946   C     0.08720   0.79123   0.90281   0.00000  Uiso   1.00
C947   C     0.25901   0.82923   0.58906   0.00000  Uiso   1.00
C948   C     0.15302   0.83366   0.90882   0.00000  Uiso   1.00
C949   C     0.18066   0.83024   0.58940   0.00000  Uiso   1.00
C950   C     0.14962   0.81623   0.94935   0.00000  Uiso   1.00
C951   C     0.19884   0.82853   0.54204   0.00000  Uiso   1.00
C952   C     0.10874   0.79299   0.97087   0.00000  Uiso   1.00
C953   C     0.13569   0.78491   0.53300   0.00000  Uiso   1.00
C954   C     0.24461   0.84370   0.52121   0.00000  Uiso   1.00
C955   C     0.18397   0.82359   0.97094   0.00000  Uiso   1.00
C956   C     0.17199   0.81349   0.51608   0.00000  Uiso   1.00
C957   C     0.23122   0.83501   0.94864   0.00000  Uiso   1.00
C958   C     0.09969   0.78298   0.51553   0.00000  Uiso   1.00
C959   C     0.26090   0.84733   0.97413   0.00000  Uiso   1.00
C960   C     0.21183   0.97911   0.73891   0.00000  Uiso   1.00
C961   C     0.12854   0.68394   0.74142   0.00000  Uiso   1.00
C962   C     0.20360   0.68698   0.75573   0.00000  Uiso   1.00
H963   H     0.14350   0.82702   0.60631   0.00000  Uiso   1.00
H964   H     0.17993   0.85677   0.89526   0.00000  Uiso   1.00
I965   I     0.04507   0.81641   0.56289   0.00000  Uiso   1.00
I966   I     0.05668   0.70149   0.76163   0.00000  Uiso   1.00
I967   I     0.24411   0.71166   0.79647   0.00000  Uiso   1.00
I968   I     0.09714   0.94462   0.68731   0.00000  Uiso   1.00
I969   I     0.29844   0.75964   0.68021   0.00000  Uiso   1.00
I970   I     0.03535   0.90559   0.82184   0.00000  Uiso   1.00
I971   I     0.08242   0.76920   0.67060   0.00000  Uiso   1.00
I972   I     0.25296   0.90631   0.82139   0.00000  Uiso   1.00
I973   I     0.33115   0.86660   0.94121   0.00000  Uiso   1.00
I974   I     0.26866   0.76266   0.57812   0.00000  Uiso   1.00
I975   I     0.04717   0.76278   0.86447   0.00000  Uiso   1.00
I976   I     0.03069   0.72854   0.97274   0.00000  Uiso   1.00
I977   I     0.29950   0.91203   0.55572   0.00000  Uiso   1.00
I978   I     0.15088   0.72774   0.55618   0.00000  Uiso   1.00
I979   I     0.26345   0.81084   0.88086   0.00000  Uiso   1.00
I980   I     0.28255   0.95782   0.71102   0.00000  Uiso   1.00
N981   N     0.04759   0.83334   0.75001   0.00000  Uiso   1.00
N982   N     0.28574   0.83332   0.74999   0.00000  Uiso   1.00
O983   O     0.12846   0.89442   0.75001   0.00000  Uiso   1.00
O984   O     0.20488   0.77225   0.75000   0.00000  Uiso   1.00
O985   O     0.20490   0.89441   0.75000   0.00000  Uiso   1.00
O986   O     0.12843   0.77226   0.75000   0.00000  Uiso   1.00
O987   O     0.10661   0.83334   0.81613   0.00000  Uiso   1.00
O988   O     0.22672   0.83333   0.68388   0.00000  Uiso   1.00
O989   O     0.18305   0.83333   0.81612   0.00000  Uiso   1.00
O990   O     0.15028   0.83334   0.68388   0.00000  Uiso   1.00
Zn991  Zn    0.11562   0.83334   0.75000   0.00000  Uiso   1.00
Zn992  Zn    0.21771   0.83333   0.75000   0.00000  Uiso   1.00
C993   C     0.50313   0.91209   0.74263   0.00000  Uiso   1.00
C994   C     0.47041   0.97566   0.72576   0.00000  Uiso   1.00
C995   C     0.49698   0.70742   0.75351   0.00000  Uiso   1.00
C996   C     0.50845   0.95565   0.73139   0.00000  Uiso   1.00
C997   C     0.65178   0.80585   0.72205   0.00000  Uiso   1.00
C998   C     0.34835   0.86107   0.77798   0.00000  Uiso   1.00
C999   C     0.36621   0.80692   0.72094   0.00000  Uiso   1.00
C1000  C     0.63424   0.86146   0.77755   0.00000  Uiso   1.00
C1001  C     0.47115   0.83114   0.83689   0.00000  Uiso   1.00
C1002  C     0.52886   0.83311   0.66296   0.00000  Uiso   1.00
C1003  C     0.45657   0.82068   0.88449   0.00000  Uiso   1.00
C1004  C     0.49832   0.75311   0.75294   0.00000  Uiso   1.00
C1005  C     0.54521   0.83374   0.61386   0.00000  Uiso   1.00
C1006  C     0.41251   0.77828   0.94671   0.00000  Uiso   1.00
C1007  C     0.60637   0.85035   0.54892   0.00000  Uiso   1.00
C1008  C     0.42053   0.79123   0.90281   0.00000  Uiso   1.00
C1009  C     0.59234   0.82923   0.58906   0.00000  Uiso   1.00
C1010  C     0.48635   0.83366   0.90882   0.00000  Uiso   1.00
C1011  C     0.51399   0.83024   0.58940   0.00000  Uiso   1.00
C1012  C     0.48295   0.81623   0.94935   0.00000  Uiso   1.00
C1013  C     0.53218   0.82853   0.54204   0.00000  Uiso   1.00
C1014  C     0.44207   0.79299   0.97087   0.00000  Uiso   1.00
C1015  C     0.46903   0.78491   0.53300   0.00000  Uiso   1.00
C1016  C     0.57794   0.84370   0.52121   0.00000  Uiso   1.00
C1017  C     0.51730   0.82359   0.97094   0.00000  Uiso   1.00
C1018  C     0.50532   0.81349   0.51608   0.00000  Uiso   1.00
C1019  C     0.56455   0.83501   0.94864   0.00000  Uiso   1.00
C1020  C     0.43302   0.78298   0.51553   0.00000  Uiso   1.00
C1021  C     0.59423   0.84733   0.97413   0.00000  Uiso   1.00
C1022  C     0.54516   0.97911   0.73891   0.00000  Uiso   1.00
C1023  C     0.46187   0.68394   0.74142   0.00000  Uiso   1.00
C1024  C     0.53693   0.68698   0.75573   0.00000  Uiso   1.00
H1025  H     0.47684   0.82702   0.60631   0.00000  Uiso   1.00
H1026  H     0.51326   0.85677   0.89526   0.00000  Uiso   1.00
I1027  I     0.37841   0.81641   0.56289   0.00000  Uiso   1.00
I1028  I     0.39001   0.70149   0.76163   0.00000  Uiso   1.00
I1029  I     0.57744   0.71166   0.79647   0.00000  Uiso   1.00
I1030  I     0.43047   0.94462   0.68731   0.00000  Uiso   1.00
I1031  I     0.63177   0.75964   0.68021   0.00000  Uiso   1.00
I1032  I     0.36868   0.90559   0.82184   0.00000  Uiso   1.00
I1033  I     0.41576   0.76920   0.67060   0.00000  Uiso   1.00
I1034  I     0.58629   0.90631   0.82139   0.00000  Uiso   1.00
I1035  I     0.66449   0.86660   0.94121   0.00000  Uiso   1.00
I1036  I     0.60199   0.76266   0.57812   0.00000  Uiso   1.00
I1037  I     0.38051   0.76278   0.86447   0.00000  Uiso   1.00
I1038  I     0.36402   0.72854   0.97274   0.00000  Uiso   1.00
I1039  I     0.63283   0.91203   0.55572   0.00000  Uiso   1.00
I1040  I     0.48421   0.72774   0.55618   0.00000  Uiso   1.00
I1041  I     0.59679   0.81084   0.88086   0.00000  Uiso   1.00
I1042  I     0.61588   0.95782   0.71102   0.00000  Uiso   1.00
N1043  N     0.38093   0.83334   0.75001   0.00000  Uiso   1.00
N1044  N     0.61907   0.83332   0.74999   0.00000  Uiso   1.00
O1045  O     0.46179   0.89442   0.75001   0.00000  Uiso   1.00
O1046  O     0.53821   0.77225   0.75000   0.00000  Uiso   1.00
O1047  O     0.53823   0.89441   0.75000   0.00000  Uiso   1.00
O1048  O     0.46177   0.77226   0.75000   0.00000  Uiso   1.00
O1049  O     0.43994   0.83334   0.81613   0.00000  Uiso   1.00
O1050  O     0.56006   0.83333   0.68388   0.00000  Uiso   1.00
O1051  O     0.51639   0.83333   0.81612   0.00000  Uiso   1.00
O1052  O     0.48361   0.83334   0.68388   0.00000  Uiso   1.00
Zn1053 Zn    0.44896   0.83334   0.75000   0.00000  Uiso   1.00
Zn1054 Zn    0.55104   0.83333   0.75000   0.00000  Uiso   1.00
C1055  C     0.83646   0.91209   0.74263   0.00000  Uiso   1.00
C1056  C     0.80375   0.97566   0.72576   0.00000  Uiso   1.00
C1057  C     0.83031   0.70742   0.75351   0.00000  Uiso   1.00
C1058  C     0.84178   0.95565   0.73139   0.00000  Uiso   1.00
C1059  C     0.98512   0.80585   0.72205   0.00000  Uiso   1.00
C1060  C     0.68168   0.86107   0.77798   0.00000  Uiso   1.00
C1061  C     0.69954   0.80692   0.72094   0.00000  Uiso   1.00
C1062  C     0.96757   0.86146   0.77755   0.00000  Uiso   1.00
C1063  C     0.80448   0.83114   0.83689   0.00000  Uiso   1.00
C1064  C     0.86219   0.83311   0.66296   0.00000  Uiso   1.00
C1065  C     0.78990   0.82068   0.88449   0.00000  Uiso   1.00
C1066  C     0.83165   0.75311   0.75294   0.00000  Uiso   1.00
C1067  C     0.87854   0.83374   0.61386   0.00000  Uiso   1.00
C1068  C     0.74585   0.77828   0.94671   0.00000  Uiso   1.00
C1069  C     0.93971   0.85035   0.54892   0.00000  Uiso   1.00
C1070  C     0.75387   0.79123   0.90281   0.00000  Uiso   1.00
C1071  C     0.92567   0.82923   0.58906   0.00000  Uiso   1.00
C1072  C     0.81969   0.83366   0.90882   0.00000  Uiso   1.00
C1073  C     0.84733   0.83024   0.58940   0.00000  Uiso   1.00
C1074  C     0.81629   0.81623   0.94935   0.00000  Uiso   1.00
C1075  C     0.86551   0.82853   0.54204   0.00000  Uiso   1.00
C1076  C     0.77540   0.79299   0.97087   0.00000  Uiso   1.00
C1077  C     0.80236   0.78491   0.53300   0.00000  Uiso   1.00
C1078  C     0.91127   0.84370   0.52121   0.00000  Uiso   1.00
C1079  C     0.85064   0.82359   0.97094   0.00000  Uiso   1.00
C1080  C     0.83865   0.81349   0.51608   0.00000  Uiso   1.00
C1081  C     0.89789   0.83501   0.94864   0.00000  Uiso   1.00
C1082  C     0.76636   0.78298   0.51553   0.00000  Uiso   1.00
C1083  C     0.92757   0.84733   0.97413   0.00000  Uiso   1.00
C1084  C     0.87849   0.97911   0.73891   0.00000  Uiso   1.00
C1085  C     0.79521   0.68394   0.74142   0.00000  Uiso   1.00
C1086  C     0.87026   0.68698   0.75573   0.00000  Uiso   1.00
H1087  H     0.81017   0.82702   0.60631   0.00000  Uiso   1.00
H1088  H     0.84660   0.85677   0.89526   0.00000  Uiso   1.00
I1089  I     0.71174   0.81641   0.56289   0.00000  Uiso   1.00
I1090  I     0.72334   0.70149   0.76163   0.00000  Uiso   1.00
I1091  I     0.91078   0.71166   0.79647   0.00000  Uiso   1.00
I1092  I     0.76380   0.94462   0.68731   0.00000  Uiso   1.00
I1093  I     0.96510   0.75964   0.68021   0.00000  Uiso   1.00
I1094  I     0.70202   0.90559   0.82184   0.00000  Uiso   1.00
I1095  I     0.74909   0.76920   0.67060   0.00000  Uiso   1.00
I1096  I     0.91962   0.90631   0.82139   0.00000  Uiso   1.00
I1097  I     0.99782   0.86660   0.94121   0.00000  Uiso   1.00
I1098  I     0.93532   0.76266   0.57812   0.00000  Uiso   1.00
I1099  I     0.71384   0.76278   0.86447   0.00000  Uiso   1.00
I1100  I     0.69736   0.72854   0.97274   0.00000  Uiso   1.00
I1101  I     0.96617   0.91203   0.55572   0.00000  Uiso   1.00
I1102  I     0.81754   0.72774   0.55618   0.00000  Uiso   1.00
I1103  I     0.93012   0.81084   0.88086   0.00000  Uiso   1.00
I1104  I     0.94922   0.95782   0.71102   0.00000  Uiso   1.00
N1105  N     0.71426   0.83334   0.75001   0.00000  Uiso   1.00
N1106  N     0.95241   0.83332   0.74999   0.00000  Uiso   1.00
O1107  O     0.79512   0.89442   0.75001   0.00000  Uiso   1.00
O1108  O     0.87154   0.77225   0.75000   0.00000  Uiso   1.00
O1109  O     0.87157   0.89441   0.75000   0.00000  Uiso   1.00
O1110  O     0.79510   0.77226   0.75000   0.00000  Uiso   1.00
O1111  O     0.77328   0.83334   0.81613   0.00000  Uiso   1.00
O1112  O     0.89339   0.83333   0.68388   0.00000  Uiso   1.00
O1113  O     0.84972   0.83333   0.81612   0.00000  Uiso   1.00
O1114  O     0.81695   0.83334   0.68388   0.00000  Uiso   1.00
Zn1115 Zn    0.78229   0.83334   0.75000   0.00000  Uiso   1.00
Zn1116 Zn    0.88438   0.83333   0.75000   0.00000  Uiso   1.00
loop_
_geom_bond_atom_site_label_1
_geom_bond_atom_site_label_2
_geom_bond_distance
_geom_bond_site_symmetry_2
_ccdc_geom_bond_type
C1     C4      1.445   .     S
C1     O55     1.306   .     A
C1     O53     1.313   .     A
C2     C4      1.394   .     A
C2     I38     2.152   .     S
C2     C217    1.384   .     S
C3     C31     1.419   .     A
C3     C32     1.410   .     A
C3     C12     1.455   .     S
C4     C30     1.397   .     A
C5     I39     2.118   .     S
C5     N52     1.377   .     A
C5     C69     1.433   .     S
C6     N51     1.380   .     A
C6     I40     2.132   .     S
C6     C132    1.439   1_455 S
C7     I41     2.120   .     S
C7     N51     1.374   .     A
C7     C129    1.433   1_455 S
C8     N52     1.379   .     A
C8     I42     2.143   .     S
C8     C68     1.439   .     S
C9     C11     1.473   .     S
C9     O57     1.316   .     A
C9     O59     1.312   .     A
C10    O60     1.311   .     A
C10    O58     1.313   .     A
C10    C13     1.460   .     S
C11    C18     1.398   .     A
C11    C16     1.416   .     A
C12    O56     1.308   .     A
C12    O54     1.316   .     A
C13    C17     1.390   .     A
C13    C19     1.396   .     A
C14    C22     1.403   .     A
C14    I46     2.142   .     S
C14    C16     1.407   .     A
C15    I47     2.125   .     S
C15    C24     1.413   .     A
C15    C17     1.403   .     A
C16    I45     2.119   .     S
C17    I44     2.137   .     S
C18    H34     1.081   .     S
C18    C20     1.394   .     A
C19    H33     1.080   .     S
C19    C21     1.406   .     A
C20    C22     1.416   .     A
C20    C25     1.421   .     A
C21    C26     1.384   .     A
C21    C24     1.412   .     A
C22    C586    1.396   .     S
C23    I48     2.117   .     S
C23    C28     1.368   .     A
C23    C26     1.395   .     A
C24    C587    1.410   1_554 S
C25    C27     1.421   .     A
C25    C584    1.401   .     S
C26    C583    1.401   1_554 S
C27    C29     1.418   .     A
C27    I49     2.134   .     S
C28    I35     2.089   .     S
C28    C580    1.396   1_554 S
C29    I43     2.131   .     S
C29    C582    1.410   .     S
C30    I50     2.140   .     S
C30    C218    1.380   .     S
C31    I36     2.134   .     S
C31    C374    1.384   1_545 S
C32    I37     2.145   .     S
C32    C402    1.380   1_545 S
N51    Zn61    2.057   .     S
N52    Zn62    2.057   .     S
O53    Zn61    1.973   .     S
O54    Zn62    1.973   .     S
O55    Zn62    1.992   .     S
O56    Zn61    1.992   .     S
O57    Zn61    2.006   .     S
O58    Zn62    2.006   .     S
O59    Zn62    1.999   .     S
O60    Zn61    1.999   .     S
C63    C66     1.445   .     S
C63    O117    1.306   .     A
C63    O115    1.313   .     A
C64    C66     1.394   .     A
C64    I100    2.152   .     S
C64    C279    1.384   .     S
C65    C93     1.419   .     A
C65    C94     1.410   .     A
C65    C74     1.455   .     S
C66    C92     1.397   .     A
C67    I101    2.118   .     S
C67    N114    1.377   .     A
C67    C131    1.433   .     S
C68    N113    1.380   .     A
C68    I102    2.132   .     S
C69    I103    2.120   .     S
C69    N113    1.374   .     A
C70    N114    1.379   .     A
C70    I104    2.143   .     S
C70    C130    1.439   .     S
C71    C73     1.473   .     S
C71    O119    1.316   .     A
C71    O121    1.312   .     A
C72    O122    1.311   .     A
C72    O120    1.313   .     A
C72    C75     1.460   .     S
C73    C80     1.398   .     A
C73    C78     1.416   .     A
C74    O118    1.308   .     A
C74    O116    1.316   .     A
C75    C79     1.390   .     A
C75    C81     1.396   .     A
C76    C84     1.403   .     A
C76    I108    2.142   .     S
C76    C78     1.407   .     A
C77    I109    2.125   .     S
C77    C86     1.413   .     A
C77    C79     1.403   .     A
C78    I107    2.119   .     S
C79    I106    2.137   .     S
C80    H96     1.081   .     S
C80    C82     1.394   .     A
C81    H95     1.080   .     S
C81    C83     1.406   .     A
C82    C84     1.416   .     A
C82    C87     1.421   .     A
C83    C88     1.384   .     A
C83    C86     1.412   .     A
C84    C648    1.396   .     S
C85    I110    2.117   .     S
C85    C90     1.368   .     A
C85    C88     1.395   .     A
C86    C649    1.410   1_554 S
C87    C89     1.421   .     A
C87    C646    1.401   .     S
C88    C645    1.401   1_554 S
C89    C91     1.418   .     A
C89    I111    2.134   .     S
C90    I97     2.089   .     S
C90    C642    1.396   1_554 S
C91    I105    2.131   .     S
C91    C644    1.410   .     S
C92    I112    2.140   .     S
C92    C280    1.380   .     S
C93    I98     2.134   .     S
C93    C436    1.384   1_545 S
C94    I99     2.145   .     S
C94    C464    1.380   1_545 S
N113   Zn123   2.057   .     S
N114   Zn124   2.057   .     S
O115   Zn123   1.973   .     S
O116   Zn124   1.973   .     S
O117   Zn124   1.992   .     S
O118   Zn123   1.992   .     S
O119   Zn123   2.006   .     S
O120   Zn124   2.006   .     S
O121   Zn124   1.999   .     S
O122   Zn123   1.999   .     S
C125   C128    1.445   .     S
C125   O179    1.306   .     A
C125   O177    1.313   .     A
C126   C128    1.394   .     A
C126   I162    2.152   .     S
C126   C341    1.384   .     S
C127   C155    1.419   .     A
C127   C156    1.410   .     A
C127   C136    1.455   .     S
C128   C154    1.397   .     A
C129   I163    2.118   .     S
C129   N176    1.377   .     A
C129   C7      1.433   1_655 S
C130   N175    1.380   .     A
C130   I164    2.132   .     S
C131   I165    2.120   .     S
C131   N175    1.374   .     A
C132   N176    1.379   .     A
C132   I166    2.143   .     S
C132   C6      1.439   1_655 S
C133   C135    1.473   .     S
C133   O181    1.316   .     A
C133   O183    1.312   .     A
C134   O184    1.311   .     A
C134   O182    1.313   .     A
C134   C137    1.460   .     S
C135   C142    1.398   .     A
C135   C140    1.416   .     A
C136   O180    1.308   .     A
C136   O178    1.316   .     A
C137   C141    1.390   .     A
C137   C143    1.396   .     A
C138   C146    1.403   .     A
C138   I170    2.142   .     S
C138   C140    1.407   .     A
C139   I171    2.125   .     S
C139   C148    1.413   .     A
C139   C141    1.403   .     A
C140   I169    2.119   .     S
C141   I168    2.137   .     S
C142   H158    1.081   .     S
C142   C144    1.394   .     A
C143   H157    1.080   .     S
C143   C145    1.406   .     A
C144   C146    1.416   .     A
C144   C149    1.421   .     A
C145   C150    1.384   .     A
C145   C148    1.412   .     A
C146   C710    1.396   .     S
C147   I172    2.117   .     S
C147   C152    1.368   .     A
C147   C150    1.395   .     A
C148   C711    1.410   1_554 S
C149   C151    1.421   .     A
C149   C708    1.401   .     S
C150   C707    1.401   1_554 S
C151   C153    1.418   .     A
C151   I173    2.134   .     S
C152   I159    2.089   .     S
C152   C704    1.396   1_554 S
C153   I167    2.131   .     S
C153   C706    1.410   .     S
C154   I174    2.140   .     S
C154   C342    1.380   .     S
C155   I160    2.134   .     S
C155   C498    1.384   1_545 S
C156   I161    2.145   .     S
C156   C526    1.380   1_545 S
N175   Zn185   2.057   .     S
N176   Zn186   2.057   .     S
O177   Zn185   1.973   .     S
O178   Zn186   1.973   .     S
O179   Zn186   1.992   .     S
O180   Zn185   1.992   .     S
O181   Zn185   2.006   .     S
O182   Zn186   2.006   .     S
O183   Zn186   1.999   .     S
O184   Zn185   1.999   .     S
C187   C190    1.445   .     S
C187   O241    1.306   .     A
C187   O239    1.313   .     A
C188   C190    1.394   .     A
C188   I224    2.152   .     S
C188   C403    1.384   .     S
C189   C217    1.419   .     A
C189   C218    1.410   .     A
C189   C198    1.455   .     S
C190   C216    1.397   .     A
C191   I225    2.118   .     S
C191   N238    1.377   .     A
C191   C255    1.433   .     S
C192   N237    1.380   .     A
C192   I226    2.132   .     S
C192   C318    1.439   1_455 S
C193   I227    2.120   .     S
C193   N237    1.374   .     A
C193   C315    1.433   1_455 S
C194   N238    1.379   .     A
C194   I228    2.143   .     S
C194   C254    1.439   .     S
C195   C197    1.473   .     S
C195   O243    1.316   .     A
C195   O245    1.312   .     A
C196   O246    1.311   .     A
C196   O244    1.313   .     A
C196   C199    1.460   .     S
C197   C204    1.398   .     A
C197   C202    1.416   .     A
C198   O242    1.308   .     A
C198   O240    1.316   .     A
C199   C203    1.390   .     A
C199   C205    1.396   .     A
C200   C208    1.403   .     A
C200   I232    2.142   .     S
C200   C202    1.407   .     A
C201   I233    2.125   .     S
C201   C210    1.413   .     A
C201   C203    1.403   .     A
C202   I231    2.119   .     S
C203   I230    2.137   .     S
C204   H220    1.081   .     S
C204   C206    1.394   .     A
C205   H219    1.080   .     S
C205   C207    1.406   .     A
C206   C208    1.416   .     A
C206   C211    1.421   .     A
C207   C212    1.384   .     A
C207   C210    1.412   .     A
C208   C772    1.396   .     S
C209   I234    2.117   .     S
C209   C214    1.368   .     A
C209   C212    1.395   .     A
C210   C773    1.410   1_554 S
C211   C213    1.421   .     A
C211   C770    1.401   .     S
C212   C769    1.401   1_554 S
C213   C215    1.418   .     A
C213   I235    2.134   .     S
C214   I221    2.089   .     S
C214   C766    1.396   1_554 S
C215   I229    2.131   .     S
C215   C768    1.410   .     S
C216   I236    2.140   .     S
C216   C404    1.380   .     S
C217   I222    2.134   .     S
C218   I223    2.145   .     S
N237   Zn247   2.057   .     S
N238   Zn248   2.057   .     S
O239   Zn247   1.973   .     S
O240   Zn248   1.973   .     S
O241   Zn248   1.992   .     S
O242   Zn247   1.992   .     S
O243   Zn247   2.006   .     S
O244   Zn248   2.006   .     S
O245   Zn248   1.999   .     S
O246   Zn247   1.999   .     S
C249   C252    1.445   .     S
C249   O303    1.306   .     A
C249   O301    1.313   .     A
C250   C252    1.394   .     A
C250   I286    2.152   .     S
C250   C465    1.384   .     S
C251   C279    1.419   .     A
C251   C280    1.410   .     A
C251   C260    1.455   .     S
C252   C278    1.397   .     A
C253   I287    2.118   .     S
C253   N300    1.377   .     A
C253   C317    1.433   .     S
C254   N299    1.380   .     A
C254   I288    2.132   .     S
C255   I289    2.120   .     S
C255   N299    1.374   .     A
C256   N300    1.379   .     A
C256   I290    2.143   .     S
C256   C316    1.439   .     S
C257   C259    1.473   .     S
C257   O305    1.316   .     A
C257   O307    1.312   .     A
C258   O308    1.311   .     A
C258   O306    1.313   .     A
C258   C261    1.460   .     S
C259   C266    1.398   .     A
C259   C264    1.416   .     A
C260   O304    1.308   .     A
C260   O302    1.316   .     A
C261   C265    1.390   .     A
C261   C267    1.396   .     A
C262   C270    1.403   .     A
C262   I294    2.142   .     S
C262   C264    1.407   .     A
C263   I295    2.125   .     S
C263   C272    1.413   .     A
C263   C265    1.403   .     A
C264   I293    2.119   .     S
C265   I292    2.137   .     S
C266   H282    1.081   .     S
C266   C268    1.394   .     A
C267   H281    1.080   .     S
C267   C269    1.406   .     A
C268   C270    1.416   .     A
C268   C273    1.421   .     A
C269   C274    1.384   .     A
C269   C272    1.412   .     A
C270   C834    1.396   .     S
C271   I296    2.117   .     S
C271   C276    1.368   .     A
C271   C274    1.395   .     A
C272   C835    1.410   1_554 S
C273   C275    1.421   .     A
C273   C832    1.401   .     S
C274   C831    1.401   1_554 S
C275   C277    1.418   .     A
C275   I297    2.134   .     S
C276   I283    2.089   .     S
C276   C828    1.396   1_554 S
C277   I291    2.131   .     S
C277   C830    1.410   .     S
C278   I298    2.140   .     S
C278   C466    1.380   .     S
C279   I284    2.134   .     S
C280   I285    2.145   .     S
N299   Zn309   2.057   .     S
N300   Zn310   2.057   .     S
O301   Zn309   1.973   .     S
O302   Zn310   1.973   .     S
O303   Zn310   1.992   .     S
O304   Zn309   1.992   .     S
O305   Zn309   2.006   .     S
O306   Zn310   2.006   .     S
O307   Zn310   1.999   .     S
O308   Zn309   1.999   .     S
C311   C314    1.445   .     S
C311   O365    1.306   .     A
C311   O363    1.313   .     A
C312   C314    1.394   .     A
C312   I348    2.152   .     S
C312   C527    1.384   .     S
C313   C341    1.419   .     A
C313   C342    1.410   .     A
C313   C322    1.455   .     S
C314   C340    1.397   .     A
C315   I349    2.118   .     S
C315   N362    1.377   .     A
C315   C193    1.433   1_655 S
C316   N361    1.380   .     A
C316   I350    2.132   .     S
C317   I351    2.120   .     S
C317   N361    1.374   .     A
C318   N362    1.379   .     A
C318   I352    2.143   .     S
C318   C192    1.439   1_655 S
C319   C321    1.473   .     S
C319   O367    1.316   .     A
C319   O369    1.312   .     A
C320   O370    1.311   .     A
C320   O368    1.313   .     A
C320   C323    1.460   .     S
C321   C328    1.398   .     A
C321   C326    1.416   .     A
C322   O366    1.308   .     A
C322   O364    1.316   .     A
C323   C327    1.390   .     A
C323   C329    1.396   .     A
C324   C332    1.403   .     A
C324   I356    2.142   .     S
C324   C326    1.407   .     A
C325   I357    2.125   .     S
C325   C334    1.413   .     A
C325   C327    1.403   .     A
C326   I355    2.119   .     S
C327   I354    2.137   .     S
C328   H344    1.081   .     S
C328   C330    1.394   .     A
C329   H343    1.080   .     S
C329   C331    1.406   .     A
C330   C332    1.416   .     A
C330   C335    1.421   .     A
C331   C336    1.384   .     A
C331   C334    1.412   .     A
C332   C896    1.396   .     S
C333   I358    2.117   .     S
C333   C338    1.368   .     A
C333   C336    1.395   .     A
C334   C897    1.410   1_554 S
C335   C337    1.421   .     A
C335   C894    1.401   .     S
C336   C893    1.401   1_554 S
C337   C339    1.418   .     A
C337   I359    2.134   .     S
C338   I345    2.089   .     S
C338   C890    1.396   1_554 S
C339   I353    2.131   .     S
C339   C892    1.410   .     S
C340   I360    2.140   .     S
C340   C528    1.380   .     S
C341   I346    2.134   .     S
C342   I347    2.145   .     S
N361   Zn371   2.057   .     S
N362   Zn372   2.057   .     S
O363   Zn371   1.973   .     S
O364   Zn372   1.973   .     S
O365   Zn372   1.992   .     S
O366   Zn371   1.992   .     S
O367   Zn371   2.006   .     S
O368   Zn372   2.006   .     S
O369   Zn372   1.999   .     S
O370   Zn371   1.999   .     S
C373   C376    1.445   .     S
C373   O427    1.306   .     A
C373   O425    1.313   .     A
C374   C376    1.394   .     A
C374   I410    2.152   .     S
C374   C31     1.384   1_565 S
C375   C403    1.419   .     A
C375   C404    1.410   .     A
C375   C384    1.455   .     S
C376   C402    1.397   .     A
C377   I411    2.118   .     S
C377   N424    1.377   .     A
C377   C441    1.433   .     S
C378   N423    1.380   .     A
C378   I412    2.132   .     S
C378   C504    1.439   1_455 S
C379   I413    2.120   .     S
C379   N423    1.374   .     A
C379   C501    1.433   1_455 S
C380   N424    1.379   .     A
C380   I414    2.143   .     S
C380   C440    1.439   .     S
C381   C383    1.473   .     S
C381   O429    1.316   .     A
C381   O431    1.312   .     A
C382   O432    1.311   .     A
C382   O430    1.313   .     A
C382   C385    1.460   .     S
C383   C390    1.398   .     A
C383   C388    1.416   .     A
C384   O428    1.308   .     A
C384   O426    1.316   .     A
C385   C389    1.390   .     A
C385   C391    1.396   .     A
C386   C394    1.403   .     A
C386   I418    2.142   .     S
C386   C388    1.407   .     A
C387   I419    2.125   .     S
C387   C396    1.413   .     A
C387   C389    1.403   .     A
C388   I417    2.119   .     S
C389   I416    2.137   .     S
C390   H406    1.081   .     S
C390   C392    1.394   .     A
C391   H405    1.080   .     S
C391   C393    1.406   .     A
C392   C394    1.416   .     A
C392   C397    1.421   .     A
C393   C398    1.384   .     A
C393   C396    1.412   .     A
C394   C958    1.396   .     S
C395   I420    2.117   .     S
C395   C400    1.368   .     A
C395   C398    1.395   .     A
C396   C959    1.410   1_554 S
C397   C399    1.421   .     A
C397   C956    1.401   .     S
C398   C955    1.401   1_554 S
C399   C401    1.418   .     A
C399   I421    2.134   .     S
C400   I407    2.089   .     S
C400   C952    1.396   1_554 S
C401   I415    2.131   .     S
C401   C954    1.410   .     S
C402   I422    2.140   .     S
C402   C32     1.380   1_565 S
C403   I408    2.134   .     S
C404   I409    2.145   .     S
N423   Zn433   2.057   .     S
N424   Zn434   2.057   .     S
O425   Zn433   1.973   .     S
O426   Zn434   1.973   .     S
O427   Zn434   1.992   .     S
O428   Zn433   1.992   .     S
O429   Zn433   2.006   .     S
O430   Zn434   2.006   .     S
O431   Zn434   1.999   .     S
O432   Zn433   1.999   .     S
C435   C438    1.445   .     S
C435   O489    1.306   .     A
C435   O487    1.313   .     A
C436   C438    1.394   .     A
C436   I472    2.152   .     S
C436   C93     1.384   1_565 S
C437   C465    1.419   .     A
C437   C466    1.410   .     A
C437   C446    1.455   .     S
C438   C464    1.397   .     A
C439   I473    2.118   .     S
C439   N486    1.377   .     A
C439   C503    1.433   .     S
C440   N485    1.380   .     A
C440   I474    2.132   .     S
C441   I475    2.120   .     S
C441   N485    1.374   .     A
C442   N486    1.379   .     A
C442   I476    2.143   .     S
C442   C502    1.439   .     S
C443   C445    1.473   .     S
C443   O491    1.316   .     A
C443   O493    1.312   .     A
C444   O494    1.311   .     A
C444   O492    1.313   .     A
C444   C447    1.460   .     S
C445   C452    1.398   .     A
C445   C450    1.416   .     A
C446   O490    1.308   .     A
C446   O488    1.316   .     A
C447   C451    1.390   .     A
C447   C453    1.396   .     A
C448   C456    1.403   .     A
C448   I480    2.142   .     S
C448   C450    1.407   .     A
C449   I481    2.125   .     S
C449   C458    1.413   .     A
C449   C451    1.403   .     A
C450   I479    2.119   .     S
C451   I478    2.137   .     S
C452   H468    1.081   .     S
C452   C454    1.394   .     A
C453   H467    1.080   .     S
C453   C455    1.406   .     A
C454   C456    1.416   .     A
C454   C459    1.421   .     A
C455   C460    1.384   .     A
C455   C458    1.412   .     A
C456   C1020   1.396   .     S
C457   I482    2.117   .     S
C457   C462    1.368   .     A
C457   C460    1.395   .     A
C458   C1021   1.410   1_554 S
C459   C461    1.421   .     A
C459   C1018   1.401   .     S
C460   C1017   1.401   1_554 S
C461   C463    1.418   .     A
C461   I483    2.134   .     S
C462   I469    2.089   .     S
C462   C1014   1.396   1_554 S
C463   I477    2.131   .     S
C463   C1016   1.410   .     S
C464   I484    2.140   .     S
C464   C94     1.380   1_565 S
C465   I470    2.134   .     S
C466   I471    2.145   .     S
N485   Zn495   2.057   .     S
N486   Zn496   2.057   .     S
O487   Zn495   1.973   .     S
O488   Zn496   1.973   .     S
O489   Zn496   1.992   .     S
O490   Zn495   1.992   .     S
O491   Zn495   2.006   .     S
O492   Zn496   2.006   .     S
O493   Zn496   1.999   .     S
O494   Zn495   1.999   .     S
C497   C500    1.445   .     S
C497   O551    1.306   .     A
C497   O549    1.313   .     A
C498   C500    1.394   .     A
C498   I534    2.152   .     S
C498   C155    1.384   1_565 S
C499   C527    1.419   .     A
C499   C528    1.410   .     A
C499   C508    1.455   .     S
C500   C526    1.397   .     A
C501   I535    2.118   .     S
C501   N548    1.377   .     A
C501   C379    1.433   1_655 S
C502   N547    1.380   .     A
C502   I536    2.132   .     S
C503   I537    2.120   .     S
C503   N547    1.374   .     A
C504   N548    1.379   .     A
C504   I538    2.143   .     S
C504   C378    1.439   1_655 S
C505   C507    1.473   .     S
C505   O553    1.316   .     A
C505   O555    1.312   .     A
C506   O556    1.311   .     A
C506   O554    1.313   .     A
C506   C509    1.460   .     S
C507   C514    1.398   .     A
C507   C512    1.416   .     A
C508   O552    1.308   .     A
C508   O550    1.316   .     A
C509   C513    1.390   .     A
C509   C515    1.396   .     A
C510   C518    1.403   .     A
C510   I542    2.142   .     S
C510   C512    1.407   .     A
C511   I543    2.125   .     S
C511   C520    1.413   .     A
C511   C513    1.403   .     A
C512   I541    2.119   .     S
C513   I540    2.137   .     S
C514   H530    1.081   .     S
C514   C516    1.394   .     A
C515   H529    1.080   .     S
C515   C517    1.406   .     A
C516   C518    1.416   .     A
C516   C521    1.421   .     A
C517   C522    1.384   .     A
C517   C520    1.412   .     A
C518   C1082   1.396   .     S
C519   I544    2.117   .     S
C519   C524    1.368   .     A
C519   C522    1.395   .     A
C520   C1083   1.410   1_554 S
C521   C523    1.421   .     A
C521   C1080   1.401   .     S
C522   C1079   1.401   1_554 S
C523   C525    1.418   .     A
C523   I545    2.134   .     S
C524   I531    2.089   .     S
C524   C1076   1.396   1_554 S
C525   I539    2.131   .     S
C525   C1078   1.410   .     S
C526   I546    2.140   .     S
C526   C156    1.380   1_565 S
C527   I532    2.134   .     S
C528   I533    2.145   .     S
N547   Zn557   2.057   .     S
N548   Zn558   2.057   .     S
O549   Zn557   1.973   .     S
O550   Zn558   1.973   .     S
O551   Zn558   1.992   .     S
O552   Zn557   1.992   .     S
O553   Zn557   2.006   .     S
O554   Zn558   2.006   .     S
O555   Zn558   1.999   .     S
O556   Zn557   1.999   .     S
C559   C562    1.445   .     S
C559   O613    1.306   .     A
C559   O611    1.313   .     A
C560   C562    1.394   .     A
C560   I596    2.152   .     S
C560   C775    1.384   .     S
C561   C589    1.419   .     A
C561   C590    1.410   .     A
C561   C570    1.455   .     S
C562   C588    1.397   .     A
C563   I597    2.118   .     S
C563   N610    1.377   .     A
C563   C627    1.433   .     S
C564   N609    1.380   .     A
C564   I598    2.132   .     S
C564   C690    1.439   1_455 S
C565   I599    2.120   .     S
C565   N609    1.374   .     A
C565   C687    1.433   1_455 S
C566   N610    1.379   .     A
C566   I600    2.143   .     S
C566   C626    1.439   .     S
C567   C569    1.473   .     S
C567   O615    1.316   .     A
C567   O617    1.312   .     A
C568   O618    1.311   .     A
C568   O616    1.313   .     A
C568   C571    1.460   .     S
C569   C576    1.398   .     A
C569   C574    1.416   .     A
C570   O614    1.308   .     A
C570   O612    1.316   .     A
C571   C575    1.390   .     A
C571   C577    1.396   .     A
C572   C580    1.403   .     A
C572   I604    2.142   .     S
C572   C574    1.407   .     A
C573   I605    2.125   .     S
C573   C582    1.413   .     A
C573   C575    1.403   .     A
C574   I603    2.119   .     S
C575   I602    2.137   .     S
C576   H592    1.081   .     S
C576   C578    1.394   .     A
C577   H591    1.080   .     S
C577   C579    1.406   .     A
C578   C580    1.416   .     A
C578   C583    1.421   .     A
C579   C584    1.384   .     A
C579   C582    1.412   .     A
C580   C28     1.396   1_556 S
C581   I606    2.117   .     S
C581   C586    1.368   .     A
C581   C584    1.395   .     A
C583   C585    1.421   .     A
C583   C26     1.401   1_556 S
C585   C587    1.418   .     A
C585   I607    2.134   .     S
C586   I593    2.089   .     S
C587   I601    2.131   .     S
C587   C24     1.410   1_556 S
C588   I608    2.140   .     S
C588   C776    1.380   .     S
C589   I594    2.134   .     S
C589   C932    1.384   1_545 S
C590   I595    2.145   .     S
C590   C960    1.380   1_545 S
N609   Zn619   2.057   .     S
N610   Zn620   2.057   .     S
O611   Zn619   1.973   .     S
O612   Zn620   1.973   .     S
O613   Zn620   1.992   .     S
O614   Zn619   1.992   .     S
O615   Zn619   2.006   .     S
O616   Zn620   2.006   .     S
O617   Zn620   1.999   .     S
O618   Zn619   1.999   .     S
C621   C624    1.445   .     S
C621   O675    1.306   .     A
C621   O673    1.313   .     A
C622   C624    1.394   .     A
C622   I658    2.152   .     S
C622   C837    1.384   .     S
C623   C651    1.419   .     A
C623   C652    1.410   .     A
C623   C632    1.455   .     S
C624   C650    1.397   .     A
C625   I659    2.118   .     S
C625   N672    1.377   .     A
C625   C689    1.433   .     S
C626   N671    1.380   .     A
C626   I660    2.132   .     S
C627   I661    2.120   .     S
C627   N671    1.374   .     A
C628   N672    1.379   .     A
C628   I662    2.143   .     S
C628   C688    1.439   .     S
C629   C631    1.473   .     S
C629   O677    1.316   .     A
C629   O679    1.312   .     A
C630   O680    1.311   .     A
C630   O678    1.313   .     A
C630   C633    1.460   .     S
C631   C638    1.398   .     A
C631   C636    1.416   .     A
C632   O676    1.308   .     A
C632   O674    1.316   .     A
C633   C637    1.390   .     A
C633   C639    1.396   .     A
C634   C642    1.403   .     A
C634   I666    2.142   .     S
C634   C636    1.407   .     A
C635   I667    2.125   .     S
C635   C644    1.413   .     A
C635   C637    1.403   .     A
C636   I665    2.119   .     S
C637   I664    2.137   .     S
C638   H654    1.081   .     S
C638   C640    1.394   .     A
C639   H653    1.080   .     S
C639   C641    1.406   .     A
C640   C642    1.416   .     A
C640   C645    1.421   .     A
C641   C646    1.384   .     A
C641   C644    1.412   .     A
C642   C90     1.396   1_556 S
C643   I668    2.117   .     S
C643   C648    1.368   .     A
C643   C646    1.395   .     A
C645   C647    1.421   .     A
C645   C88     1.401   1_556 S
C647   C649    1.418   .     A
C647   I669    2.134   .     S
C648   I655    2.089   .     S
C649   I663    2.131   .     S
C649   C86     1.410   1_556 S
C650   I670    2.140   .     S
C650   C838    1.380   .     S
C651   I656    2.134   .     S
C651   C994    1.384   1_545 S
C652   I657    2.145   .     S
C652   C1022   1.380   1_545 S
N671   Zn681   2.057   .     S
N672   Zn682   2.057   .     S
O673   Zn681   1.973   .     S
O674   Zn682   1.973   .     S
O675   Zn682   1.992   .     S
O676   Zn681   1.992   .     S
O677   Zn681   2.006   .     S
O678   Zn682   2.006   .     S
O679   Zn682   1.999   .     S
O680   Zn681   1.999   .     S
C683   C686    1.445   .     S
C683   O737    1.306   .     A
C683   O735    1.313   .     A
C684   C686    1.394   .     A
C684   I720    2.152   .     S
C684   C899    1.384   .     S
C685   C713    1.419   .     A
C685   C714    1.410   .     A
C685   C694    1.455   .     S
C686   C712    1.397   .     A
C687   I721    2.118   .     S
C687   N734    1.377   .     A
C687   C565    1.433   1_655 S
C688   N733    1.380   .     A
C688   I722    2.132   .     S
C689   I723    2.120   .     S
C689   N733    1.374   .     A
C690   N734    1.379   .     A
C690   I724    2.143   .     S
C690   C564    1.439   1_655 S
C691   C693    1.473   .     S
C691   O739    1.316   .     A
C691   O741    1.312   .     A
C692   O742    1.311   .     A
C692   O740    1.313   .     A
C692   C695    1.460   .     S
C693   C700    1.398   .     A
C693   C698    1.416   .     A
C694   O738    1.308   .     A
C694   O736    1.316   .     A
C695   C699    1.390   .     A
C695   C701    1.396   .     A
C696   C704    1.403   .     A
C696   I728    2.142   .     S
C696   C698    1.407   .     A
C697   I729    2.125   .     S
C697   C706    1.413   .     A
C697   C699    1.403   .     A
C698   I727    2.119   .     S
C699   I726    2.137   .     S
C700   H716    1.081   .     S
C700   C702    1.394   .     A
C701   H715    1.080   .     S
C701   C703    1.406   .     A
C702   C704    1.416   .     A
C702   C707    1.421   .     A
C703   C708    1.384   .     A
C703   C706    1.412   .     A
C704   C152    1.396   1_556 S
C705   I730    2.117   .     S
C705   C710    1.368   .     A
C705   C708    1.395   .     A
C707   C709    1.421   .     A
C707   C150    1.401   1_556 S
C709   C711    1.418   .     A
C709   I731    2.134   .     S
C710   I717    2.089   .     S
C711   I725    2.131   .     S
C711   C148    1.410   1_556 S
C712   I732    2.140   .     S
C712   C900    1.380   .     S
C713   I718    2.134   .     S
C713   C1056   1.384   1_545 S
C714   I719    2.145   .     S
C714   C1084   1.380   1_545 S
N733   Zn743   2.057   .     S
N734   Zn744   2.057   .     S
O735   Zn743   1.973   .     S
O736   Zn744   1.973   .     S
O737   Zn744   1.992   .     S
O738   Zn743   1.992   .     S
O739   Zn743   2.006   .     S
O740   Zn744   2.006   .     S
O741   Zn744   1.999   .     S
O742   Zn743   1.999   .     S
C745   C748    1.445   .     S
C745   O799    1.306   .     A
C745   O797    1.313   .     A
C746   C748    1.394   .     A
C746   I782    2.152   .     S
C746   C961    1.384   .     S
C747   C775    1.419   .     A
C747   C776    1.410   .     A
C747   C756    1.455   .     S
C748   C774    1.397   .     A
C749   I783    2.118   .     S
C749   N796    1.377   .     A
C749   C813    1.433   .     S
C750   N795    1.380   .     A
C750   I784    2.132   .     S
C750   C876    1.439   1_455 S
C751   I785    2.120   .     S
C751   N795    1.374   .     A
C751   C873    1.433   1_455 S
C752   N796    1.379   .     A
C752   I786    2.143   .     S
C752   C812    1.439   .     S
C753   C755    1.473   .     S
C753   O801    1.316   .     A
C753   O803    1.312   .     A
C754   O804    1.311   .     A
C754   O802    1.313   .     A
C754   C757    1.460   .     S
C755   C762    1.398   .     A
C755   C760    1.416   .     A
C756   O800    1.308   .     A
C756   O798    1.316   .     A
C757   C761    1.390   .     A
C757   C763    1.396   .     A
C758   C766    1.403   .     A
C758   I790    2.142   .     S
C758   C760    1.407   .     A
C759   I791    2.125   .     S
C759   C768    1.413   .     A
C759   C761    1.403   .     A
C760   I789    2.119   .     S
C761   I788    2.137   .     S
C762   H778    1.081   .     S
C762   C764    1.394   .     A
C763   H777    1.080   .     S
C763   C765    1.406   .     A
C764   C766    1.416   .     A
C764   C769    1.421   .     A
C765   C770    1.384   .     A
C765   C768    1.412   .     A
C766   C214    1.396   1_556 S
C767   I792    2.117   .     S
C767   C772    1.368   .     A
C767   C770    1.395   .     A
C769   C771    1.421   .     A
C769   C212    1.401   1_556 S
C771   C773    1.418   .     A
C771   I793    2.134   .     S
C772   I779    2.089   .     S
C773   I787    2.131   .     S
C773   C210    1.410   1_556 S
C774   I794    2.140   .     S
C774   C962    1.380   .     S
C775   I780    2.134   .     S
C776   I781    2.145   .     S
N795   Zn805   2.057   .     S
N796   Zn806   2.057   .     S
O797   Zn805   1.973   .     S
O798   Zn806   1.973   .     S
O799   Zn806   1.992   .     S
O800   Zn805   1.992   .     S
O801   Zn805   2.006   .     S
O802   Zn806   2.006   .     S
O803   Zn806   1.999   .     S
O804   Zn805   1.999   .     S
C807   C810    1.445   .     S
C807   O861    1.306   .     A
C807   O859    1.313   .     A
C808   C810    1.394   .     A
C808   I844    2.152   .     S
C808   C1023   1.384   .     S
C809   C837    1.419   .     A
C809   C838    1.410   .     A
C809   C818    1.455   .     S
C810   C836    1.397   .     A
C811   I845    2.118   .     S
C811   N858    1.377   .     A
C811   C875    1.433   .     S
C812   N857    1.380   .     A
C812   I846    2.132   .     S
C813   I847    2.120   .     S
C813   N857    1.374   .     A
C814   N858    1.379   .     A
C814   I848    2.143   .     S
C814   C874    1.439   .     S
C815   C817    1.473   .     S
C815   O863    1.316   .     A
C815   O865    1.312   .     A
C816   O866    1.311   .     A
C816   O864    1.313   .     A
C816   C819    1.460   .     S
C817   C824    1.398   .     A
C817   C822    1.416   .     A
C818   O862    1.308   .     A
C818   O860    1.316   .     A
C819   C823    1.390   .     A
C819   C825    1.396   .     A
C820   C828    1.403   .     A
C820   I852    2.142   .     S
C820   C822    1.407   .     A
C821   I853    2.125   .     S
C821   C830    1.413   .     A
C821   C823    1.403   .     A
C822   I851    2.119   .     S
C823   I850    2.137   .     S
C824   H840    1.081   .     S
C824   C826    1.394   .     A
C825   H839    1.080   .     S
C825   C827    1.406   .     A
C826   C828    1.416   .     A
C826   C831    1.421   .     A
C827   C832    1.384   .     A
C827   C830    1.412   .     A
C828   C276    1.396   1_556 S
C829   I854    2.117   .     S
C829   C834    1.368   .     A
C829   C832    1.395   .     A
C831   C833    1.421   .     A
C831   C274    1.401   1_556 S
C833   C835    1.418   .     A
C833   I855    2.134   .     S
C834   I841    2.089   .     S
C835   I849    2.131   .     S
C835   C272    1.410   1_556 S
C836   I856    2.140   .     S
C836   C1024   1.380   .     S
C837   I842    2.134   .     S
C838   I843    2.145   .     S
N857   Zn867   2.057   .     S
N858   Zn868   2.057   .     S
O859   Zn867   1.973   .     S
O860   Zn868   1.973   .     S
O861   Zn868   1.992   .     S
O862   Zn867   1.992   .     S
O863   Zn867   2.006   .     S
O864   Zn868   2.006   .     S
O865   Zn868   1.999   .     S
O866   Zn867   1.999   .     S
C869   C872    1.445   .     S
C869   O923    1.306   .     A
C869   O921    1.313   .     A
C870   C872    1.394   .     A
C870   I906    2.152   .     S
C870   C1085   1.384   .     S
C871   C899    1.419   .     A
C871   C900    1.410   .     A
C871   C880    1.455   .     S
C872   C898    1.397   .     A
C873   I907    2.118   .     S
C873   N920    1.377   .     A
C873   C751    1.433   1_655 S
C874   N919    1.380   .     A
C874   I908    2.132   .     S
C875   I909    2.120   .     S
C875   N919    1.374   .     A
C876   N920    1.379   .     A
C876   I910    2.143   .     S
C876   C750    1.439   1_655 S
C877   C879    1.473   .     S
C877   O925    1.316   .     A
C877   O927    1.312   .     A
C878   O928    1.311   .     A
C878   O926    1.313   .     A
C878   C881    1.460   .     S
C879   C886    1.398   .     A
C879   C884    1.416   .     A
C880   O924    1.308   .     A
C880   O922    1.316   .     A
C881   C885    1.390   .     A
C881   C887    1.396   .     A
C882   C890    1.403   .     A
C882   I914    2.142   .     S
C882   C884    1.407   .     A
C883   I915    2.125   .     S
C883   C892    1.413   .     A
C883   C885    1.403   .     A
C884   I913    2.119   .     S
C885   I912    2.137   .     S
C886   H902    1.081   .     S
C886   C888    1.394   .     A
C887   H901    1.080   .     S
C887   C889    1.406   .     A
C888   C890    1.416   .     A
C888   C893    1.421   .     A
C889   C894    1.384   .     A
C889   C892    1.412   .     A
C890   C338    1.396   1_556 S
C891   I916    2.117   .     S
C891   C896    1.368   .     A
C891   C894    1.395   .     A
C893   C895    1.421   .     A
C893   C336    1.401   1_556 S
C895   C897    1.418   .     A
C895   I917    2.134   .     S
C896   I903    2.089   .     S
C897   I911    2.131   .     S
C897   C334    1.410   1_556 S
C898   I918    2.140   .     S
C898   C1086   1.380   .     S
C899   I904    2.134   .     S
C900   I905    2.145   .     S
N919   Zn929   2.057   .     S
N920   Zn930   2.057   .     S
O921   Zn929   1.973   .     S
O922   Zn930   1.973   .     S
O923   Zn930   1.992   .     S
O924   Zn929   1.992   .     S
O925   Zn929   2.006   .     S
O926   Zn930   2.006   .     S
O927   Zn930   1.999   .     S
O928   Zn929   1.999   .     S
C931   C934    1.445   .     S
C931   O985    1.306   .     A
C931   O983    1.313   .     A
C932   C934    1.394   .     A
C932   I968    2.152   .     S
C932   C589    1.384   1_565 S
C933   C961    1.419   .     A
C933   C962    1.410   .     A
C933   C942    1.455   .     S
C934   C960    1.397   .     A
C935   I969    2.118   .     S
C935   N982    1.377   .     A
C935   C999    1.433   .     S
C936   N981    1.380   .     A
C936   I970    2.132   .     S
C936   C1062   1.439   1_455 S
C937   I971    2.120   .     S
C937   N981    1.374   .     A
C937   C1059   1.433   1_455 S
C938   N982    1.379   .     A
C938   I972    2.143   .     S
C938   C998    1.439   .     S
C939   C941    1.473   .     S
C939   O987    1.316   .     A
C939   O989    1.312   .     A
C940   O990    1.311   .     A
C940   O988    1.313   .     A
C940   C943    1.460   .     S
C941   C948    1.398   .     A
C941   C946    1.416   .     A
C942   O986    1.308   .     A
C942   O984    1.316   .     A
C943   C947    1.390   .     A
C943   C949    1.396   .     A
C944   C952    1.403   .     A
C944   I976    2.142   .     S
C944   C946    1.407   .     A
C945   I977    2.125   .     S
C945   C954    1.413   .     A
C945   C947    1.403   .     A
C946   I975    2.119   .     S
C947   I974    2.137   .     S
C948   H964    1.081   .     S
C948   C950    1.394   .     A
C949   H963    1.080   .     S
C949   C951    1.406   .     A
C950   C952    1.416   .     A
C950   C955    1.421   .     A
C951   C956    1.384   .     A
C951   C954    1.412   .     A
C952   C400    1.396   1_556 S
C953   I978    2.117   .     S
C953   C958    1.368   .     A
C953   C956    1.395   .     A
C955   C957    1.421   .     A
C955   C398    1.401   1_556 S
C957   C959    1.418   .     A
C957   I979    2.134   .     S
C958   I965    2.089   .     S
C959   I973    2.131   .     S
C959   C396    1.410   1_556 S
C960   I980    2.140   .     S
C960   C590    1.380   1_565 S
C961   I966    2.134   .     S
C962   I967    2.145   .     S
N981   Zn991   2.057   .     S
N982   Zn992   2.057   .     S
O983   Zn991   1.973   .     S
O984   Zn992   1.973   .     S
O985   Zn992   1.992   .     S
O986   Zn991   1.992   .     S
O987   Zn991   2.006   .     S
O988   Zn992   2.006   .     S
O989   Zn992   1.999   .     S
O990   Zn991   1.999   .     S
C993   C996    1.445   .     S
C993   O1047   1.306   .     A
C993   O1045   1.313   .     A
C994   C996    1.394   .     A
C994   I1030   2.152   .     S
C994   C651    1.384   1_565 S
C995   C1023   1.419   .     A
C995   C1024   1.410   .     A
C995   C1004   1.455   .     S
C996   C1022   1.397   .     A
C997   I1031   2.118   .     S
C997   N1044   1.377   .     A
C997   C1061   1.433   .     S
C998   N1043   1.380   .     A
C998   I1032   2.132   .     S
C999   I1033   2.120   .     S
C999   N1043   1.374   .     A
C1000  N1044   1.379   .     A
C1000  I1034   2.143   .     S
C1000  C1060   1.439   .     S
C1001  C1003   1.473   .     S
C1001  O1049   1.316   .     A
C1001  O1051   1.312   .     A
C1002  O1052   1.311   .     A
C1002  O1050   1.313   .     A
C1002  C1005   1.460   .     S
C1003  C1010   1.398   .     A
C1003  C1008   1.416   .     A
C1004  O1048   1.308   .     A
C1004  O1046   1.316   .     A
C1005  C1009   1.390   .     A
C1005  C1011   1.396   .     A
C1006  C1014   1.403   .     A
C1006  I1038   2.142   .     S
C1006  C1008   1.407   .     A
C1007  I1039   2.125   .     S
C1007  C1016   1.413   .     A
C1007  C1009   1.403   .     A
C1008  I1037   2.119   .     S
C1009  I1036   2.137   .     S
C1010  H1026   1.081   .     S
C1010  C1012   1.394   .     A
C1011  H1025   1.080   .     S
C1011  C1013   1.406   .     A
C1012  C1014   1.416   .     A
C1012  C1017   1.421   .     A
C1013  C1018   1.384   .     A
C1013  C1016   1.412   .     A
C1014  C462    1.396   1_556 S
C1015  I1040   2.117   .     S
C1015  C1020   1.368   .     A
C1015  C1018   1.395   .     A
C1017  C1019   1.421   .     A
C1017  C460    1.401   1_556 S
C1019  C1021   1.418   .     A
C1019  I1041   2.134   .     S
C1020  I1027   2.089   .     S
C1021  I1035   2.131   .     S
C1021  C458    1.410   1_556 S
C1022  I1042   2.140   .     S
C1022  C652    1.380   1_565 S
C1023  I1028   2.134   .     S
C1024  I1029   2.145   .     S
N1043  Zn1053  2.057   .     S
N1044  Zn1054  2.057   .     S
O1045  Zn1053  1.973   .     S
O1046  Zn1054  1.973   .     S
O1047  Zn1054  1.992   .     S
O1048  Zn1053  1.992   .     S
O1049  Zn1053  2.006   .     S
O1050  Zn1054  2.006   .     S
O1051  Zn1054  1.999   .     S
O1052  Zn1053  1.999   .     S
C1055  C1058   1.445   .     S
C1055  O1109   1.306   .     A
C1055  O1107   1.313   .     A
C1056  C1058   1.394   .     A
C1056  I1092   2.152   .     S
C1056  C713    1.384   1_565 S
C1057  C1085   1.419   .     A
C1057  C1086   1.410   .     A
C1057  C1066   1.455   .     S
C1058  C1084   1.397   .     A
C1059  I1093   2.118   .     S
C1059  N1106   1.377   .     A
C1059  C937    1.433   1_655 S
C1060  N1105   1.380   .     A
C1060  I1094   2.132   .     S
C1061  I1095   2.120   .     S
C1061  N1105   1.374   .     A
C1062  N1106   1.379   .     A
C1062  I1096   2.143   .     S
C1062  C936    1.439   1_655 S
C1063  C1065   1.473   .     S
C1063  O1111   1.316   .     A
C1063  O1113   1.312   .     A
C1064  O1114   1.311   .     A
C1064  O1112   1.313   .     A
C1064  C1067   1.460   .     S
C1065  C1072   1.398   .     A
C1065  C1070   1.416   .     A
C1066  O1110   1.308   .     A
C1066  O1108   1.316   .     A
C1067  C1071   1.390   .     A
C1067  C1073   1.396   .     A
C1068  C1076   1.403   .     A
C1068  I1100   2.142   .     S
C1068  C1070   1.407   .     A
C1069  I1101   2.125   .     S
C1069  C1078   1.413   .     A
C1069  C1071   1.403   .     A
C1070  I1099   2.119   .     S
C1071  I1098   2.137   .     S
C1072  H1088   1.081   .     S
C1072  C1074   1.394   .     A
C1073  H1087   1.080   .     S
C1073  C1075   1.406   .     A
C1074  C1076   1.416   .     A
C1074  C1079   1.421   .     A
C1075  C1080   1.384   .     A
C1075  C1078   1.412   .     A
C1076  C524    1.396   1_556 S
C1077  I1102   2.117   .     S
C1077  C1082   1.368   .     A
C1077  C1080   1.395   .     A
C1079  C1081   1.421   .     A
C1079  C522    1.401   1_556 S
C1081  C1083   1.418   .     A
C1081  I1103   2.134   .     S
C1082  I1089   2.089   .     S
C1083  I1097   2.131   .     S
C1083  C520    1.410   1_556 S
C1084  I1104   2.140   .     S
C1084  C714    1.380   1_565 S
C1085  I1090   2.134   .     S
C1086  I1091   2.145   .     S
N1105  Zn1115  2.057   .     S
N1106  Zn1116  2.057   .     S
O1107  Zn1115  1.973   .     S
O1108  Zn1116  1.973   .     S
O1109  Zn1116  1.992   .     S
O1110  Zn1115  1.992   .     S
O1111  Zn1115  2.006   .     S
O1112  Zn1116  2.006   .     S
O1113  Zn1116  1.999   .     S
O1114  Zn1115  1.999   .     S
