data_str_m3_o10_o17_pcu_sym.5
_audit_creation_date              2020-01-03
_audit_creation_method            'Materials Studio'
_symmetry_space_group_name_H-M    'P1'
_symmetry_Int_Tables_number       1
_symmetry_cell_setting            triclinic
loop_
_symmetry_equiv_pos_as_xyz
  x,y,z
_cell_length_a                    23.3146
_cell_length_b                    25.6871
_cell_length_c                    29.7554
_cell_angle_alpha                 90.8271
_cell_angle_beta                  86.2345
_cell_angle_gamma                 93.6880
loop_
_atom_site_label
_atom_site_type_symbol
_atom_site_fract_x
_atom_site_fract_y
_atom_site_fract_z
_atom_site_U_iso_or_equiv
_atom_site_adp_type
_atom_site_occupancy
O1     O     0.12975   0.24619   0.25298   0.00000  Uiso   1.00
O2     O     0.20358   0.08714   0.24702   0.00000  Uiso   1.00
O3     O     0.22613   0.23721   0.24519   0.00000  Uiso   1.00
O4     O     0.10720   0.09613   0.25481   0.00000  Uiso   1.00
C5     C     0.18192   0.26490   0.24878   0.00000  Uiso   1.00
C6     C     0.15141   0.06844   0.25122   0.00000  Uiso   1.00
O7     O     0.11847   0.17117   0.31997   0.00000  Uiso   1.00
O8     O     0.21486   0.16216   0.18003   0.00000  Uiso   1.00
O9     O     0.21485   0.16219   0.31217   0.00000  Uiso   1.00
O10    O     0.11848   0.17115   0.18782   0.00000  Uiso   1.00
C11    C     0.16768   0.16702   0.33630   0.00000  Uiso   1.00
C12    C     0.16566   0.16631   0.16370   0.00000  Uiso   1.00
Zn13   Zn    0.10231   0.17266   0.25521   0.00000  Uiso   1.00
Zn14   Zn    0.23102   0.16067   0.24479   0.00000  Uiso   1.00
C15    C     0.15118   0.11843   0.09352   0.00000  Uiso   1.00
C16    C     0.18215   0.21490   0.40648   0.00000  Uiso   1.00
C17    C     0.16329   0.16559   0.11623   0.00000  Uiso   1.00
C18    C     0.17004   0.16774   0.38377   0.00000  Uiso   1.00
C19    C     0.17655   0.21229   0.09385   0.00000  Uiso   1.00
C20    C     0.15679   0.12104   0.40615   0.00000  Uiso   1.00
C21    C     0.17814   0.21303   0.04741   0.00000  Uiso   1.00
C22    C     0.15519   0.12030   0.45259   0.00000  Uiso   1.00
C23    C     0.16592   0.16622   0.02348   0.00000  Uiso   1.00
C24    C     0.16741   0.16712   0.47652   0.00000  Uiso   1.00
C25    C     0.15225   0.11858   0.04648   0.00000  Uiso   1.00
C26    C     0.18108   0.21476   0.45352   0.00000  Uiso   1.00
C27    C     0.19228   0.25979   0.02468   0.00000  Uiso   1.00
C28    C     0.14105   0.07355   0.47532   0.00000  Uiso   1.00
C29    C     0.19399   0.26068   0.47803   0.00000  Uiso   1.00
C30    C     0.13935   0.07265   0.02197   0.00000  Uiso   1.00
H31    H     0.18626   0.24787   0.11280   0.00000  Uiso   1.00
H32    H     0.14707   0.08546   0.38720   0.00000  Uiso   1.00
H33    H     0.20232   0.29564   0.04299   0.00000  Uiso   1.00
H34    H     0.13102   0.03769   0.45701   0.00000  Uiso   1.00
H35    H     0.20583   0.29740   0.46147   0.00000  Uiso   1.00
H36    H     0.12751   0.03593   0.03853   0.00000  Uiso   1.00
C37    C     0.18995   0.31942   0.24815   0.00000  Uiso   1.00
C38    C     0.14338   0.01391   0.25185   0.00000  Uiso   1.00
H39    H     0.23393   0.00313   0.24468   0.00000  Uiso   1.00
H40    H     0.09941   0.33020   0.25532   0.00000  Uiso   1.00
N41    N     0.31678   0.15265   0.23783   0.00000  Uiso   1.00
N42    N     0.01656   0.18068   0.26217   0.00000  Uiso   1.00
H43    H     0.00453   0.12763   0.21611   0.00000  Uiso   1.00
H44    H     0.32881   0.20571   0.28389   0.00000  Uiso   1.00
N45    N     0.13941   0.07088   0.11825   0.00000  Uiso   1.00
O46    O     0.09532   0.06598   0.14735   0.00000  Uiso   1.00
O47    O     0.17507   0.03393   0.11402   0.00000  Uiso   1.00
N48    N     0.19392   0.26245   0.38175   0.00000  Uiso   1.00
O49    O     0.23801   0.26735   0.35264   0.00000  Uiso   1.00
O50    O     0.15826   0.29941   0.38599   0.00000  Uiso   1.00
O51    O     0.46308   0.24619   0.25298   0.00000  Uiso   1.00
O52    O     0.53692   0.08714   0.24702   0.00000  Uiso   1.00
O53    O     0.55946   0.23721   0.24519   0.00000  Uiso   1.00
O54    O     0.44054   0.09613   0.25481   0.00000  Uiso   1.00
C55    C     0.51526   0.26490   0.24878   0.00000  Uiso   1.00
C56    C     0.48474   0.06844   0.25122   0.00000  Uiso   1.00
O57    O     0.45181   0.17117   0.31997   0.00000  Uiso   1.00
O58    O     0.54819   0.16216   0.18003   0.00000  Uiso   1.00
O59    O     0.54819   0.16219   0.31217   0.00000  Uiso   1.00
O60    O     0.45181   0.17115   0.18782   0.00000  Uiso   1.00
C61    C     0.50101   0.16702   0.33630   0.00000  Uiso   1.00
C62    C     0.49899   0.16631   0.16370   0.00000  Uiso   1.00
Zn63   Zn    0.43565   0.17266   0.25521   0.00000  Uiso   1.00
Zn64   Zn    0.56435   0.16067   0.24479   0.00000  Uiso   1.00
C65    C     0.48451   0.11843   0.09352   0.00000  Uiso   1.00
C66    C     0.51549   0.21490   0.40648   0.00000  Uiso   1.00
C67    C     0.49663   0.16559   0.11623   0.00000  Uiso   1.00
C68    C     0.50337   0.16774   0.38377   0.00000  Uiso   1.00
C69    C     0.50988   0.21229   0.09385   0.00000  Uiso   1.00
C70    C     0.49012   0.12104   0.40615   0.00000  Uiso   1.00
C71    C     0.51148   0.21303   0.04741   0.00000  Uiso   1.00
C72    C     0.48853   0.12030   0.45259   0.00000  Uiso   1.00
C73    C     0.49925   0.16622   0.02348   0.00000  Uiso   1.00
C74    C     0.50075   0.16712   0.47652   0.00000  Uiso   1.00
C75    C     0.48559   0.11858   0.04648   0.00000  Uiso   1.00
C76    C     0.51442   0.21476   0.45352   0.00000  Uiso   1.00
C77    C     0.52561   0.25979   0.02468   0.00000  Uiso   1.00
C78    C     0.47439   0.07355   0.47532   0.00000  Uiso   1.00
C79    C     0.52732   0.26068   0.47803   0.00000  Uiso   1.00
C80    C     0.47268   0.07265   0.02197   0.00000  Uiso   1.00
H81    H     0.51960   0.24787   0.11280   0.00000  Uiso   1.00
H82    H     0.48040   0.08546   0.38720   0.00000  Uiso   1.00
H83    H     0.53565   0.29564   0.04299   0.00000  Uiso   1.00
H84    H     0.46435   0.03769   0.45701   0.00000  Uiso   1.00
H85    H     0.53916   0.29740   0.46147   0.00000  Uiso   1.00
H86    H     0.46084   0.03593   0.03853   0.00000  Uiso   1.00
C87    C     0.52328   0.31942   0.24815   0.00000  Uiso   1.00
C88    C     0.47672   0.01391   0.25185   0.00000  Uiso   1.00
H89    H     0.56726   0.00313   0.24468   0.00000  Uiso   1.00
H90    H     0.43274   0.33020   0.25532   0.00000  Uiso   1.00
N91    N     0.65011   0.15265   0.23783   0.00000  Uiso   1.00
N92    N     0.34989   0.18068   0.26217   0.00000  Uiso   1.00
H93    H     0.33786   0.12763   0.21611   0.00000  Uiso   1.00
H94    H     0.66214   0.20571   0.28389   0.00000  Uiso   1.00
N95    N     0.47274   0.07088   0.11825   0.00000  Uiso   1.00
O96    O     0.42865   0.06598   0.14735   0.00000  Uiso   1.00
O97    O     0.50840   0.03393   0.11402   0.00000  Uiso   1.00
N98    N     0.52725   0.26245   0.38175   0.00000  Uiso   1.00
O99    O     0.57134   0.26735   0.35264   0.00000  Uiso   1.00
O100   O     0.49160   0.29941   0.38599   0.00000  Uiso   1.00
O101   O     0.79642   0.24619   0.25298   0.00000  Uiso   1.00
O102   O     0.87025   0.08714   0.24702   0.00000  Uiso   1.00
O103   O     0.89280   0.23721   0.24519   0.00000  Uiso   1.00
O104   O     0.77387   0.09613   0.25481   0.00000  Uiso   1.00
C105   C     0.84859   0.26490   0.24878   0.00000  Uiso   1.00
C106   C     0.81808   0.06844   0.25122   0.00000  Uiso   1.00
O107   O     0.78514   0.17117   0.31997   0.00000  Uiso   1.00
O108   O     0.88153   0.16216   0.18003   0.00000  Uiso   1.00
O109   O     0.88152   0.16219   0.31217   0.00000  Uiso   1.00
O110   O     0.78515   0.17115   0.18782   0.00000  Uiso   1.00
C111   C     0.83434   0.16702   0.33630   0.00000  Uiso   1.00
C112   C     0.83232   0.16631   0.16370   0.00000  Uiso   1.00
Zn113  Zn    0.76898   0.17266   0.25521   0.00000  Uiso   1.00
Zn114  Zn    0.89769   0.16067   0.24479   0.00000  Uiso   1.00
C115   C     0.81785   0.11843   0.09352   0.00000  Uiso   1.00
C116   C     0.84882   0.21490   0.40648   0.00000  Uiso   1.00
C117   C     0.82996   0.16559   0.11623   0.00000  Uiso   1.00
C118   C     0.83671   0.16774   0.38377   0.00000  Uiso   1.00
C119   C     0.84322   0.21229   0.09385   0.00000  Uiso   1.00
C120   C     0.82345   0.12104   0.40615   0.00000  Uiso   1.00
C121   C     0.84481   0.21303   0.04741   0.00000  Uiso   1.00
C122   C     0.82186   0.12030   0.45259   0.00000  Uiso   1.00
C123   C     0.83259   0.16622   0.02348   0.00000  Uiso   1.00
C124   C     0.83408   0.16712   0.47652   0.00000  Uiso   1.00
C125   C     0.81892   0.11858   0.04648   0.00000  Uiso   1.00
C126   C     0.84775   0.21476   0.45352   0.00000  Uiso   1.00
C127   C     0.85895   0.25979   0.02468   0.00000  Uiso   1.00
C128   C     0.80772   0.07355   0.47532   0.00000  Uiso   1.00
C129   C     0.86065   0.26068   0.47803   0.00000  Uiso   1.00
C130   C     0.80601   0.07265   0.02197   0.00000  Uiso   1.00
H131   H     0.85293   0.24787   0.11280   0.00000  Uiso   1.00
H132   H     0.81374   0.08546   0.38720   0.00000  Uiso   1.00
H133   H     0.86898   0.29564   0.04299   0.00000  Uiso   1.00
H134   H     0.79768   0.03769   0.45701   0.00000  Uiso   1.00
H135   H     0.87250   0.29740   0.46147   0.00000  Uiso   1.00
H136   H     0.79417   0.03593   0.03853   0.00000  Uiso   1.00
C137   C     0.85662   0.31942   0.24815   0.00000  Uiso   1.00
C138   C     0.81005   0.01391   0.25185   0.00000  Uiso   1.00
H139   H     0.90059   0.00313   0.24468   0.00000  Uiso   1.00
H140   H     0.76607   0.33020   0.25532   0.00000  Uiso   1.00
N141   N     0.98344   0.15265   0.23783   0.00000  Uiso   1.00
N142   N     0.68322   0.18068   0.26217   0.00000  Uiso   1.00
H143   H     0.67119   0.12763   0.21611   0.00000  Uiso   1.00
H144   H     0.99547   0.20571   0.28389   0.00000  Uiso   1.00
N145   N     0.80608   0.07088   0.11825   0.00000  Uiso   1.00
O146   O     0.76199   0.06598   0.14735   0.00000  Uiso   1.00
O147   O     0.84174   0.03393   0.11402   0.00000  Uiso   1.00
N148   N     0.86059   0.26245   0.38175   0.00000  Uiso   1.00
O149   O     0.90468   0.26735   0.35264   0.00000  Uiso   1.00
O150   O     0.82493   0.29941   0.38599   0.00000  Uiso   1.00
O151   O     0.12975   0.57952   0.25298   0.00000  Uiso   1.00
O152   O     0.20358   0.42048   0.24702   0.00000  Uiso   1.00
O153   O     0.22613   0.57054   0.24519   0.00000  Uiso   1.00
O154   O     0.10720   0.42946   0.25481   0.00000  Uiso   1.00
C155   C     0.18192   0.59823   0.24878   0.00000  Uiso   1.00
C156   C     0.15141   0.40177   0.25122   0.00000  Uiso   1.00
O157   O     0.11847   0.50450   0.31997   0.00000  Uiso   1.00
O158   O     0.21486   0.49550   0.18003   0.00000  Uiso   1.00
O159   O     0.21485   0.49552   0.31217   0.00000  Uiso   1.00
O160   O     0.11848   0.50448   0.18782   0.00000  Uiso   1.00
C161   C     0.16768   0.50035   0.33630   0.00000  Uiso   1.00
C162   C     0.16566   0.49965   0.16370   0.00000  Uiso   1.00
Zn163  Zn    0.10231   0.50600   0.25521   0.00000  Uiso   1.00
Zn164  Zn    0.23102   0.49400   0.24479   0.00000  Uiso   1.00
C165   C     0.15118   0.45177   0.09352   0.00000  Uiso   1.00
C166   C     0.18215   0.54823   0.40648   0.00000  Uiso   1.00
C167   C     0.16329   0.49892   0.11623   0.00000  Uiso   1.00
C168   C     0.17004   0.50108   0.38377   0.00000  Uiso   1.00
C169   C     0.17655   0.54563   0.09385   0.00000  Uiso   1.00
C170   C     0.15679   0.45437   0.40615   0.00000  Uiso   1.00
C171   C     0.17814   0.54636   0.04741   0.00000  Uiso   1.00
C172   C     0.15519   0.45364   0.45259   0.00000  Uiso   1.00
C173   C     0.16592   0.49955   0.02348   0.00000  Uiso   1.00
C174   C     0.16741   0.50045   0.47652   0.00000  Uiso   1.00
C175   C     0.15225   0.45191   0.04648   0.00000  Uiso   1.00
C176   C     0.18108   0.54809   0.45352   0.00000  Uiso   1.00
C177   C     0.19228   0.59312   0.02468   0.00000  Uiso   1.00
C178   C     0.14105   0.40688   0.47532   0.00000  Uiso   1.00
C179   C     0.19399   0.59401   0.47803   0.00000  Uiso   1.00
C180   C     0.13935   0.40599   0.02197   0.00000  Uiso   1.00
H181   H     0.18626   0.58121   0.11280   0.00000  Uiso   1.00
H182   H     0.14707   0.41879   0.38720   0.00000  Uiso   1.00
H183   H     0.20232   0.62897   0.04299   0.00000  Uiso   1.00
H184   H     0.13102   0.37103   0.45701   0.00000  Uiso   1.00
H185   H     0.20583   0.63073   0.46147   0.00000  Uiso   1.00
H186   H     0.12751   0.36927   0.03853   0.00000  Uiso   1.00
C187   C     0.18995   0.65275   0.24815   0.00000  Uiso   1.00
C188   C     0.14338   0.34725   0.25185   0.00000  Uiso   1.00
H189   H     0.23393   0.33647   0.24468   0.00000  Uiso   1.00
H190   H     0.09941   0.66353   0.25532   0.00000  Uiso   1.00
N191   N     0.31678   0.48598   0.23783   0.00000  Uiso   1.00
N192   N     0.01656   0.51402   0.26217   0.00000  Uiso   1.00
H193   H     0.00453   0.46096   0.21611   0.00000  Uiso   1.00
H194   H     0.32881   0.53904   0.28389   0.00000  Uiso   1.00
N195   N     0.13941   0.40422   0.11825   0.00000  Uiso   1.00
O196   O     0.09532   0.39932   0.14735   0.00000  Uiso   1.00
O197   O     0.17507   0.36726   0.11402   0.00000  Uiso   1.00
N198   N     0.19392   0.59578   0.38175   0.00000  Uiso   1.00
O199   O     0.23801   0.60068   0.35264   0.00000  Uiso   1.00
O200   O     0.15826   0.63274   0.38599   0.00000  Uiso   1.00
O201   O     0.46308   0.57952   0.25298   0.00000  Uiso   1.00
O202   O     0.53692   0.42048   0.24702   0.00000  Uiso   1.00
O203   O     0.55946   0.57054   0.24519   0.00000  Uiso   1.00
O204   O     0.44054   0.42946   0.25481   0.00000  Uiso   1.00
C205   C     0.51526   0.59823   0.24878   0.00000  Uiso   1.00
C206   C     0.48474   0.40177   0.25122   0.00000  Uiso   1.00
O207   O     0.45181   0.50450   0.31997   0.00000  Uiso   1.00
O208   O     0.54819   0.49550   0.18003   0.00000  Uiso   1.00
O209   O     0.54819   0.49552   0.31217   0.00000  Uiso   1.00
O210   O     0.45181   0.50448   0.18782   0.00000  Uiso   1.00
C211   C     0.50101   0.50035   0.33630   0.00000  Uiso   1.00
C212   C     0.49899   0.49965   0.16370   0.00000  Uiso   1.00
Zn213  Zn    0.43565   0.50600   0.25521   0.00000  Uiso   1.00
Zn214  Zn    0.56435   0.49400   0.24479   0.00000  Uiso   1.00
C215   C     0.48451   0.45177   0.09352   0.00000  Uiso   1.00
C216   C     0.51549   0.54823   0.40648   0.00000  Uiso   1.00
C217   C     0.49663   0.49892   0.11623   0.00000  Uiso   1.00
C218   C     0.50337   0.50108   0.38377   0.00000  Uiso   1.00
C219   C     0.50988   0.54563   0.09385   0.00000  Uiso   1.00
C220   C     0.49012   0.45437   0.40615   0.00000  Uiso   1.00
C221   C     0.51148   0.54636   0.04741   0.00000  Uiso   1.00
C222   C     0.48853   0.45364   0.45259   0.00000  Uiso   1.00
C223   C     0.49925   0.49955   0.02348   0.00000  Uiso   1.00
C224   C     0.50075   0.50045   0.47652   0.00000  Uiso   1.00
C225   C     0.48559   0.45191   0.04648   0.00000  Uiso   1.00
C226   C     0.51442   0.54809   0.45352   0.00000  Uiso   1.00
C227   C     0.52561   0.59312   0.02468   0.00000  Uiso   1.00
C228   C     0.47439   0.40688   0.47532   0.00000  Uiso   1.00
C229   C     0.52732   0.59401   0.47803   0.00000  Uiso   1.00
C230   C     0.47268   0.40599   0.02197   0.00000  Uiso   1.00
H231   H     0.51960   0.58121   0.11280   0.00000  Uiso   1.00
H232   H     0.48040   0.41879   0.38720   0.00000  Uiso   1.00
H233   H     0.53565   0.62897   0.04299   0.00000  Uiso   1.00
H234   H     0.46435   0.37103   0.45701   0.00000  Uiso   1.00
H235   H     0.53916   0.63073   0.46147   0.00000  Uiso   1.00
H236   H     0.46084   0.36927   0.03853   0.00000  Uiso   1.00
C237   C     0.52328   0.65275   0.24815   0.00000  Uiso   1.00
C238   C     0.47672   0.34725   0.25185   0.00000  Uiso   1.00
H239   H     0.56726   0.33647   0.24468   0.00000  Uiso   1.00
H240   H     0.43274   0.66353   0.25532   0.00000  Uiso   1.00
N241   N     0.65011   0.48598   0.23783   0.00000  Uiso   1.00
N242   N     0.34989   0.51402   0.26217   0.00000  Uiso   1.00
H243   H     0.33786   0.46096   0.21611   0.00000  Uiso   1.00
H244   H     0.66214   0.53904   0.28389   0.00000  Uiso   1.00
N245   N     0.47274   0.40422   0.11825   0.00000  Uiso   1.00
O246   O     0.42865   0.39932   0.14735   0.00000  Uiso   1.00
O247   O     0.50840   0.36726   0.11402   0.00000  Uiso   1.00
N248   N     0.52725   0.59578   0.38175   0.00000  Uiso   1.00
O249   O     0.57134   0.60068   0.35264   0.00000  Uiso   1.00
O250   O     0.49160   0.63274   0.38599   0.00000  Uiso   1.00
O251   O     0.79642   0.57952   0.25298   0.00000  Uiso   1.00
O252   O     0.87025   0.42048   0.24702   0.00000  Uiso   1.00
O253   O     0.89280   0.57054   0.24519   0.00000  Uiso   1.00
O254   O     0.77387   0.42946   0.25481   0.00000  Uiso   1.00
C255   C     0.84859   0.59823   0.24878   0.00000  Uiso   1.00
C256   C     0.81808   0.40177   0.25122   0.00000  Uiso   1.00
O257   O     0.78514   0.50450   0.31997   0.00000  Uiso   1.00
O258   O     0.88153   0.49550   0.18003   0.00000  Uiso   1.00
O259   O     0.88152   0.49552   0.31217   0.00000  Uiso   1.00
O260   O     0.78515   0.50448   0.18782   0.00000  Uiso   1.00
C261   C     0.83434   0.50035   0.33630   0.00000  Uiso   1.00
C262   C     0.83232   0.49965   0.16370   0.00000  Uiso   1.00
Zn263  Zn    0.76898   0.50600   0.25521   0.00000  Uiso   1.00
Zn264  Zn    0.89769   0.49400   0.24479   0.00000  Uiso   1.00
C265   C     0.81785   0.45177   0.09352   0.00000  Uiso   1.00
C266   C     0.84882   0.54823   0.40648   0.00000  Uiso   1.00
C267   C     0.82996   0.49892   0.11623   0.00000  Uiso   1.00
C268   C     0.83671   0.50108   0.38377   0.00000  Uiso   1.00
C269   C     0.84322   0.54563   0.09385   0.00000  Uiso   1.00
C270   C     0.82345   0.45437   0.40615   0.00000  Uiso   1.00
C271   C     0.84481   0.54636   0.04741   0.00000  Uiso   1.00
C272   C     0.82186   0.45364   0.45259   0.00000  Uiso   1.00
C273   C     0.83259   0.49955   0.02348   0.00000  Uiso   1.00
C274   C     0.83408   0.50045   0.47652   0.00000  Uiso   1.00
C275   C     0.81892   0.45191   0.04648   0.00000  Uiso   1.00
C276   C     0.84775   0.54809   0.45352   0.00000  Uiso   1.00
C277   C     0.85895   0.59312   0.02468   0.00000  Uiso   1.00
C278   C     0.80772   0.40688   0.47532   0.00000  Uiso   1.00
C279   C     0.86065   0.59401   0.47803   0.00000  Uiso   1.00
C280   C     0.80601   0.40599   0.02197   0.00000  Uiso   1.00
H281   H     0.85293   0.58121   0.11280   0.00000  Uiso   1.00
H282   H     0.81374   0.41879   0.38720   0.00000  Uiso   1.00
H283   H     0.86898   0.62897   0.04299   0.00000  Uiso   1.00
H284   H     0.79768   0.37103   0.45701   0.00000  Uiso   1.00
H285   H     0.87250   0.63073   0.46147   0.00000  Uiso   1.00
H286   H     0.79417   0.36927   0.03853   0.00000  Uiso   1.00
C287   C     0.85662   0.65275   0.24815   0.00000  Uiso   1.00
C288   C     0.81005   0.34725   0.25185   0.00000  Uiso   1.00
H289   H     0.90059   0.33647   0.24468   0.00000  Uiso   1.00
H290   H     0.76607   0.66353   0.25532   0.00000  Uiso   1.00
N291   N     0.98344   0.48598   0.23783   0.00000  Uiso   1.00
N292   N     0.68322   0.51402   0.26217   0.00000  Uiso   1.00
H293   H     0.67119   0.46096   0.21611   0.00000  Uiso   1.00
H294   H     0.99547   0.53904   0.28389   0.00000  Uiso   1.00
N295   N     0.80608   0.40422   0.11825   0.00000  Uiso   1.00
O296   O     0.76199   0.39932   0.14735   0.00000  Uiso   1.00
O297   O     0.84174   0.36726   0.11402   0.00000  Uiso   1.00
N298   N     0.86059   0.59578   0.38175   0.00000  Uiso   1.00
O299   O     0.90468   0.60068   0.35264   0.00000  Uiso   1.00
O300   O     0.82493   0.63274   0.38599   0.00000  Uiso   1.00
O301   O     0.12975   0.91286   0.25298   0.00000  Uiso   1.00
O302   O     0.20358   0.75381   0.24702   0.00000  Uiso   1.00
O303   O     0.22613   0.90387   0.24519   0.00000  Uiso   1.00
O304   O     0.10720   0.76279   0.25481   0.00000  Uiso   1.00
C305   C     0.18192   0.93156   0.24878   0.00000  Uiso   1.00
C306   C     0.15141   0.73510   0.25122   0.00000  Uiso   1.00
O307   O     0.11847   0.83784   0.31997   0.00000  Uiso   1.00
O308   O     0.21486   0.82883   0.18003   0.00000  Uiso   1.00
O309   O     0.21485   0.82885   0.31217   0.00000  Uiso   1.00
O310   O     0.11848   0.83781   0.18782   0.00000  Uiso   1.00
C311   C     0.16768   0.83369   0.33630   0.00000  Uiso   1.00
C312   C     0.16566   0.83298   0.16370   0.00000  Uiso   1.00
Zn313  Zn    0.10231   0.83933   0.25521   0.00000  Uiso   1.00
Zn314  Zn    0.23102   0.82734   0.24479   0.00000  Uiso   1.00
C315   C     0.15118   0.78510   0.09352   0.00000  Uiso   1.00
C316   C     0.18215   0.88157   0.40648   0.00000  Uiso   1.00
C317   C     0.16329   0.83226   0.11623   0.00000  Uiso   1.00
C318   C     0.17004   0.83441   0.38377   0.00000  Uiso   1.00
C319   C     0.17655   0.87896   0.09385   0.00000  Uiso   1.00
C320   C     0.15679   0.78771   0.40615   0.00000  Uiso   1.00
C321   C     0.17814   0.87970   0.04741   0.00000  Uiso   1.00
C322   C     0.15519   0.78697   0.45259   0.00000  Uiso   1.00
C323   C     0.16592   0.83288   0.02348   0.00000  Uiso   1.00
C324   C     0.16741   0.83378   0.47652   0.00000  Uiso   1.00
C325   C     0.15225   0.78524   0.04648   0.00000  Uiso   1.00
C326   C     0.18108   0.88142   0.45352   0.00000  Uiso   1.00
C327   C     0.19228   0.92645   0.02468   0.00000  Uiso   1.00
C328   C     0.14105   0.74021   0.47532   0.00000  Uiso   1.00
C329   C     0.19399   0.92735   0.47803   0.00000  Uiso   1.00
C330   C     0.13935   0.73932   0.02197   0.00000  Uiso   1.00
H331   H     0.18626   0.91454   0.11280   0.00000  Uiso   1.00
H332   H     0.14707   0.75213   0.38720   0.00000  Uiso   1.00
H333   H     0.20232   0.96231   0.04299   0.00000  Uiso   1.00
H334   H     0.13102   0.70436   0.45701   0.00000  Uiso   1.00
H335   H     0.20583   0.96407   0.46147   0.00000  Uiso   1.00
H336   H     0.12751   0.70260   0.03853   0.00000  Uiso   1.00
C337   C     0.18995   0.98608   0.24815   0.00000  Uiso   1.00
C338   C     0.14338   0.68058   0.25185   0.00000  Uiso   1.00
H339   H     0.23393   0.66980   0.24468   0.00000  Uiso   1.00
H340   H     0.09941   0.99687   0.25532   0.00000  Uiso   1.00
N341   N     0.31678   0.81932   0.23783   0.00000  Uiso   1.00
N342   N     0.01656   0.84735   0.26217   0.00000  Uiso   1.00
H343   H     0.00453   0.79429   0.21611   0.00000  Uiso   1.00
H344   H     0.32881   0.87237   0.28389   0.00000  Uiso   1.00
N345   N     0.13941   0.73755   0.11825   0.00000  Uiso   1.00
O346   O     0.09532   0.73265   0.14735   0.00000  Uiso   1.00
O347   O     0.17507   0.70060   0.11402   0.00000  Uiso   1.00
N348   N     0.19392   0.92912   0.38175   0.00000  Uiso   1.00
O349   O     0.23801   0.93401   0.35264   0.00000  Uiso   1.00
O350   O     0.15826   0.96607   0.38599   0.00000  Uiso   1.00
O351   O     0.46308   0.91286   0.25298   0.00000  Uiso   1.00
O352   O     0.53692   0.75381   0.24702   0.00000  Uiso   1.00
O353   O     0.55946   0.90387   0.24519   0.00000  Uiso   1.00
O354   O     0.44054   0.76279   0.25481   0.00000  Uiso   1.00
C355   C     0.51526   0.93156   0.24878   0.00000  Uiso   1.00
C356   C     0.48474   0.73510   0.25122   0.00000  Uiso   1.00
O357   O     0.45181   0.83784   0.31997   0.00000  Uiso   1.00
O358   O     0.54819   0.82883   0.18003   0.00000  Uiso   1.00
O359   O     0.54819   0.82885   0.31217   0.00000  Uiso   1.00
O360   O     0.45181   0.83781   0.18782   0.00000  Uiso   1.00
C361   C     0.50101   0.83369   0.33630   0.00000  Uiso   1.00
C362   C     0.49899   0.83298   0.16370   0.00000  Uiso   1.00
Zn363  Zn    0.43565   0.83933   0.25521   0.00000  Uiso   1.00
Zn364  Zn    0.56435   0.82734   0.24479   0.00000  Uiso   1.00
C365   C     0.48451   0.78510   0.09352   0.00000  Uiso   1.00
C366   C     0.51549   0.88157   0.40648   0.00000  Uiso   1.00
C367   C     0.49663   0.83226   0.11623   0.00000  Uiso   1.00
C368   C     0.50337   0.83441   0.38377   0.00000  Uiso   1.00
C369   C     0.50988   0.87896   0.09385   0.00000  Uiso   1.00
C370   C     0.49012   0.78771   0.40615   0.00000  Uiso   1.00
C371   C     0.51148   0.87970   0.04741   0.00000  Uiso   1.00
C372   C     0.48853   0.78697   0.45259   0.00000  Uiso   1.00
C373   C     0.49925   0.83288   0.02348   0.00000  Uiso   1.00
C374   C     0.50075   0.83378   0.47652   0.00000  Uiso   1.00
C375   C     0.48559   0.78524   0.04648   0.00000  Uiso   1.00
C376   C     0.51442   0.88142   0.45352   0.00000  Uiso   1.00
C377   C     0.52561   0.92645   0.02468   0.00000  Uiso   1.00
C378   C     0.47439   0.74021   0.47532   0.00000  Uiso   1.00
C379   C     0.52732   0.92735   0.47803   0.00000  Uiso   1.00
C380   C     0.47268   0.73932   0.02197   0.00000  Uiso   1.00
H381   H     0.51960   0.91454   0.11280   0.00000  Uiso   1.00
H382   H     0.48040   0.75213   0.38720   0.00000  Uiso   1.00
H383   H     0.53565   0.96231   0.04299   0.00000  Uiso   1.00
H384   H     0.46435   0.70436   0.45701   0.00000  Uiso   1.00
H385   H     0.53916   0.96407   0.46147   0.00000  Uiso   1.00
H386   H     0.46084   0.70260   0.03853   0.00000  Uiso   1.00
C387   C     0.52328   0.98608   0.24815   0.00000  Uiso   1.00
C388   C     0.47672   0.68058   0.25185   0.00000  Uiso   1.00
H389   H     0.56726   0.66980   0.24468   0.00000  Uiso   1.00
H390   H     0.43274   0.99687   0.25532   0.00000  Uiso   1.00
N391   N     0.65011   0.81932   0.23783   0.00000  Uiso   1.00
N392   N     0.34989   0.84735   0.26217   0.00000  Uiso   1.00
H393   H     0.33786   0.79429   0.21611   0.00000  Uiso   1.00
H394   H     0.66214   0.87237   0.28389   0.00000  Uiso   1.00
N395   N     0.47274   0.73755   0.11825   0.00000  Uiso   1.00
O396   O     0.42865   0.73265   0.14735   0.00000  Uiso   1.00
O397   O     0.50840   0.70060   0.11402   0.00000  Uiso   1.00
N398   N     0.52725   0.92912   0.38175   0.00000  Uiso   1.00
O399   O     0.57134   0.93401   0.35264   0.00000  Uiso   1.00
O400   O     0.49160   0.96607   0.38599   0.00000  Uiso   1.00
O401   O     0.79642   0.91286   0.25298   0.00000  Uiso   1.00
O402   O     0.87025   0.75381   0.24702   0.00000  Uiso   1.00
O403   O     0.89280   0.90387   0.24519   0.00000  Uiso   1.00
O404   O     0.77387   0.76279   0.25481   0.00000  Uiso   1.00
C405   C     0.84859   0.93156   0.24878   0.00000  Uiso   1.00
C406   C     0.81808   0.73510   0.25122   0.00000  Uiso   1.00
O407   O     0.78514   0.83784   0.31997   0.00000  Uiso   1.00
O408   O     0.88153   0.82883   0.18003   0.00000  Uiso   1.00
O409   O     0.88152   0.82885   0.31217   0.00000  Uiso   1.00
O410   O     0.78515   0.83781   0.18782   0.00000  Uiso   1.00
C411   C     0.83434   0.83369   0.33630   0.00000  Uiso   1.00
C412   C     0.83232   0.83298   0.16370   0.00000  Uiso   1.00
Zn413  Zn    0.76898   0.83933   0.25521   0.00000  Uiso   1.00
Zn414  Zn    0.89769   0.82734   0.24479   0.00000  Uiso   1.00
C415   C     0.81785   0.78510   0.09352   0.00000  Uiso   1.00
C416   C     0.84882   0.88157   0.40648   0.00000  Uiso   1.00
C417   C     0.82996   0.83226   0.11623   0.00000  Uiso   1.00
C418   C     0.83671   0.83441   0.38377   0.00000  Uiso   1.00
C419   C     0.84322   0.87896   0.09385   0.00000  Uiso   1.00
C420   C     0.82345   0.78771   0.40615   0.00000  Uiso   1.00
C421   C     0.84481   0.87970   0.04741   0.00000  Uiso   1.00
C422   C     0.82186   0.78697   0.45259   0.00000  Uiso   1.00
C423   C     0.83259   0.83288   0.02348   0.00000  Uiso   1.00
C424   C     0.83408   0.83378   0.47652   0.00000  Uiso   1.00
C425   C     0.81892   0.78524   0.04648   0.00000  Uiso   1.00
C426   C     0.84775   0.88142   0.45352   0.00000  Uiso   1.00
C427   C     0.85895   0.92645   0.02468   0.00000  Uiso   1.00
C428   C     0.80772   0.74021   0.47532   0.00000  Uiso   1.00
C429   C     0.86065   0.92735   0.47803   0.00000  Uiso   1.00
C430   C     0.80601   0.73932   0.02197   0.00000  Uiso   1.00
H431   H     0.85293   0.91454   0.11280   0.00000  Uiso   1.00
H432   H     0.81374   0.75213   0.38720   0.00000  Uiso   1.00
H433   H     0.86898   0.96231   0.04299   0.00000  Uiso   1.00
H434   H     0.79768   0.70436   0.45701   0.00000  Uiso   1.00
H435   H     0.87250   0.96407   0.46147   0.00000  Uiso   1.00
H436   H     0.79417   0.70260   0.03853   0.00000  Uiso   1.00
C437   C     0.85662   0.98608   0.24815   0.00000  Uiso   1.00
C438   C     0.81005   0.68058   0.25185   0.00000  Uiso   1.00
H439   H     0.90059   0.66980   0.24468   0.00000  Uiso   1.00
H440   H     0.76607   0.99687   0.25532   0.00000  Uiso   1.00
N441   N     0.98344   0.81932   0.23783   0.00000  Uiso   1.00
N442   N     0.68322   0.84735   0.26217   0.00000  Uiso   1.00
H443   H     0.67119   0.79429   0.21611   0.00000  Uiso   1.00
H444   H     0.99547   0.87237   0.28389   0.00000  Uiso   1.00
N445   N     0.80608   0.73755   0.11825   0.00000  Uiso   1.00
O446   O     0.76199   0.73265   0.14735   0.00000  Uiso   1.00
O447   O     0.84174   0.70060   0.11402   0.00000  Uiso   1.00
N448   N     0.86059   0.92912   0.38175   0.00000  Uiso   1.00
O449   O     0.90468   0.93401   0.35264   0.00000  Uiso   1.00
O450   O     0.82493   0.96607   0.38599   0.00000  Uiso   1.00
O451   O     0.12975   0.24619   0.75298   0.00000  Uiso   1.00
O452   O     0.20358   0.08714   0.74702   0.00000  Uiso   1.00
O453   O     0.22613   0.23721   0.74519   0.00000  Uiso   1.00
O454   O     0.10720   0.09613   0.75481   0.00000  Uiso   1.00
C455   C     0.18192   0.26490   0.74878   0.00000  Uiso   1.00
C456   C     0.15141   0.06844   0.75122   0.00000  Uiso   1.00
O457   O     0.11847   0.17117   0.81997   0.00000  Uiso   1.00
O458   O     0.21486   0.16216   0.68003   0.00000  Uiso   1.00
O459   O     0.21485   0.16219   0.81217   0.00000  Uiso   1.00
O460   O     0.11848   0.17115   0.68782   0.00000  Uiso   1.00
C461   C     0.16768   0.16702   0.83630   0.00000  Uiso   1.00
C462   C     0.16566   0.16631   0.66370   0.00000  Uiso   1.00
Zn463  Zn    0.10231   0.17266   0.75521   0.00000  Uiso   1.00
Zn464  Zn    0.23102   0.16067   0.74479   0.00000  Uiso   1.00
C465   C     0.15118   0.11843   0.59352   0.00000  Uiso   1.00
C466   C     0.18215   0.21490   0.90648   0.00000  Uiso   1.00
C467   C     0.16329   0.16559   0.61623   0.00000  Uiso   1.00
C468   C     0.17004   0.16774   0.88377   0.00000  Uiso   1.00
C469   C     0.17655   0.21229   0.59385   0.00000  Uiso   1.00
C470   C     0.15679   0.12104   0.90615   0.00000  Uiso   1.00
C471   C     0.17814   0.21303   0.54741   0.00000  Uiso   1.00
C472   C     0.15519   0.12030   0.95259   0.00000  Uiso   1.00
C473   C     0.16592   0.16622   0.52348   0.00000  Uiso   1.00
C474   C     0.16741   0.16712   0.97652   0.00000  Uiso   1.00
C475   C     0.15225   0.11858   0.54648   0.00000  Uiso   1.00
C476   C     0.18108   0.21476   0.95352   0.00000  Uiso   1.00
C477   C     0.19228   0.25979   0.52468   0.00000  Uiso   1.00
C478   C     0.14105   0.07355   0.97532   0.00000  Uiso   1.00
C479   C     0.19399   0.26068   0.97803   0.00000  Uiso   1.00
C480   C     0.13935   0.07265   0.52197   0.00000  Uiso   1.00
H481   H     0.18626   0.24787   0.61280   0.00000  Uiso   1.00
H482   H     0.14707   0.08546   0.88720   0.00000  Uiso   1.00
H483   H     0.20232   0.29564   0.54299   0.00000  Uiso   1.00
H484   H     0.13102   0.03769   0.95701   0.00000  Uiso   1.00
H485   H     0.20583   0.29740   0.96147   0.00000  Uiso   1.00
H486   H     0.12751   0.03593   0.53853   0.00000  Uiso   1.00
C487   C     0.18995   0.31942   0.74815   0.00000  Uiso   1.00
C488   C     0.14338   0.01391   0.75185   0.00000  Uiso   1.00
H489   H     0.23393   0.00313   0.74468   0.00000  Uiso   1.00
H490   H     0.09941   0.33020   0.75532   0.00000  Uiso   1.00
N491   N     0.31678   0.15265   0.73783   0.00000  Uiso   1.00
N492   N     0.01656   0.18068   0.76217   0.00000  Uiso   1.00
H493   H     0.00453   0.12763   0.71611   0.00000  Uiso   1.00
H494   H     0.32881   0.20571   0.78389   0.00000  Uiso   1.00
N495   N     0.13941   0.07088   0.61825   0.00000  Uiso   1.00
O496   O     0.09532   0.06598   0.64735   0.00000  Uiso   1.00
O497   O     0.17507   0.03393   0.61402   0.00000  Uiso   1.00
N498   N     0.19392   0.26245   0.88175   0.00000  Uiso   1.00
O499   O     0.23801   0.26735   0.85264   0.00000  Uiso   1.00
O500   O     0.15826   0.29941   0.88599   0.00000  Uiso   1.00
O501   O     0.46308   0.24619   0.75298   0.00000  Uiso   1.00
O502   O     0.53692   0.08714   0.74702   0.00000  Uiso   1.00
O503   O     0.55946   0.23721   0.74519   0.00000  Uiso   1.00
O504   O     0.44054   0.09613   0.75481   0.00000  Uiso   1.00
C505   C     0.51526   0.26490   0.74878   0.00000  Uiso   1.00
C506   C     0.48474   0.06844   0.75122   0.00000  Uiso   1.00
O507   O     0.45181   0.17117   0.81997   0.00000  Uiso   1.00
O508   O     0.54819   0.16216   0.68003   0.00000  Uiso   1.00
O509   O     0.54819   0.16219   0.81217   0.00000  Uiso   1.00
O510   O     0.45181   0.17115   0.68782   0.00000  Uiso   1.00
C511   C     0.50101   0.16702   0.83630   0.00000  Uiso   1.00
C512   C     0.49899   0.16631   0.66370   0.00000  Uiso   1.00
Zn513  Zn    0.43565   0.17266   0.75521   0.00000  Uiso   1.00
Zn514  Zn    0.56435   0.16067   0.74479   0.00000  Uiso   1.00
C515   C     0.48451   0.11843   0.59352   0.00000  Uiso   1.00
C516   C     0.51549   0.21490   0.90648   0.00000  Uiso   1.00
C517   C     0.49663   0.16559   0.61623   0.00000  Uiso   1.00
C518   C     0.50337   0.16774   0.88377   0.00000  Uiso   1.00
C519   C     0.50988   0.21229   0.59385   0.00000  Uiso   1.00
C520   C     0.49012   0.12104   0.90615   0.00000  Uiso   1.00
C521   C     0.51148   0.21303   0.54741   0.00000  Uiso   1.00
C522   C     0.48853   0.12030   0.95259   0.00000  Uiso   1.00
C523   C     0.49925   0.16622   0.52348   0.00000  Uiso   1.00
C524   C     0.50075   0.16712   0.97652   0.00000  Uiso   1.00
C525   C     0.48559   0.11858   0.54648   0.00000  Uiso   1.00
C526   C     0.51442   0.21476   0.95352   0.00000  Uiso   1.00
C527   C     0.52561   0.25979   0.52468   0.00000  Uiso   1.00
C528   C     0.47439   0.07355   0.97532   0.00000  Uiso   1.00
C529   C     0.52732   0.26068   0.97803   0.00000  Uiso   1.00
C530   C     0.47268   0.07265   0.52197   0.00000  Uiso   1.00
H531   H     0.51960   0.24787   0.61280   0.00000  Uiso   1.00
H532   H     0.48040   0.08546   0.88720   0.00000  Uiso   1.00
H533   H     0.53565   0.29564   0.54299   0.00000  Uiso   1.00
H534   H     0.46435   0.03769   0.95701   0.00000  Uiso   1.00
H535   H     0.53916   0.29740   0.96147   0.00000  Uiso   1.00
H536   H     0.46084   0.03593   0.53853   0.00000  Uiso   1.00
C537   C     0.52328   0.31942   0.74815   0.00000  Uiso   1.00
C538   C     0.47672   0.01391   0.75185   0.00000  Uiso   1.00
H539   H     0.56726   0.00313   0.74468   0.00000  Uiso   1.00
H540   H     0.43274   0.33020   0.75532   0.00000  Uiso   1.00
N541   N     0.65011   0.15265   0.73783   0.00000  Uiso   1.00
N542   N     0.34989   0.18068   0.76217   0.00000  Uiso   1.00
H543   H     0.33786   0.12763   0.71611   0.00000  Uiso   1.00
H544   H     0.66214   0.20571   0.78389   0.00000  Uiso   1.00
N545   N     0.47274   0.07088   0.61825   0.00000  Uiso   1.00
O546   O     0.42865   0.06598   0.64735   0.00000  Uiso   1.00
O547   O     0.50840   0.03393   0.61402   0.00000  Uiso   1.00
N548   N     0.52725   0.26245   0.88175   0.00000  Uiso   1.00
O549   O     0.57134   0.26735   0.85264   0.00000  Uiso   1.00
O550   O     0.49160   0.29941   0.88599   0.00000  Uiso   1.00
O551   O     0.79642   0.24619   0.75298   0.00000  Uiso   1.00
O552   O     0.87025   0.08714   0.74702   0.00000  Uiso   1.00
O553   O     0.89280   0.23721   0.74519   0.00000  Uiso   1.00
O554   O     0.77387   0.09613   0.75481   0.00000  Uiso   1.00
C555   C     0.84859   0.26490   0.74878   0.00000  Uiso   1.00
C556   C     0.81808   0.06844   0.75122   0.00000  Uiso   1.00
O557   O     0.78514   0.17117   0.81997   0.00000  Uiso   1.00
O558   O     0.88153   0.16216   0.68003   0.00000  Uiso   1.00
O559   O     0.88152   0.16219   0.81217   0.00000  Uiso   1.00
O560   O     0.78515   0.17115   0.68782   0.00000  Uiso   1.00
C561   C     0.83434   0.16702   0.83630   0.00000  Uiso   1.00
C562   C     0.83232   0.16631   0.66370   0.00000  Uiso   1.00
Zn563  Zn    0.76898   0.17266   0.75521   0.00000  Uiso   1.00
Zn564  Zn    0.89769   0.16067   0.74479   0.00000  Uiso   1.00
C565   C     0.81785   0.11843   0.59352   0.00000  Uiso   1.00
C566   C     0.84882   0.21490   0.90648   0.00000  Uiso   1.00
C567   C     0.82996   0.16559   0.61623   0.00000  Uiso   1.00
C568   C     0.83671   0.16774   0.88377   0.00000  Uiso   1.00
C569   C     0.84322   0.21229   0.59385   0.00000  Uiso   1.00
C570   C     0.82345   0.12104   0.90615   0.00000  Uiso   1.00
C571   C     0.84481   0.21303   0.54741   0.00000  Uiso   1.00
C572   C     0.82186   0.12030   0.95259   0.00000  Uiso   1.00
C573   C     0.83259   0.16622   0.52348   0.00000  Uiso   1.00
C574   C     0.83408   0.16712   0.97652   0.00000  Uiso   1.00
C575   C     0.81892   0.11858   0.54648   0.00000  Uiso   1.00
C576   C     0.84775   0.21476   0.95352   0.00000  Uiso   1.00
C577   C     0.85895   0.25979   0.52468   0.00000  Uiso   1.00
C578   C     0.80772   0.07355   0.97532   0.00000  Uiso   1.00
C579   C     0.86065   0.26068   0.97803   0.00000  Uiso   1.00
C580   C     0.80601   0.07265   0.52197   0.00000  Uiso   1.00
H581   H     0.85293   0.24787   0.61280   0.00000  Uiso   1.00
H582   H     0.81374   0.08546   0.88720   0.00000  Uiso   1.00
H583   H     0.86898   0.29564   0.54299   0.00000  Uiso   1.00
H584   H     0.79768   0.03769   0.95701   0.00000  Uiso   1.00
H585   H     0.87250   0.29740   0.96147   0.00000  Uiso   1.00
H586   H     0.79417   0.03593   0.53853   0.00000  Uiso   1.00
C587   C     0.85662   0.31942   0.74815   0.00000  Uiso   1.00
C588   C     0.81005   0.01391   0.75185   0.00000  Uiso   1.00
H589   H     0.90059   0.00313   0.74468   0.00000  Uiso   1.00
H590   H     0.76607   0.33020   0.75532   0.00000  Uiso   1.00
N591   N     0.98344   0.15265   0.73783   0.00000  Uiso   1.00
N592   N     0.68322   0.18068   0.76217   0.00000  Uiso   1.00
H593   H     0.67119   0.12763   0.71611   0.00000  Uiso   1.00
H594   H     0.99547   0.20571   0.78389   0.00000  Uiso   1.00
N595   N     0.80608   0.07088   0.61825   0.00000  Uiso   1.00
O596   O     0.76199   0.06598   0.64735   0.00000  Uiso   1.00
O597   O     0.84174   0.03393   0.61402   0.00000  Uiso   1.00
N598   N     0.86059   0.26245   0.88175   0.00000  Uiso   1.00
O599   O     0.90468   0.26735   0.85264   0.00000  Uiso   1.00
O600   O     0.82493   0.29941   0.88599   0.00000  Uiso   1.00
O601   O     0.12975   0.57952   0.75298   0.00000  Uiso   1.00
O602   O     0.20358   0.42048   0.74702   0.00000  Uiso   1.00
O603   O     0.22613   0.57054   0.74519   0.00000  Uiso   1.00
O604   O     0.10720   0.42946   0.75481   0.00000  Uiso   1.00
C605   C     0.18192   0.59823   0.74878   0.00000  Uiso   1.00
C606   C     0.15141   0.40177   0.75122   0.00000  Uiso   1.00
O607   O     0.11847   0.50450   0.81997   0.00000  Uiso   1.00
O608   O     0.21486   0.49550   0.68003   0.00000  Uiso   1.00
O609   O     0.21485   0.49552   0.81217   0.00000  Uiso   1.00
O610   O     0.11848   0.50448   0.68782   0.00000  Uiso   1.00
C611   C     0.16768   0.50035   0.83630   0.00000  Uiso   1.00
C612   C     0.16566   0.49965   0.66370   0.00000  Uiso   1.00
Zn613  Zn    0.10231   0.50600   0.75521   0.00000  Uiso   1.00
Zn614  Zn    0.23102   0.49400   0.74479   0.00000  Uiso   1.00
C615   C     0.15118   0.45177   0.59352   0.00000  Uiso   1.00
C616   C     0.18215   0.54823   0.90648   0.00000  Uiso   1.00
C617   C     0.16329   0.49892   0.61623   0.00000  Uiso   1.00
C618   C     0.17004   0.50108   0.88377   0.00000  Uiso   1.00
C619   C     0.17655   0.54563   0.59385   0.00000  Uiso   1.00
C620   C     0.15679   0.45437   0.90615   0.00000  Uiso   1.00
C621   C     0.17814   0.54636   0.54741   0.00000  Uiso   1.00
C622   C     0.15519   0.45364   0.95259   0.00000  Uiso   1.00
C623   C     0.16592   0.49955   0.52348   0.00000  Uiso   1.00
C624   C     0.16741   0.50045   0.97652   0.00000  Uiso   1.00
C625   C     0.15225   0.45191   0.54648   0.00000  Uiso   1.00
C626   C     0.18108   0.54809   0.95352   0.00000  Uiso   1.00
C627   C     0.19228   0.59312   0.52468   0.00000  Uiso   1.00
C628   C     0.14105   0.40688   0.97532   0.00000  Uiso   1.00
C629   C     0.19399   0.59401   0.97803   0.00000  Uiso   1.00
C630   C     0.13935   0.40599   0.52197   0.00000  Uiso   1.00
H631   H     0.18626   0.58121   0.61280   0.00000  Uiso   1.00
H632   H     0.14707   0.41879   0.88720   0.00000  Uiso   1.00
H633   H     0.20232   0.62897   0.54299   0.00000  Uiso   1.00
H634   H     0.13102   0.37103   0.95701   0.00000  Uiso   1.00
H635   H     0.20583   0.63073   0.96147   0.00000  Uiso   1.00
H636   H     0.12751   0.36927   0.53853   0.00000  Uiso   1.00
C637   C     0.18995   0.65275   0.74815   0.00000  Uiso   1.00
C638   C     0.14338   0.34725   0.75185   0.00000  Uiso   1.00
H639   H     0.23393   0.33647   0.74468   0.00000  Uiso   1.00
H640   H     0.09941   0.66353   0.75532   0.00000  Uiso   1.00
N641   N     0.31678   0.48598   0.73783   0.00000  Uiso   1.00
N642   N     0.01656   0.51402   0.76217   0.00000  Uiso   1.00
H643   H     0.00453   0.46096   0.71611   0.00000  Uiso   1.00
H644   H     0.32881   0.53904   0.78389   0.00000  Uiso   1.00
N645   N     0.13941   0.40422   0.61825   0.00000  Uiso   1.00
O646   O     0.09532   0.39932   0.64735   0.00000  Uiso   1.00
O647   O     0.17507   0.36726   0.61402   0.00000  Uiso   1.00
N648   N     0.19392   0.59578   0.88175   0.00000  Uiso   1.00
O649   O     0.23801   0.60068   0.85264   0.00000  Uiso   1.00
O650   O     0.15826   0.63274   0.88599   0.00000  Uiso   1.00
O651   O     0.46308   0.57952   0.75298   0.00000  Uiso   1.00
O652   O     0.53692   0.42048   0.74702   0.00000  Uiso   1.00
O653   O     0.55946   0.57054   0.74519   0.00000  Uiso   1.00
O654   O     0.44054   0.42946   0.75481   0.00000  Uiso   1.00
C655   C     0.51526   0.59823   0.74878   0.00000  Uiso   1.00
C656   C     0.48474   0.40177   0.75122   0.00000  Uiso   1.00
O657   O     0.45181   0.50450   0.81997   0.00000  Uiso   1.00
O658   O     0.54819   0.49550   0.68003   0.00000  Uiso   1.00
O659   O     0.54819   0.49552   0.81217   0.00000  Uiso   1.00
O660   O     0.45181   0.50448   0.68782   0.00000  Uiso   1.00
C661   C     0.50101   0.50035   0.83630   0.00000  Uiso   1.00
C662   C     0.49899   0.49965   0.66370   0.00000  Uiso   1.00
Zn663  Zn    0.43565   0.50600   0.75521   0.00000  Uiso   1.00
Zn664  Zn    0.56435   0.49400   0.74479   0.00000  Uiso   1.00
C665   C     0.48451   0.45177   0.59352   0.00000  Uiso   1.00
C666   C     0.51549   0.54823   0.90648   0.00000  Uiso   1.00
C667   C     0.49663   0.49892   0.61623   0.00000  Uiso   1.00
C668   C     0.50337   0.50108   0.88377   0.00000  Uiso   1.00
C669   C     0.50988   0.54563   0.59385   0.00000  Uiso   1.00
C670   C     0.49012   0.45437   0.90615   0.00000  Uiso   1.00
C671   C     0.51148   0.54636   0.54741   0.00000  Uiso   1.00
C672   C     0.48853   0.45364   0.95259   0.00000  Uiso   1.00
C673   C     0.49925   0.49955   0.52348   0.00000  Uiso   1.00
C674   C     0.50075   0.50045   0.97652   0.00000  Uiso   1.00
C675   C     0.48559   0.45191   0.54648   0.00000  Uiso   1.00
C676   C     0.51442   0.54809   0.95352   0.00000  Uiso   1.00
C677   C     0.52561   0.59312   0.52468   0.00000  Uiso   1.00
C678   C     0.47439   0.40688   0.97532   0.00000  Uiso   1.00
C679   C     0.52732   0.59401   0.97803   0.00000  Uiso   1.00
C680   C     0.47268   0.40599   0.52197   0.00000  Uiso   1.00
H681   H     0.51960   0.58121   0.61280   0.00000  Uiso   1.00
H682   H     0.48040   0.41879   0.88720   0.00000  Uiso   1.00
H683   H     0.53565   0.62897   0.54299   0.00000  Uiso   1.00
H684   H     0.46435   0.37103   0.95701   0.00000  Uiso   1.00
H685   H     0.53916   0.63073   0.96147   0.00000  Uiso   1.00
H686   H     0.46084   0.36927   0.53853   0.00000  Uiso   1.00
C687   C     0.52328   0.65275   0.74815   0.00000  Uiso   1.00
C688   C     0.47672   0.34725   0.75185   0.00000  Uiso   1.00
H689   H     0.56726   0.33647   0.74468   0.00000  Uiso   1.00
H690   H     0.43274   0.66353   0.75532   0.00000  Uiso   1.00
N691   N     0.65011   0.48598   0.73783   0.00000  Uiso   1.00
N692   N     0.34989   0.51402   0.76217   0.00000  Uiso   1.00
H693   H     0.33786   0.46096   0.71611   0.00000  Uiso   1.00
H694   H     0.66214   0.53904   0.78389   0.00000  Uiso   1.00
N695   N     0.47274   0.40422   0.61825   0.00000  Uiso   1.00
O696   O     0.42865   0.39932   0.64735   0.00000  Uiso   1.00
O697   O     0.50840   0.36726   0.61402   0.00000  Uiso   1.00
N698   N     0.52725   0.59578   0.88175   0.00000  Uiso   1.00
O699   O     0.57134   0.60068   0.85264   0.00000  Uiso   1.00
O700   O     0.49160   0.63274   0.88599   0.00000  Uiso   1.00
O701   O     0.79642   0.57952   0.75298   0.00000  Uiso   1.00
O702   O     0.87025   0.42048   0.74702   0.00000  Uiso   1.00
O703   O     0.89280   0.57054   0.74519   0.00000  Uiso   1.00
O704   O     0.77387   0.42946   0.75481   0.00000  Uiso   1.00
C705   C     0.84859   0.59823   0.74878   0.00000  Uiso   1.00
C706   C     0.81808   0.40177   0.75122   0.00000  Uiso   1.00
O707   O     0.78514   0.50450   0.81997   0.00000  Uiso   1.00
O708   O     0.88153   0.49550   0.68003   0.00000  Uiso   1.00
O709   O     0.88152   0.49552   0.81217   0.00000  Uiso   1.00
O710   O     0.78515   0.50448   0.68782   0.00000  Uiso   1.00
C711   C     0.83434   0.50035   0.83630   0.00000  Uiso   1.00
C712   C     0.83232   0.49965   0.66370   0.00000  Uiso   1.00
Zn713  Zn    0.76898   0.50600   0.75521   0.00000  Uiso   1.00
Zn714  Zn    0.89769   0.49400   0.74479   0.00000  Uiso   1.00
C715   C     0.81785   0.45177   0.59352   0.00000  Uiso   1.00
C716   C     0.84882   0.54823   0.90648   0.00000  Uiso   1.00
C717   C     0.82996   0.49892   0.61623   0.00000  Uiso   1.00
C718   C     0.83671   0.50108   0.88377   0.00000  Uiso   1.00
C719   C     0.84322   0.54563   0.59385   0.00000  Uiso   1.00
C720   C     0.82345   0.45437   0.90615   0.00000  Uiso   1.00
C721   C     0.84481   0.54636   0.54741   0.00000  Uiso   1.00
C722   C     0.82186   0.45364   0.95259   0.00000  Uiso   1.00
C723   C     0.83259   0.49955   0.52348   0.00000  Uiso   1.00
C724   C     0.83408   0.50045   0.97652   0.00000  Uiso   1.00
C725   C     0.81892   0.45191   0.54648   0.00000  Uiso   1.00
C726   C     0.84775   0.54809   0.95352   0.00000  Uiso   1.00
C727   C     0.85895   0.59312   0.52468   0.00000  Uiso   1.00
C728   C     0.80772   0.40688   0.97532   0.00000  Uiso   1.00
C729   C     0.86065   0.59401   0.97803   0.00000  Uiso   1.00
C730   C     0.80601   0.40599   0.52197   0.00000  Uiso   1.00
H731   H     0.85293   0.58121   0.61280   0.00000  Uiso   1.00
H732   H     0.81374   0.41879   0.88720   0.00000  Uiso   1.00
H733   H     0.86898   0.62897   0.54299   0.00000  Uiso   1.00
H734   H     0.79768   0.37103   0.95701   0.00000  Uiso   1.00
H735   H     0.87250   0.63073   0.96147   0.00000  Uiso   1.00
H736   H     0.79417   0.36927   0.53853   0.00000  Uiso   1.00
C737   C     0.85662   0.65275   0.74815   0.00000  Uiso   1.00
C738   C     0.81005   0.34725   0.75185   0.00000  Uiso   1.00
H739   H     0.90059   0.33647   0.74468   0.00000  Uiso   1.00
H740   H     0.76607   0.66353   0.75532   0.00000  Uiso   1.00
N741   N     0.98344   0.48598   0.73783   0.00000  Uiso   1.00
N742   N     0.68322   0.51402   0.76217   0.00000  Uiso   1.00
H743   H     0.67119   0.46096   0.71611   0.00000  Uiso   1.00
H744   H     0.99547   0.53904   0.78389   0.00000  Uiso   1.00
N745   N     0.80608   0.40422   0.61825   0.00000  Uiso   1.00
O746   O     0.76199   0.39932   0.64735   0.00000  Uiso   1.00
O747   O     0.84174   0.36726   0.61402   0.00000  Uiso   1.00
N748   N     0.86059   0.59578   0.88175   0.00000  Uiso   1.00
O749   O     0.90468   0.60068   0.85264   0.00000  Uiso   1.00
O750   O     0.82493   0.63274   0.88599   0.00000  Uiso   1.00
O751   O     0.12975   0.91286   0.75298   0.00000  Uiso   1.00
O752   O     0.20358   0.75381   0.74702   0.00000  Uiso   1.00
O753   O     0.22613   0.90387   0.74519   0.00000  Uiso   1.00
O754   O     0.10720   0.76279   0.75481   0.00000  Uiso   1.00
C755   C     0.18192   0.93156   0.74878   0.00000  Uiso   1.00
C756   C     0.15141   0.73510   0.75122   0.00000  Uiso   1.00
O757   O     0.11847   0.83784   0.81997   0.00000  Uiso   1.00
O758   O     0.21486   0.82883   0.68003   0.00000  Uiso   1.00
O759   O     0.21485   0.82885   0.81217   0.00000  Uiso   1.00
O760   O     0.11848   0.83781   0.68782   0.00000  Uiso   1.00
C761   C     0.16768   0.83369   0.83630   0.00000  Uiso   1.00
C762   C     0.16566   0.83298   0.66370   0.00000  Uiso   1.00
Zn763  Zn    0.10231   0.83933   0.75521   0.00000  Uiso   1.00
Zn764  Zn    0.23102   0.82734   0.74479   0.00000  Uiso   1.00
C765   C     0.15118   0.78510   0.59352   0.00000  Uiso   1.00
C766   C     0.18215   0.88157   0.90648   0.00000  Uiso   1.00
C767   C     0.16329   0.83226   0.61623   0.00000  Uiso   1.00
C768   C     0.17004   0.83441   0.88377   0.00000  Uiso   1.00
C769   C     0.17655   0.87896   0.59385   0.00000  Uiso   1.00
C770   C     0.15679   0.78771   0.90615   0.00000  Uiso   1.00
C771   C     0.17814   0.87970   0.54741   0.00000  Uiso   1.00
C772   C     0.15519   0.78697   0.95259   0.00000  Uiso   1.00
C773   C     0.16592   0.83288   0.52348   0.00000  Uiso   1.00
C774   C     0.16741   0.83378   0.97652   0.00000  Uiso   1.00
C775   C     0.15225   0.78524   0.54648   0.00000  Uiso   1.00
C776   C     0.18108   0.88142   0.95352   0.00000  Uiso   1.00
C777   C     0.19228   0.92645   0.52468   0.00000  Uiso   1.00
C778   C     0.14105   0.74021   0.97532   0.00000  Uiso   1.00
C779   C     0.19399   0.92735   0.97803   0.00000  Uiso   1.00
C780   C     0.13935   0.73932   0.52197   0.00000  Uiso   1.00
H781   H     0.18626   0.91454   0.61280   0.00000  Uiso   1.00
H782   H     0.14707   0.75213   0.88720   0.00000  Uiso   1.00
H783   H     0.20232   0.96231   0.54299   0.00000  Uiso   1.00
H784   H     0.13102   0.70436   0.95701   0.00000  Uiso   1.00
H785   H     0.20583   0.96407   0.96147   0.00000  Uiso   1.00
H786   H     0.12751   0.70260   0.53853   0.00000  Uiso   1.00
C787   C     0.18995   0.98608   0.74815   0.00000  Uiso   1.00
C788   C     0.14338   0.68058   0.75185   0.00000  Uiso   1.00
H789   H     0.23393   0.66980   0.74468   0.00000  Uiso   1.00
H790   H     0.09941   0.99687   0.75532   0.00000  Uiso   1.00
N791   N     0.31678   0.81932   0.73783   0.00000  Uiso   1.00
N792   N     0.01656   0.84735   0.76217   0.00000  Uiso   1.00
H793   H     0.00453   0.79429   0.71611   0.00000  Uiso   1.00
H794   H     0.32881   0.87237   0.78389   0.00000  Uiso   1.00
N795   N     0.13941   0.73755   0.61825   0.00000  Uiso   1.00
O796   O     0.09532   0.73265   0.64735   0.00000  Uiso   1.00
O797   O     0.17507   0.70060   0.61402   0.00000  Uiso   1.00
N798   N     0.19392   0.92912   0.88175   0.00000  Uiso   1.00
O799   O     0.23801   0.93401   0.85264   0.00000  Uiso   1.00
O800   O     0.15826   0.96607   0.88599   0.00000  Uiso   1.00
O801   O     0.46308   0.91286   0.75298   0.00000  Uiso   1.00
O802   O     0.53692   0.75381   0.74702   0.00000  Uiso   1.00
O803   O     0.55946   0.90387   0.74519   0.00000  Uiso   1.00
O804   O     0.44054   0.76279   0.75481   0.00000  Uiso   1.00
C805   C     0.51526   0.93156   0.74878   0.00000  Uiso   1.00
C806   C     0.48474   0.73510   0.75122   0.00000  Uiso   1.00
O807   O     0.45181   0.83784   0.81997   0.00000  Uiso   1.00
O808   O     0.54819   0.82883   0.68003   0.00000  Uiso   1.00
O809   O     0.54819   0.82885   0.81217   0.00000  Uiso   1.00
O810   O     0.45181   0.83781   0.68782   0.00000  Uiso   1.00
C811   C     0.50101   0.83369   0.83630   0.00000  Uiso   1.00
C812   C     0.49899   0.83298   0.66370   0.00000  Uiso   1.00
Zn813  Zn    0.43565   0.83933   0.75521   0.00000  Uiso   1.00
Zn814  Zn    0.56435   0.82734   0.74479   0.00000  Uiso   1.00
C815   C     0.48451   0.78510   0.59352   0.00000  Uiso   1.00
C816   C     0.51549   0.88157   0.90648   0.00000  Uiso   1.00
C817   C     0.49663   0.83226   0.61623   0.00000  Uiso   1.00
C818   C     0.50337   0.83441   0.88377   0.00000  Uiso   1.00
C819   C     0.50988   0.87896   0.59385   0.00000  Uiso   1.00
C820   C     0.49012   0.78771   0.90615   0.00000  Uiso   1.00
C821   C     0.51148   0.87970   0.54741   0.00000  Uiso   1.00
C822   C     0.48853   0.78697   0.95259   0.00000  Uiso   1.00
C823   C     0.49925   0.83288   0.52348   0.00000  Uiso   1.00
C824   C     0.50075   0.83378   0.97652   0.00000  Uiso   1.00
C825   C     0.48559   0.78524   0.54648   0.00000  Uiso   1.00
C826   C     0.51442   0.88142   0.95352   0.00000  Uiso   1.00
C827   C     0.52561   0.92645   0.52468   0.00000  Uiso   1.00
C828   C     0.47439   0.74021   0.97532   0.00000  Uiso   1.00
C829   C     0.52732   0.92735   0.97803   0.00000  Uiso   1.00
C830   C     0.47268   0.73932   0.52197   0.00000  Uiso   1.00
H831   H     0.51960   0.91454   0.61280   0.00000  Uiso   1.00
H832   H     0.48040   0.75213   0.88720   0.00000  Uiso   1.00
H833   H     0.53565   0.96231   0.54299   0.00000  Uiso   1.00
H834   H     0.46435   0.70436   0.95701   0.00000  Uiso   1.00
H835   H     0.53916   0.96407   0.96147   0.00000  Uiso   1.00
H836   H     0.46084   0.70260   0.53853   0.00000  Uiso   1.00
C837   C     0.52328   0.98608   0.74815   0.00000  Uiso   1.00
C838   C     0.47672   0.68058   0.75185   0.00000  Uiso   1.00
H839   H     0.56726   0.66980   0.74468   0.00000  Uiso   1.00
H840   H     0.43274   0.99687   0.75532   0.00000  Uiso   1.00
N841   N     0.65011   0.81932   0.73783   0.00000  Uiso   1.00
N842   N     0.34989   0.84735   0.76217   0.00000  Uiso   1.00
H843   H     0.33786   0.79429   0.71611   0.00000  Uiso   1.00
H844   H     0.66214   0.87237   0.78389   0.00000  Uiso   1.00
N845   N     0.47274   0.73755   0.61825   0.00000  Uiso   1.00
O846   O     0.42865   0.73265   0.64735   0.00000  Uiso   1.00
O847   O     0.50840   0.70060   0.61402   0.00000  Uiso   1.00
N848   N     0.52725   0.92912   0.88175   0.00000  Uiso   1.00
O849   O     0.57134   0.93401   0.85264   0.00000  Uiso   1.00
O850   O     0.49160   0.96607   0.88599   0.00000  Uiso   1.00
O851   O     0.79642   0.91286   0.75298   0.00000  Uiso   1.00
O852   O     0.87025   0.75381   0.74702   0.00000  Uiso   1.00
O853   O     0.89280   0.90387   0.74519   0.00000  Uiso   1.00
O854   O     0.77387   0.76279   0.75481   0.00000  Uiso   1.00
C855   C     0.84859   0.93156   0.74878   0.00000  Uiso   1.00
C856   C     0.81808   0.73510   0.75122   0.00000  Uiso   1.00
O857   O     0.78514   0.83784   0.81997   0.00000  Uiso   1.00
O858   O     0.88153   0.82883   0.68003   0.00000  Uiso   1.00
O859   O     0.88152   0.82885   0.81217   0.00000  Uiso   1.00
O860   O     0.78515   0.83781   0.68782   0.00000  Uiso   1.00
C861   C     0.83434   0.83369   0.83630   0.00000  Uiso   1.00
C862   C     0.83232   0.83298   0.66370   0.00000  Uiso   1.00
Zn863  Zn    0.76898   0.83933   0.75521   0.00000  Uiso   1.00
Zn864  Zn    0.89769   0.82734   0.74479   0.00000  Uiso   1.00
C865   C     0.81785   0.78510   0.59352   0.00000  Uiso   1.00
C866   C     0.84882   0.88157   0.90648   0.00000  Uiso   1.00
C867   C     0.82996   0.83226   0.61623   0.00000  Uiso   1.00
C868   C     0.83671   0.83441   0.88377   0.00000  Uiso   1.00
C869   C     0.84322   0.87896   0.59385   0.00000  Uiso   1.00
C870   C     0.82345   0.78771   0.90615   0.00000  Uiso   1.00
C871   C     0.84481   0.87970   0.54741   0.00000  Uiso   1.00
C872   C     0.82186   0.78697   0.95259   0.00000  Uiso   1.00
C873   C     0.83259   0.83288   0.52348   0.00000  Uiso   1.00
C874   C     0.83408   0.83378   0.97652   0.00000  Uiso   1.00
C875   C     0.81892   0.78524   0.54648   0.00000  Uiso   1.00
C876   C     0.84775   0.88142   0.95352   0.00000  Uiso   1.00
C877   C     0.85895   0.92645   0.52468   0.00000  Uiso   1.00
C878   C     0.80772   0.74021   0.97532   0.00000  Uiso   1.00
C879   C     0.86065   0.92735   0.97803   0.00000  Uiso   1.00
C880   C     0.80601   0.73932   0.52197   0.00000  Uiso   1.00
H881   H     0.85293   0.91454   0.61280   0.00000  Uiso   1.00
H882   H     0.81374   0.75213   0.88720   0.00000  Uiso   1.00
H883   H     0.86898   0.96231   0.54299   0.00000  Uiso   1.00
H884   H     0.79768   0.70436   0.95701   0.00000  Uiso   1.00
H885   H     0.87250   0.96407   0.96147   0.00000  Uiso   1.00
H886   H     0.79417   0.70260   0.53853   0.00000  Uiso   1.00
C887   C     0.85662   0.98608   0.74815   0.00000  Uiso   1.00
C888   C     0.81005   0.68058   0.75185   0.00000  Uiso   1.00
H889   H     0.90059   0.66980   0.74468   0.00000  Uiso   1.00
H890   H     0.76607   0.99687   0.75532   0.00000  Uiso   1.00
N891   N     0.98344   0.81932   0.73783   0.00000  Uiso   1.00
N892   N     0.68322   0.84735   0.76217   0.00000  Uiso   1.00
H893   H     0.67119   0.79429   0.71611   0.00000  Uiso   1.00
H894   H     0.99547   0.87237   0.78389   0.00000  Uiso   1.00
N895   N     0.80608   0.73755   0.61825   0.00000  Uiso   1.00
O896   O     0.76199   0.73265   0.64735   0.00000  Uiso   1.00
O897   O     0.84174   0.70060   0.61402   0.00000  Uiso   1.00
N898   N     0.86059   0.92912   0.88175   0.00000  Uiso   1.00
O899   O     0.90468   0.93401   0.85264   0.00000  Uiso   1.00
O900   O     0.82493   0.96607   0.88599   0.00000  Uiso   1.00
loop_
_geom_bond_atom_site_label_1
_geom_bond_atom_site_label_2
_geom_bond_distance
_geom_bond_site_symmetry_2
_ccdc_geom_bond_type
O1     C5      1.278   .     A
O1     Zn13    1.955   .     S
O2     C6      1.278   .     A
O2     Zn14    1.955   .     S
O3     Zn14    1.976   .     S
O3     C5      1.287   .     A
O4     C6      1.287   .     A
O4     Zn13    1.976   .     S
C5     C37     1.401   .     S
C6     C38     1.401   .     S
O7     C11     1.286   .     A
O7     Zn13    1.989   .     S
O8     C12     1.286   .     A
O8     Zn14    1.989   .     S
O9     Zn14    2.016   .     S
O9     C11     1.285   .     A
O10    C12     1.285   .     A
O10    Zn13    2.016   .     S
C11    C18     1.417   .     S
C12    C17     1.417   .     S
Zn13   N42     2.020   .     S
Zn14   N41     2.020   .     S
C15    C25     1.398   .     A
C15    N45     1.437   .     S
C15    C17     1.400   .     A
C16    N48     1.437   .     S
C16    C26     1.398   .     A
C16    C18     1.400   .     A
C17    C19     1.388   .     A
C18    C20     1.388   .     A
C19    H31     1.086   .     S
C19    C21     1.380   .     A
C20    C22     1.380   .     A
C20    H32     1.086   .     S
C21    C27     1.397   .     A
C21    C23     1.411   .     A
C22    C28     1.397   .     A
C22    C24     1.411   .     A
C23    C25     1.419   .     A
C23    C474    1.396   1_554 S
C24    C26     1.419   .     A
C24    C473    1.396   .     S
C25    C30     1.404   .     A
C26    C29     1.404   .     A
C27    H33     1.084   .     S
C27    C479    1.386   1_554 S
C28    H34     1.084   .     S
C28    C480    1.386   .     S
C29    H35     1.082   .     S
C29    C477    1.386   .     S
C30    H36     1.082   .     S
C30    C478    1.386   1_554 S
C37    C188    1.336   .     S
C37    H189    1.088   .     S
C38    C337    1.336   1_545 S
C38    H340    1.088   1_545 S
H39    C337    1.088   1_545 S
H40    C188    1.088   .     S
N41    N92     1.275   .     S
N41    H93     1.029   .     S
N42    N141    1.275   1_455 S
N42    H144    1.029   1_455 S
H43    N141    1.029   1_455 S
H44    N92     1.029   .     S
N45    O46     1.301   .     A
N45    O47     1.301   .     A
N48    O50     1.301   .     A
N48    O49     1.301   .     A
O51    C55     1.278   .     A
O51    Zn63    1.955   .     S
O52    C56     1.278   .     A
O52    Zn64    1.955   .     S
O53    Zn64    1.976   .     S
O53    C55     1.287   .     A
O54    C56     1.287   .     A
O54    Zn63    1.976   .     S
C55    C87     1.401   .     S
C56    C88     1.401   .     S
O57    C61     1.286   .     A
O57    Zn63    1.989   .     S
O58    C62     1.286   .     A
O58    Zn64    1.989   .     S
O59    Zn64    2.016   .     S
O59    C61     1.285   .     A
O60    C62     1.285   .     A
O60    Zn63    2.016   .     S
C61    C68     1.417   .     S
C62    C67     1.417   .     S
Zn63   N92     2.020   .     S
Zn64   N91     2.020   .     S
C65    C75     1.398   .     A
C65    N95     1.437   .     S
C65    C67     1.400   .     A
C66    N98     1.437   .     S
C66    C76     1.398   .     A
C66    C68     1.400   .     A
C67    C69     1.388   .     A
C68    C70     1.388   .     A
C69    H81     1.086   .     S
C69    C71     1.380   .     A
C70    C72     1.380   .     A
C70    H82     1.086   .     S
C71    C77     1.397   .     A
C71    C73     1.411   .     A
C72    C78     1.397   .     A
C72    C74     1.411   .     A
C73    C75     1.419   .     A
C73    C524    1.396   1_554 S
C74    C76     1.419   .     A
C74    C523    1.396   .     S
C75    C80     1.404   .     A
C76    C79     1.404   .     A
C77    H83     1.084   .     S
C77    C529    1.386   1_554 S
C78    H84     1.084   .     S
C78    C530    1.386   .     S
C79    H85     1.082   .     S
C79    C527    1.386   .     S
C80    H86     1.082   .     S
C80    C528    1.386   1_554 S
C87    C238    1.336   .     S
C87    H239    1.088   .     S
C88    C387    1.336   1_545 S
C88    H390    1.088   1_545 S
H89    C387    1.088   1_545 S
H90    C238    1.088   .     S
N91    N142    1.275   .     S
N91    H143    1.029   .     S
H94    N142    1.029   .     S
N95    O96     1.301   .     A
N95    O97     1.301   .     A
N98    O100    1.301   .     A
N98    O99     1.301   .     A
O101   C105    1.278   .     A
O101   Zn113   1.955   .     S
O102   C106    1.278   .     A
O102   Zn114   1.955   .     S
O103   Zn114   1.976   .     S
O103   C105    1.287   .     A
O104   C106    1.287   .     A
O104   Zn113   1.976   .     S
C105   C137    1.401   .     S
C106   C138    1.401   .     S
O107   C111    1.286   .     A
O107   Zn113   1.989   .     S
O108   C112    1.286   .     A
O108   Zn114   1.989   .     S
O109   Zn114   2.016   .     S
O109   C111    1.285   .     A
O110   C112    1.285   .     A
O110   Zn113   2.016   .     S
C111   C118    1.417   .     S
C112   C117    1.417   .     S
Zn113  N142    2.020   .     S
Zn114  N141    2.020   .     S
C115   C125    1.398   .     A
C115   N145    1.437   .     S
C115   C117    1.400   .     A
C116   N148    1.437   .     S
C116   C126    1.398   .     A
C116   C118    1.400   .     A
C117   C119    1.388   .     A
C118   C120    1.388   .     A
C119   H131    1.086   .     S
C119   C121    1.380   .     A
C120   C122    1.380   .     A
C120   H132    1.086   .     S
C121   C127    1.397   .     A
C121   C123    1.411   .     A
C122   C128    1.397   .     A
C122   C124    1.411   .     A
C123   C125    1.419   .     A
C123   C574    1.396   1_554 S
C124   C126    1.419   .     A
C124   C573    1.396   .     S
C125   C130    1.404   .     A
C126   C129    1.404   .     A
C127   H133    1.084   .     S
C127   C579    1.386   1_554 S
C128   H134    1.084   .     S
C128   C580    1.386   .     S
C129   H135    1.082   .     S
C129   C577    1.386   .     S
C130   H136    1.082   .     S
C130   C578    1.386   1_554 S
C137   C288    1.336   .     S
C137   H289    1.088   .     S
C138   C437    1.336   1_545 S
C138   H440    1.088   1_545 S
H139   C437    1.088   1_545 S
H140   C288    1.088   .     S
N141   N42     1.275   1_655 S
N141   H43     1.029   1_655 S
H144   N42     1.029   1_655 S
N145   O146    1.301   .     A
N145   O147    1.301   .     A
N148   O150    1.301   .     A
N148   O149    1.301   .     A
O151   C155    1.278   .     A
O151   Zn163   1.955   .     S
O152   C156    1.278   .     A
O152   Zn164   1.955   .     S
O153   Zn164   1.976   .     S
O153   C155    1.287   .     A
O154   C156    1.287   .     A
O154   Zn163   1.976   .     S
C155   C187    1.401   .     S
C156   C188    1.401   .     S
O157   C161    1.286   .     A
O157   Zn163   1.989   .     S
O158   C162    1.286   .     A
O158   Zn164   1.989   .     S
O159   Zn164   2.016   .     S
O159   C161    1.285   .     A
O160   C162    1.285   .     A
O160   Zn163   2.016   .     S
C161   C168    1.417   .     S
C162   C167    1.417   .     S
Zn163  N192    2.020   .     S
Zn164  N191    2.020   .     S
C165   C175    1.398   .     A
C165   N195    1.437   .     S
C165   C167    1.400   .     A
C166   N198    1.437   .     S
C166   C176    1.398   .     A
C166   C168    1.400   .     A
C167   C169    1.388   .     A
C168   C170    1.388   .     A
C169   H181    1.086   .     S
C169   C171    1.380   .     A
C170   C172    1.380   .     A
C170   H182    1.086   .     S
C171   C177    1.397   .     A
C171   C173    1.411   .     A
C172   C178    1.397   .     A
C172   C174    1.411   .     A
C173   C175    1.419   .     A
C173   C624    1.396   1_554 S
C174   C176    1.419   .     A
C174   C623    1.396   .     S
C175   C180    1.404   .     A
C176   C179    1.404   .     A
C177   H183    1.084   .     S
C177   C629    1.386   1_554 S
C178   H184    1.084   .     S
C178   C630    1.386   .     S
C179   H185    1.082   .     S
C179   C627    1.386   .     S
C180   H186    1.082   .     S
C180   C628    1.386   1_554 S
C187   C338    1.336   .     S
C187   H339    1.088   .     S
H190   C338    1.088   .     S
N191   N242    1.275   .     S
N191   H243    1.029   .     S
N192   N291    1.275   1_455 S
N192   H294    1.029   1_455 S
H193   N291    1.029   1_455 S
H194   N242    1.029   .     S
N195   O196    1.301   .     A
N195   O197    1.301   .     A
N198   O200    1.301   .     A
N198   O199    1.301   .     A
O201   C205    1.278   .     A
O201   Zn213   1.955   .     S
O202   C206    1.278   .     A
O202   Zn214   1.955   .     S
O203   Zn214   1.976   .     S
O203   C205    1.287   .     A
O204   C206    1.287   .     A
O204   Zn213   1.976   .     S
C205   C237    1.401   .     S
C206   C238    1.401   .     S
O207   C211    1.286   .     A
O207   Zn213   1.989   .     S
O208   C212    1.286   .     A
O208   Zn214   1.989   .     S
O209   Zn214   2.016   .     S
O209   C211    1.285   .     A
O210   C212    1.285   .     A
O210   Zn213   2.016   .     S
C211   C218    1.417   .     S
C212   C217    1.417   .     S
Zn213  N242    2.020   .     S
Zn214  N241    2.020   .     S
C215   C225    1.398   .     A
C215   N245    1.437   .     S
C215   C217    1.400   .     A
C216   N248    1.437   .     S
C216   C226    1.398   .     A
C216   C218    1.400   .     A
C217   C219    1.388   .     A
C218   C220    1.388   .     A
C219   H231    1.086   .     S
C219   C221    1.380   .     A
C220   C222    1.380   .     A
C220   H232    1.086   .     S
C221   C227    1.397   .     A
C221   C223    1.411   .     A
C222   C228    1.397   .     A
C222   C224    1.411   .     A
C223   C225    1.419   .     A
C223   C674    1.396   1_554 S
C224   C226    1.419   .     A
C224   C673    1.396   .     S
C225   C230    1.404   .     A
C226   C229    1.404   .     A
C227   H233    1.084   .     S
C227   C679    1.386   1_554 S
C228   H234    1.084   .     S
C228   C680    1.386   .     S
C229   H235    1.082   .     S
C229   C677    1.386   .     S
C230   H236    1.082   .     S
C230   C678    1.386   1_554 S
C237   C388    1.336   .     S
C237   H389    1.088   .     S
H240   C388    1.088   .     S
N241   N292    1.275   .     S
N241   H293    1.029   .     S
H244   N292    1.029   .     S
N245   O246    1.301   .     A
N245   O247    1.301   .     A
N248   O250    1.301   .     A
N248   O249    1.301   .     A
O251   C255    1.278   .     A
O251   Zn263   1.955   .     S
O252   C256    1.278   .     A
O252   Zn264   1.955   .     S
O253   Zn264   1.976   .     S
O253   C255    1.287   .     A
O254   C256    1.287   .     A
O254   Zn263   1.976   .     S
C255   C287    1.401   .     S
C256   C288    1.401   .     S
O257   C261    1.286   .     A
O257   Zn263   1.989   .     S
O258   C262    1.286   .     A
O258   Zn264   1.989   .     S
O259   Zn264   2.016   .     S
O259   C261    1.285   .     A
O260   C262    1.285   .     A
O260   Zn263   2.016   .     S
C261   C268    1.417   .     S
C262   C267    1.417   .     S
Zn263  N292    2.020   .     S
Zn264  N291    2.020   .     S
C265   C275    1.398   .     A
C265   N295    1.437   .     S
C265   C267    1.400   .     A
C266   N298    1.437   .     S
C266   C276    1.398   .     A
C266   C268    1.400   .     A
C267   C269    1.388   .     A
C268   C270    1.388   .     A
C269   H281    1.086   .     S
C269   C271    1.380   .     A
C270   C272    1.380   .     A
C270   H282    1.086   .     S
C271   C277    1.397   .     A
C271   C273    1.411   .     A
C272   C278    1.397   .     A
C272   C274    1.411   .     A
C273   C275    1.419   .     A
C273   C724    1.396   1_554 S
C274   C276    1.419   .     A
C274   C723    1.396   .     S
C275   C280    1.404   .     A
C276   C279    1.404   .     A
C277   H283    1.084   .     S
C277   C729    1.386   1_554 S
C278   H284    1.084   .     S
C278   C730    1.386   .     S
C279   H285    1.082   .     S
C279   C727    1.386   .     S
C280   H286    1.082   .     S
C280   C728    1.386   1_554 S
C287   C438    1.336   .     S
C287   H439    1.088   .     S
H290   C438    1.088   .     S
N291   N192    1.275   1_655 S
N291   H193    1.029   1_655 S
H294   N192    1.029   1_655 S
N295   O296    1.301   .     A
N295   O297    1.301   .     A
N298   O300    1.301   .     A
N298   O299    1.301   .     A
O301   C305    1.278   .     A
O301   Zn313   1.955   .     S
O302   C306    1.278   .     A
O302   Zn314   1.955   .     S
O303   Zn314   1.976   .     S
O303   C305    1.287   .     A
O304   C306    1.287   .     A
O304   Zn313   1.976   .     S
C305   C337    1.401   .     S
C306   C338    1.401   .     S
O307   C311    1.286   .     A
O307   Zn313   1.989   .     S
O308   C312    1.286   .     A
O308   Zn314   1.989   .     S
O309   Zn314   2.016   .     S
O309   C311    1.285   .     A
O310   C312    1.285   .     A
O310   Zn313   2.016   .     S
C311   C318    1.417   .     S
C312   C317    1.417   .     S
Zn313  N342    2.020   .     S
Zn314  N341    2.020   .     S
C315   C325    1.398   .     A
C315   N345    1.437   .     S
C315   C317    1.400   .     A
C316   N348    1.437   .     S
C316   C326    1.398   .     A
C316   C318    1.400   .     A
C317   C319    1.388   .     A
C318   C320    1.388   .     A
C319   H331    1.086   .     S
C319   C321    1.380   .     A
C320   C322    1.380   .     A
C320   H332    1.086   .     S
C321   C327    1.397   .     A
C321   C323    1.411   .     A
C322   C328    1.397   .     A
C322   C324    1.411   .     A
C323   C325    1.419   .     A
C323   C774    1.396   1_554 S
C324   C326    1.419   .     A
C324   C773    1.396   .     S
C325   C330    1.404   .     A
C326   C329    1.404   .     A
C327   H333    1.084   .     S
C327   C779    1.386   1_554 S
C328   H334    1.084   .     S
C328   C780    1.386   .     S
C329   H335    1.082   .     S
C329   C777    1.386   .     S
C330   H336    1.082   .     S
C330   C778    1.386   1_554 S
C337   C38     1.336   1_565 S
C337   H39     1.088   1_565 S
H340   C38     1.088   1_565 S
N341   N392    1.275   .     S
N341   H393    1.029   .     S
N342   N441    1.275   1_455 S
N342   H444    1.029   1_455 S
H343   N441    1.029   1_455 S
H344   N392    1.029   .     S
N345   O346    1.301   .     A
N345   O347    1.301   .     A
N348   O350    1.301   .     A
N348   O349    1.301   .     A
O351   C355    1.278   .     A
O351   Zn363   1.955   .     S
O352   C356    1.278   .     A
O352   Zn364   1.955   .     S
O353   Zn364   1.976   .     S
O353   C355    1.287   .     A
O354   C356    1.287   .     A
O354   Zn363   1.976   .     S
C355   C387    1.401   .     S
C356   C388    1.401   .     S
O357   C361    1.286   .     A
O357   Zn363   1.989   .     S
O358   C362    1.286   .     A
O358   Zn364   1.989   .     S
O359   Zn364   2.016   .     S
O359   C361    1.285   .     A
O360   C362    1.285   .     A
O360   Zn363   2.016   .     S
C361   C368    1.417   .     S
C362   C367    1.417   .     S
Zn363  N392    2.020   .     S
Zn364  N391    2.020   .     S
C365   C375    1.398   .     A
C365   N395    1.437   .     S
C365   C367    1.400   .     A
C366   N398    1.437   .     S
C366   C376    1.398   .     A
C366   C368    1.400   .     A
C367   C369    1.388   .     A
C368   C370    1.388   .     A
C369   H381    1.086   .     S
C369   C371    1.380   .     A
C370   C372    1.380   .     A
C370   H382    1.086   .     S
C371   C377    1.397   .     A
C371   C373    1.411   .     A
C372   C378    1.397   .     A
C372   C374    1.411   .     A
C373   C375    1.419   .     A
C373   C824    1.396   1_554 S
C374   C376    1.419   .     A
C374   C823    1.396   .     S
C375   C380    1.404   .     A
C376   C379    1.404   .     A
C377   H383    1.084   .     S
C377   C829    1.386   1_554 S
C378   H384    1.084   .     S
C378   C830    1.386   .     S
C379   H385    1.082   .     S
C379   C827    1.386   .     S
C380   H386    1.082   .     S
C380   C828    1.386   1_554 S
C387   C88     1.336   1_565 S
C387   H89     1.088   1_565 S
H390   C88     1.088   1_565 S
N391   N442    1.275   .     S
N391   H443    1.029   .     S
H394   N442    1.029   .     S
N395   O396    1.301   .     A
N395   O397    1.301   .     A
N398   O400    1.301   .     A
N398   O399    1.301   .     A
O401   C405    1.278   .     A
O401   Zn413   1.955   .     S
O402   C406    1.278   .     A
O402   Zn414   1.955   .     S
O403   Zn414   1.976   .     S
O403   C405    1.287   .     A
O404   C406    1.287   .     A
O404   Zn413   1.976   .     S
C405   C437    1.401   .     S
C406   C438    1.401   .     S
O407   C411    1.286   .     A
O407   Zn413   1.989   .     S
O408   C412    1.286   .     A
O408   Zn414   1.989   .     S
O409   Zn414   2.016   .     S
O409   C411    1.285   .     A
O410   C412    1.285   .     A
O410   Zn413   2.016   .     S
C411   C418    1.417   .     S
C412   C417    1.417   .     S
Zn413  N442    2.020   .     S
Zn414  N441    2.020   .     S
C415   C425    1.398   .     A
C415   N445    1.437   .     S
C415   C417    1.400   .     A
C416   N448    1.437   .     S
C416   C426    1.398   .     A
C416   C418    1.400   .     A
C417   C419    1.388   .     A
C418   C420    1.388   .     A
C419   H431    1.086   .     S
C419   C421    1.380   .     A
C420   C422    1.380   .     A
C420   H432    1.086   .     S
C421   C427    1.397   .     A
C421   C423    1.411   .     A
C422   C428    1.397   .     A
C422   C424    1.411   .     A
C423   C425    1.419   .     A
C423   C874    1.396   1_554 S
C424   C426    1.419   .     A
C424   C873    1.396   .     S
C425   C430    1.404   .     A
C426   C429    1.404   .     A
C427   H433    1.084   .     S
C427   C879    1.386   1_554 S
C428   H434    1.084   .     S
C428   C880    1.386   .     S
C429   H435    1.082   .     S
C429   C877    1.386   .     S
C430   H436    1.082   .     S
C430   C878    1.386   1_554 S
C437   C138    1.336   1_565 S
C437   H139    1.088   1_565 S
H440   C138    1.088   1_565 S
N441   N342    1.275   1_655 S
N441   H343    1.029   1_655 S
H444   N342    1.029   1_655 S
N445   O446    1.301   .     A
N445   O447    1.301   .     A
N448   O450    1.301   .     A
N448   O449    1.301   .     A
O451   C455    1.278   .     A
O451   Zn463   1.955   .     S
O452   C456    1.278   .     A
O452   Zn464   1.955   .     S
O453   Zn464   1.976   .     S
O453   C455    1.287   .     A
O454   C456    1.287   .     A
O454   Zn463   1.976   .     S
C455   C487    1.401   .     S
C456   C488    1.401   .     S
O457   C461    1.286   .     A
O457   Zn463   1.989   .     S
O458   C462    1.286   .     A
O458   Zn464   1.989   .     S
O459   Zn464   2.016   .     S
O459   C461    1.285   .     A
O460   C462    1.285   .     A
O460   Zn463   2.016   .     S
C461   C468    1.417   .     S
C462   C467    1.417   .     S
Zn463  N492    2.020   .     S
Zn464  N491    2.020   .     S
C465   C475    1.398   .     A
C465   N495    1.437   .     S
C465   C467    1.400   .     A
C466   N498    1.437   .     S
C466   C476    1.398   .     A
C466   C468    1.400   .     A
C467   C469    1.388   .     A
C468   C470    1.388   .     A
C469   H481    1.086   .     S
C469   C471    1.380   .     A
C470   C472    1.380   .     A
C470   H482    1.086   .     S
C471   C477    1.397   .     A
C471   C473    1.411   .     A
C472   C478    1.397   .     A
C472   C474    1.411   .     A
C473   C475    1.419   .     A
C474   C476    1.419   .     A
C474   C23     1.396   1_556 S
C475   C480    1.404   .     A
C476   C479    1.404   .     A
C477   H483    1.084   .     S
C478   H484    1.084   .     S
C478   C30     1.386   1_556 S
C479   H485    1.082   .     S
C479   C27     1.386   1_556 S
C480   H486    1.082   .     S
C487   C638    1.336   .     S
C487   H639    1.088   .     S
C488   C787    1.336   1_545 S
C488   H790    1.088   1_545 S
H489   C787    1.088   1_545 S
H490   C638    1.088   .     S
N491   N542    1.275   .     S
N491   H543    1.029   .     S
N492   N591    1.275   1_455 S
N492   H594    1.029   1_455 S
H493   N591    1.029   1_455 S
H494   N542    1.029   .     S
N495   O496    1.301   .     A
N495   O497    1.301   .     A
N498   O500    1.301   .     A
N498   O499    1.301   .     A
O501   C505    1.278   .     A
O501   Zn513   1.955   .     S
O502   C506    1.278   .     A
O502   Zn514   1.955   .     S
O503   Zn514   1.976   .     S
O503   C505    1.287   .     A
O504   C506    1.287   .     A
O504   Zn513   1.976   .     S
C505   C537    1.401   .     S
C506   C538    1.401   .     S
O507   C511    1.286   .     A
O507   Zn513   1.989   .     S
O508   C512    1.286   .     A
O508   Zn514   1.989   .     S
O509   Zn514   2.016   .     S
O509   C511    1.285   .     A
O510   C512    1.285   .     A
O510   Zn513   2.016   .     S
C511   C518    1.417   .     S
C512   C517    1.417   .     S
Zn513  N542    2.020   .     S
Zn514  N541    2.020   .     S
C515   C525    1.398   .     A
C515   N545    1.437   .     S
C515   C517    1.400   .     A
C516   N548    1.437   .     S
C516   C526    1.398   .     A
C516   C518    1.400   .     A
C517   C519    1.388   .     A
C518   C520    1.388   .     A
C519   H531    1.086   .     S
C519   C521    1.380   .     A
C520   C522    1.380   .     A
C520   H532    1.086   .     S
C521   C527    1.397   .     A
C521   C523    1.411   .     A
C522   C528    1.397   .     A
C522   C524    1.411   .     A
C523   C525    1.419   .     A
C524   C526    1.419   .     A
C524   C73     1.396   1_556 S
C525   C530    1.404   .     A
C526   C529    1.404   .     A
C527   H533    1.084   .     S
C528   H534    1.084   .     S
C528   C80     1.386   1_556 S
C529   H535    1.082   .     S
C529   C77     1.386   1_556 S
C530   H536    1.082   .     S
C537   C688    1.336   .     S
C537   H689    1.088   .     S
C538   C837    1.336   1_545 S
C538   H840    1.088   1_545 S
H539   C837    1.088   1_545 S
H540   C688    1.088   .     S
N541   N592    1.275   .     S
N541   H593    1.029   .     S
H544   N592    1.029   .     S
N545   O546    1.301   .     A
N545   O547    1.301   .     A
N548   O550    1.301   .     A
N548   O549    1.301   .     A
O551   C555    1.278   .     A
O551   Zn563   1.955   .     S
O552   C556    1.278   .     A
O552   Zn564   1.955   .     S
O553   Zn564   1.976   .     S
O553   C555    1.287   .     A
O554   C556    1.287   .     A
O554   Zn563   1.976   .     S
C555   C587    1.401   .     S
C556   C588    1.401   .     S
O557   C561    1.286   .     A
O557   Zn563   1.989   .     S
O558   C562    1.286   .     A
O558   Zn564   1.989   .     S
O559   Zn564   2.016   .     S
O559   C561    1.285   .     A
O560   C562    1.285   .     A
O560   Zn563   2.016   .     S
C561   C568    1.417   .     S
C562   C567    1.417   .     S
Zn563  N592    2.020   .     S
Zn564  N591    2.020   .     S
C565   C575    1.398   .     A
C565   N595    1.437   .     S
C565   C567    1.400   .     A
C566   N598    1.437   .     S
C566   C576    1.398   .     A
C566   C568    1.400   .     A
C567   C569    1.388   .     A
C568   C570    1.388   .     A
C569   H581    1.086   .     S
C569   C571    1.380   .     A
C570   C572    1.380   .     A
C570   H582    1.086   .     S
C571   C577    1.397   .     A
C571   C573    1.411   .     A
C572   C578    1.397   .     A
C572   C574    1.411   .     A
C573   C575    1.419   .     A
C574   C576    1.419   .     A
C574   C123    1.396   1_556 S
C575   C580    1.404   .     A
C576   C579    1.404   .     A
C577   H583    1.084   .     S
C578   H584    1.084   .     S
C578   C130    1.386   1_556 S
C579   H585    1.082   .     S
C579   C127    1.386   1_556 S
C580   H586    1.082   .     S
C587   C738    1.336   .     S
C587   H739    1.088   .     S
C588   C887    1.336   1_545 S
C588   H890    1.088   1_545 S
H589   C887    1.088   1_545 S
H590   C738    1.088   .     S
N591   N492    1.275   1_655 S
N591   H493    1.029   1_655 S
H594   N492    1.029   1_655 S
N595   O596    1.301   .     A
N595   O597    1.301   .     A
N598   O600    1.301   .     A
N598   O599    1.301   .     A
O601   C605    1.278   .     A
O601   Zn613   1.955   .     S
O602   C606    1.278   .     A
O602   Zn614   1.955   .     S
O603   Zn614   1.976   .     S
O603   C605    1.287   .     A
O604   C606    1.287   .     A
O604   Zn613   1.976   .     S
C605   C637    1.401   .     S
C606   C638    1.401   .     S
O607   C611    1.286   .     A
O607   Zn613   1.989   .     S
O608   C612    1.286   .     A
O608   Zn614   1.989   .     S
O609   Zn614   2.016   .     S
O609   C611    1.285   .     A
O610   C612    1.285   .     A
O610   Zn613   2.016   .     S
C611   C618    1.417   .     S
C612   C617    1.417   .     S
Zn613  N642    2.020   .     S
Zn614  N641    2.020   .     S
C615   C625    1.398   .     A
C615   N645    1.437   .     S
C615   C617    1.400   .     A
C616   N648    1.437   .     S
C616   C626    1.398   .     A
C616   C618    1.400   .     A
C617   C619    1.388   .     A
C618   C620    1.388   .     A
C619   H631    1.086   .     S
C619   C621    1.380   .     A
C620   C622    1.380   .     A
C620   H632    1.086   .     S
C621   C627    1.397   .     A
C621   C623    1.411   .     A
C622   C628    1.397   .     A
C622   C624    1.411   .     A
C623   C625    1.419   .     A
C624   C626    1.419   .     A
C624   C173    1.396   1_556 S
C625   C630    1.404   .     A
C626   C629    1.404   .     A
C627   H633    1.084   .     S
C628   H634    1.084   .     S
C628   C180    1.386   1_556 S
C629   H635    1.082   .     S
C629   C177    1.386   1_556 S
C630   H636    1.082   .     S
C637   C788    1.336   .     S
C637   H789    1.088   .     S
H640   C788    1.088   .     S
N641   N692    1.275   .     S
N641   H693    1.029   .     S
N642   N741    1.275   1_455 S
N642   H744    1.029   1_455 S
H643   N741    1.029   1_455 S
H644   N692    1.029   .     S
N645   O646    1.301   .     A
N645   O647    1.301   .     A
N648   O650    1.301   .     A
N648   O649    1.301   .     A
O651   C655    1.278   .     A
O651   Zn663   1.955   .     S
O652   C656    1.278   .     A
O652   Zn664   1.955   .     S
O653   Zn664   1.976   .     S
O653   C655    1.287   .     A
O654   C656    1.287   .     A
O654   Zn663   1.976   .     S
C655   C687    1.401   .     S
C656   C688    1.401   .     S
O657   C661    1.286   .     A
O657   Zn663   1.989   .     S
O658   C662    1.286   .     A
O658   Zn664   1.989   .     S
O659   Zn664   2.016   .     S
O659   C661    1.285   .     A
O660   C662    1.285   .     A
O660   Zn663   2.016   .     S
C661   C668    1.417   .     S
C662   C667    1.417   .     S
Zn663  N692    2.020   .     S
Zn664  N691    2.020   .     S
C665   C675    1.398   .     A
C665   N695    1.437   .     S
C665   C667    1.400   .     A
C666   N698    1.437   .     S
C666   C676    1.398   .     A
C666   C668    1.400   .     A
C667   C669    1.388   .     A
C668   C670    1.388   .     A
C669   H681    1.086   .     S
C669   C671    1.380   .     A
C670   C672    1.380   .     A
C670   H682    1.086   .     S
C671   C677    1.397   .     A
C671   C673    1.411   .     A
C672   C678    1.397   .     A
C672   C674    1.411   .     A
C673   C675    1.419   .     A
C674   C676    1.419   .     A
C674   C223    1.396   1_556 S
C675   C680    1.404   .     A
C676   C679    1.404   .     A
C677   H683    1.084   .     S
C678   H684    1.084   .     S
C678   C230    1.386   1_556 S
C679   H685    1.082   .     S
C679   C227    1.386   1_556 S
C680   H686    1.082   .     S
C687   C838    1.336   .     S
C687   H839    1.088   .     S
H690   C838    1.088   .     S
N691   N742    1.275   .     S
N691   H743    1.029   .     S
H694   N742    1.029   .     S
N695   O696    1.301   .     A
N695   O697    1.301   .     A
N698   O700    1.301   .     A
N698   O699    1.301   .     A
O701   C705    1.278   .     A
O701   Zn713   1.955   .     S
O702   C706    1.278   .     A
O702   Zn714   1.955   .     S
O703   Zn714   1.976   .     S
O703   C705    1.287   .     A
O704   C706    1.287   .     A
O704   Zn713   1.976   .     S
C705   C737    1.401   .     S
C706   C738    1.401   .     S
O707   C711    1.286   .     A
O707   Zn713   1.989   .     S
O708   C712    1.286   .     A
O708   Zn714   1.989   .     S
O709   Zn714   2.016   .     S
O709   C711    1.285   .     A
O710   C712    1.285   .     A
O710   Zn713   2.016   .     S
C711   C718    1.417   .     S
C712   C717    1.417   .     S
Zn713  N742    2.020   .     S
Zn714  N741    2.020   .     S
C715   C725    1.398   .     A
C715   N745    1.437   .     S
C715   C717    1.400   .     A
C716   N748    1.437   .     S
C716   C726    1.398   .     A
C716   C718    1.400   .     A
C717   C719    1.388   .     A
C718   C720    1.388   .     A
C719   H731    1.086   .     S
C719   C721    1.380   .     A
C720   C722    1.380   .     A
C720   H732    1.086   .     S
C721   C727    1.397   .     A
C721   C723    1.411   .     A
C722   C728    1.397   .     A
C722   C724    1.411   .     A
C723   C725    1.419   .     A
C724   C726    1.419   .     A
C724   C273    1.396   1_556 S
C725   C730    1.404   .     A
C726   C729    1.404   .     A
C727   H733    1.084   .     S
C728   H734    1.084   .     S
C728   C280    1.386   1_556 S
C729   H735    1.082   .     S
C729   C277    1.386   1_556 S
C730   H736    1.082   .     S
C737   C888    1.336   .     S
C737   H889    1.088   .     S
H740   C888    1.088   .     S
N741   N642    1.275   1_655 S
N741   H643    1.029   1_655 S
H744   N642    1.029   1_655 S
N745   O746    1.301   .     A
N745   O747    1.301   .     A
N748   O750    1.301   .     A
N748   O749    1.301   .     A
O751   C755    1.278   .     A
O751   Zn763   1.955   .     S
O752   C756    1.278   .     A
O752   Zn764   1.955   .     S
O753   Zn764   1.976   .     S
O753   C755    1.287   .     A
O754   C756    1.287   .     A
O754   Zn763   1.976   .     S
C755   C787    1.401   .     S
C756   C788    1.401   .     S
O757   C761    1.286   .     A
O757   Zn763   1.989   .     S
O758   C762    1.286   .     A
O758   Zn764   1.989   .     S
O759   Zn764   2.016   .     S
O759   C761    1.285   .     A
O760   C762    1.285   .     A
O760   Zn763   2.016   .     S
C761   C768    1.417   .     S
C762   C767    1.417   .     S
Zn763  N792    2.020   .     S
Zn764  N791    2.020   .     S
C765   C775    1.398   .     A
C765   N795    1.437   .     S
C765   C767    1.400   .     A
C766   N798    1.437   .     S
C766   C776    1.398   .     A
C766   C768    1.400   .     A
C767   C769    1.388   .     A
C768   C770    1.388   .     A
C769   H781    1.086   .     S
C769   C771    1.380   .     A
C770   C772    1.380   .     A
C770   H782    1.086   .     S
C771   C777    1.397   .     A
C771   C773    1.411   .     A
C772   C778    1.397   .     A
C772   C774    1.411   .     A
C773   C775    1.419   .     A
C774   C776    1.419   .     A
C774   C323    1.396   1_556 S
C775   C780    1.404   .     A
C776   C779    1.404   .     A
C777   H783    1.084   .     S
C778   H784    1.084   .     S
C778   C330    1.386   1_556 S
C779   H785    1.082   .     S
C779   C327    1.386   1_556 S
C780   H786    1.082   .     S
C787   C488    1.336   1_565 S
C787   H489    1.088   1_565 S
H790   C488    1.088   1_565 S
N791   N842    1.275   .     S
N791   H843    1.029   .     S
N792   N891    1.275   1_455 S
N792   H894    1.029   1_455 S
H793   N891    1.029   1_455 S
H794   N842    1.029   .     S
N795   O796    1.301   .     A
N795   O797    1.301   .     A
N798   O800    1.301   .     A
N798   O799    1.301   .     A
O801   C805    1.278   .     A
O801   Zn813   1.955   .     S
O802   C806    1.278   .     A
O802   Zn814   1.955   .     S
O803   Zn814   1.976   .     S
O803   C805    1.287   .     A
O804   C806    1.287   .     A
O804   Zn813   1.976   .     S
C805   C837    1.401   .     S
C806   C838    1.401   .     S
O807   C811    1.286   .     A
O807   Zn813   1.989   .     S
O808   C812    1.286   .     A
O808   Zn814   1.989   .     S
O809   Zn814   2.016   .     S
O809   C811    1.285   .     A
O810   C812    1.285   .     A
O810   Zn813   2.016   .     S
C811   C818    1.417   .     S
C812   C817    1.417   .     S
Zn813  N842    2.020   .     S
Zn814  N841    2.020   .     S
C815   C825    1.398   .     A
C815   N845    1.437   .     S
C815   C817    1.400   .     A
C816   N848    1.437   .     S
C816   C826    1.398   .     A
C816   C818    1.400   .     A
C817   C819    1.388   .     A
C818   C820    1.388   .     A
C819   H831    1.086   .     S
C819   C821    1.380   .     A
C820   C822    1.380   .     A
C820   H832    1.086   .     S
C821   C827    1.397   .     A
C821   C823    1.411   .     A
C822   C828    1.397   .     A
C822   C824    1.411   .     A
C823   C825    1.419   .     A
C824   C826    1.419   .     A
C824   C373    1.396   1_556 S
C825   C830    1.404   .     A
C826   C829    1.404   .     A
C827   H833    1.084   .     S
C828   H834    1.084   .     S
C828   C380    1.386   1_556 S
C829   H835    1.082   .     S
C829   C377    1.386   1_556 S
C830   H836    1.082   .     S
C837   C538    1.336   1_565 S
C837   H539    1.088   1_565 S
H840   C538    1.088   1_565 S
N841   N892    1.275   .     S
N841   H893    1.029   .     S
H844   N892    1.029   .     S
N845   O846    1.301   .     A
N845   O847    1.301   .     A
N848   O850    1.301   .     A
N848   O849    1.301   .     A
O851   C855    1.278   .     A
O851   Zn863   1.955   .     S
O852   C856    1.278   .     A
O852   Zn864   1.955   .     S
O853   Zn864   1.976   .     S
O853   C855    1.287   .     A
O854   C856    1.287   .     A
O854   Zn863   1.976   .     S
C855   C887    1.401   .     S
C856   C888    1.401   .     S
O857   C861    1.286   .     A
O857   Zn863   1.989   .     S
O858   C862    1.286   .     A
O858   Zn864   1.989   .     S
O859   Zn864   2.016   .     S
O859   C861    1.285   .     A
O860   C862    1.285   .     A
O860   Zn863   2.016   .     S
C861   C868    1.417   .     S
C862   C867    1.417   .     S
Zn863  N892    2.020   .     S
Zn864  N891    2.020   .     S
C865   C875    1.398   .     A
C865   N895    1.437   .     S
C865   C867    1.400   .     A
C866   N898    1.437   .     S
C866   C876    1.398   .     A
C866   C868    1.400   .     A
C867   C869    1.388   .     A
C868   C870    1.388   .     A
C869   H881    1.086   .     S
C869   C871    1.380   .     A
C870   C872    1.380   .     A
C870   H882    1.086   .     S
C871   C877    1.397   .     A
C871   C873    1.411   .     A
C872   C878    1.397   .     A
C872   C874    1.411   .     A
C873   C875    1.419   .     A
C874   C876    1.419   .     A
C874   C423    1.396   1_556 S
C875   C880    1.404   .     A
C876   C879    1.404   .     A
C877   H883    1.084   .     S
C878   H884    1.084   .     S
C878   C430    1.386   1_556 S
C879   H885    1.082   .     S
C879   C427    1.386   1_556 S
C880   H886    1.082   .     S
C887   C588    1.336   1_565 S
C887   H589    1.088   1_565 S
H890   C588    1.088   1_565 S
N891   N792    1.275   1_655 S
N891   H793    1.029   1_655 S
H894   N792    1.029   1_655 S
N895   O896    1.301   .     A
N895   O897    1.301   .     A
N898   O900    1.301   .     A
N898   O899    1.301   .     A
