data_str_m3_o1_o18_pcu_sym.172
_audit_creation_date              2020-01-03
_audit_creation_method            'Materials Studio'
_symmetry_space_group_name_H-M    'P1'
_symmetry_Int_Tables_number       1
_symmetry_cell_setting            triclinic
loop_
_symmetry_equiv_pos_as_xyz
  x,y,z
_cell_length_a                    29.5951
_cell_length_b                    32.0137
_cell_length_c                    30.9671
_cell_angle_alpha                 90.3221
_cell_angle_beta                  67.5072
_cell_angle_gamma                 89.9346
loop_
_atom_site_label
_atom_site_type_symbol
_atom_site_fract_x
_atom_site_fract_y
_atom_site_fract_z
_atom_site_U_iso_or_equiv
_atom_site_adp_type
_atom_site_occupancy
C1     C     0.16664   0.24662   0.25005   0.00000  Uiso   1.00
C2     C     0.16670   0.08672   0.24992   0.00000  Uiso   1.00
C3     C     0.10610   0.16704   0.05470   0.00000  Uiso   1.00
C4     C     0.21026   0.21267   0.45642   0.00000  Uiso   1.00
C5     C     0.07217   0.16025   0.03456   0.00000  Uiso   1.00
C6     C     0.24394   0.21963   0.47692   0.00000  Uiso   1.00
C7     C     0.20913   0.31166   0.22212   0.00000  Uiso   1.00
C8     C     0.12421   0.02166   0.27779   0.00000  Uiso   1.00
C9     C     0.20916   0.02121   0.22208   0.00000  Uiso   1.00
C10    C     0.12419   0.31212   0.27785   0.00000  Uiso   1.00
C11    C     0.16670   0.04260   0.24993   0.00000  Uiso   1.00
C12    C     0.16665   0.29073   0.25001   0.00000  Uiso   1.00
C13    C     0.32109   0.14102   0.22043   0.00000  Uiso   1.00
C14    C     0.01227   0.19237   0.27952   0.00000  Uiso   1.00
C15    C     0.03609   0.14078   0.22039   0.00000  Uiso   1.00
C16    C     0.29730   0.19267   0.27949   0.00000  Uiso   1.00
C17    C     0.13594   0.16688   0.33814   0.00000  Uiso   1.00
C18    C     0.19733   0.16735   0.16190   0.00000  Uiso   1.00
C19    C     0.11599   0.16839   0.38922   0.00000  Uiso   1.00
C20    C     0.21604   0.17454   0.11157   0.00000  Uiso   1.00
C21    C     0.05273   0.15334   0.46522   0.00000  Uiso   1.00
C22    C     0.26992   0.21102   0.04227   0.00000  Uiso   1.00
C23    C     0.06829   0.15539   0.41623   0.00000  Uiso   1.00
C24    C     0.25946   0.19650   0.08803   0.00000  Uiso   1.00
C25    C     0.14692   0.18173   0.41079   0.00000  Uiso   1.00
C26    C     0.18436   0.16580   0.08933   0.00000  Uiso   1.00
C27    C     0.13263   0.18061   0.45920   0.00000  Uiso   1.00
C28    C     0.19086   0.18358   0.04645   0.00000  Uiso   1.00
C29    C     0.08544   0.16500   0.48649   0.00000  Uiso   1.00
C30    C     0.23527   0.20472   0.02167   0.00000  Uiso   1.00
C31    C     0.16582   0.19140   0.48054   0.00000  Uiso   1.00
C32    C     0.15426   0.18022   0.02760   0.00000  Uiso   1.00
H33    H     0.03596   0.14973   0.05672   0.00000  Uiso   1.00
H34    H     0.27716   0.23640   0.45716   0.00000  Uiso   1.00
H35    H     0.15360   0.14576   0.10708   0.00000  Uiso   1.00
H36    H     0.18351   0.19062   0.38870   0.00000  Uiso   1.00
H37    H     0.09315   0.16278   0.09203   0.00000  Uiso   1.00
H38    H     0.21926   0.22579   0.42215   0.00000  Uiso   1.00
N39    N     0.04759   0.16668   0.25001   0.00000  Uiso   1.00
N40    N     0.28574   0.16666   0.24999   0.00000  Uiso   1.00
O41    O     0.12846   0.22775   0.25000   0.00000  Uiso   1.00
O42    O     0.20488   0.10558   0.24999   0.00000  Uiso   1.00
O43    O     0.20490   0.22774   0.25000   0.00000  Uiso   1.00
O44    O     0.12843   0.10559   0.25000   0.00000  Uiso   1.00
O45    O     0.10661   0.16667   0.31612   0.00000  Uiso   1.00
O46    O     0.22672   0.16666   0.18387   0.00000  Uiso   1.00
O47    O     0.18305   0.16666   0.31612   0.00000  Uiso   1.00
O48    O     0.15028   0.16667   0.18388   0.00000  Uiso   1.00
Zn49   Zn    0.11562   0.16667   0.25000   0.00000  Uiso   1.00
Zn50   Zn    0.21771   0.16666   0.25000   0.00000  Uiso   1.00
F51    F     0.29015   0.20543   0.11009   0.00000  Uiso   1.00
F52    F     0.03807   0.14265   0.39499   0.00000  Uiso   1.00
O53    O     0.00693   0.13843   0.49276   0.00000  Uiso   1.00
H54    H     0.32137   0.13246   0.47307   0.00000  Uiso   1.00
O55    O     0.31249   0.23252   0.01776   0.00000  Uiso   1.00
H56    H     0.33328   0.23362   0.03633   0.00000  Uiso   1.00
F57    F     0.24983   0.29061   0.19417   0.00000  Uiso   1.00
F58    F     0.08349   0.04270   0.30571   0.00000  Uiso   1.00
F59    F     0.24984   0.04178   0.19404   0.00000  Uiso   1.00
F60    F     0.08351   0.29154   0.30591   0.00000  Uiso   1.00
F61    F     0.30958   0.11579   0.19084   0.00000  Uiso   1.00
F62    F     0.02379   0.21762   0.30907   0.00000  Uiso   1.00
O63    O     0.07208   0.11476   0.19110   0.00000  Uiso   1.00
H64    H     0.05876   0.09823   0.17156   0.00000  Uiso   1.00
O65    O     0.26141   0.21892   0.30852   0.00000  Uiso   1.00
H66    H     0.27485   0.23570   0.32778   0.00000  Uiso   1.00
C67    C     0.49998   0.24662   0.25005   0.00000  Uiso   1.00
C68    C     0.50003   0.08672   0.24992   0.00000  Uiso   1.00
C69    C     0.43944   0.16704   0.05470   0.00000  Uiso   1.00
C70    C     0.54359   0.21267   0.45642   0.00000  Uiso   1.00
C71    C     0.40550   0.16025   0.03456   0.00000  Uiso   1.00
C72    C     0.57727   0.21963   0.47692   0.00000  Uiso   1.00
C73    C     0.54247   0.31166   0.22212   0.00000  Uiso   1.00
C74    C     0.45754   0.02166   0.27779   0.00000  Uiso   1.00
C75    C     0.54249   0.02121   0.22208   0.00000  Uiso   1.00
C76    C     0.45753   0.31212   0.27785   0.00000  Uiso   1.00
C77    C     0.50004   0.04260   0.24993   0.00000  Uiso   1.00
C78    C     0.49998   0.29073   0.25001   0.00000  Uiso   1.00
C79    C     0.65442   0.14102   0.22043   0.00000  Uiso   1.00
C80    C     0.34560   0.19237   0.27952   0.00000  Uiso   1.00
C81    C     0.36942   0.14078   0.22039   0.00000  Uiso   1.00
C82    C     0.63063   0.19267   0.27949   0.00000  Uiso   1.00
C83    C     0.46927   0.16688   0.33814   0.00000  Uiso   1.00
C84    C     0.53066   0.16735   0.16190   0.00000  Uiso   1.00
C85    C     0.44932   0.16839   0.38922   0.00000  Uiso   1.00
C86    C     0.54937   0.17454   0.11157   0.00000  Uiso   1.00
C87    C     0.38606   0.15334   0.46522   0.00000  Uiso   1.00
C88    C     0.60325   0.21102   0.04227   0.00000  Uiso   1.00
C89    C     0.40163   0.15539   0.41623   0.00000  Uiso   1.00
C90    C     0.59279   0.19650   0.08803   0.00000  Uiso   1.00
C91    C     0.48025   0.18173   0.41079   0.00000  Uiso   1.00
C92    C     0.51769   0.16580   0.08933   0.00000  Uiso   1.00
C93    C     0.46596   0.18061   0.45920   0.00000  Uiso   1.00
C94    C     0.52419   0.18358   0.04645   0.00000  Uiso   1.00
C95    C     0.41877   0.16500   0.48649   0.00000  Uiso   1.00
C96    C     0.56860   0.20472   0.02167   0.00000  Uiso   1.00
C97    C     0.49915   0.19140   0.48054   0.00000  Uiso   1.00
C98    C     0.48759   0.18022   0.02760   0.00000  Uiso   1.00
H99    H     0.36929   0.14973   0.05672   0.00000  Uiso   1.00
H100   H     0.61049   0.23640   0.45716   0.00000  Uiso   1.00
H101   H     0.48693   0.14576   0.10708   0.00000  Uiso   1.00
H102   H     0.51684   0.19062   0.38870   0.00000  Uiso   1.00
H103   H     0.42648   0.16278   0.09203   0.00000  Uiso   1.00
H104   H     0.55260   0.22579   0.42215   0.00000  Uiso   1.00
N105   N     0.38093   0.16668   0.25001   0.00000  Uiso   1.00
N106   N     0.61907   0.16666   0.24999   0.00000  Uiso   1.00
O107   O     0.46179   0.22775   0.25000   0.00000  Uiso   1.00
O108   O     0.53821   0.10558   0.24999   0.00000  Uiso   1.00
O109   O     0.53823   0.22774   0.25000   0.00000  Uiso   1.00
O110   O     0.46177   0.10559   0.25000   0.00000  Uiso   1.00
O111   O     0.43994   0.16667   0.31612   0.00000  Uiso   1.00
O112   O     0.56006   0.16666   0.18387   0.00000  Uiso   1.00
O113   O     0.51639   0.16666   0.31612   0.00000  Uiso   1.00
O114   O     0.48361   0.16667   0.18388   0.00000  Uiso   1.00
Zn115  Zn    0.44896   0.16667   0.25000   0.00000  Uiso   1.00
Zn116  Zn    0.55104   0.16666   0.25000   0.00000  Uiso   1.00
F117   F     0.62349   0.20543   0.11009   0.00000  Uiso   1.00
F118   F     0.37141   0.14265   0.39499   0.00000  Uiso   1.00
O119   O     0.34027   0.13843   0.49276   0.00000  Uiso   1.00
H120   H     0.65470   0.13246   0.47307   0.00000  Uiso   1.00
O121   O     0.64582   0.23252   0.01776   0.00000  Uiso   1.00
H122   H     0.66661   0.23362   0.03633   0.00000  Uiso   1.00
F123   F     0.58316   0.29061   0.19417   0.00000  Uiso   1.00
F124   F     0.41683   0.04270   0.30571   0.00000  Uiso   1.00
F125   F     0.58317   0.04178   0.19404   0.00000  Uiso   1.00
F126   F     0.41685   0.29154   0.30591   0.00000  Uiso   1.00
F127   F     0.64292   0.11579   0.19084   0.00000  Uiso   1.00
F128   F     0.35712   0.21762   0.30907   0.00000  Uiso   1.00
O129   O     0.40542   0.11476   0.19110   0.00000  Uiso   1.00
H130   H     0.39210   0.09823   0.17156   0.00000  Uiso   1.00
O131   O     0.59475   0.21892   0.30852   0.00000  Uiso   1.00
H132   H     0.60818   0.23570   0.32778   0.00000  Uiso   1.00
C133   C     0.83331   0.24662   0.25005   0.00000  Uiso   1.00
C134   C     0.83337   0.08672   0.24992   0.00000  Uiso   1.00
C135   C     0.77277   0.16704   0.05470   0.00000  Uiso   1.00
C136   C     0.87692   0.21267   0.45642   0.00000  Uiso   1.00
C137   C     0.73884   0.16025   0.03456   0.00000  Uiso   1.00
C138   C     0.91060   0.21963   0.47692   0.00000  Uiso   1.00
C139   C     0.87580   0.31166   0.22212   0.00000  Uiso   1.00
C140   C     0.79087   0.02166   0.27779   0.00000  Uiso   1.00
C141   C     0.87582   0.02121   0.22208   0.00000  Uiso   1.00
C142   C     0.79086   0.31212   0.27785   0.00000  Uiso   1.00
C143   C     0.83337   0.04260   0.24993   0.00000  Uiso   1.00
C144   C     0.83331   0.29073   0.25001   0.00000  Uiso   1.00
C145   C     0.98776   0.14102   0.22043   0.00000  Uiso   1.00
C146   C     0.67894   0.19237   0.27952   0.00000  Uiso   1.00
C147   C     0.70276   0.14078   0.22039   0.00000  Uiso   1.00
C148   C     0.96396   0.19267   0.27949   0.00000  Uiso   1.00
C149   C     0.80260   0.16688   0.33814   0.00000  Uiso   1.00
C150   C     0.86399   0.16735   0.16190   0.00000  Uiso   1.00
C151   C     0.78266   0.16839   0.38922   0.00000  Uiso   1.00
C152   C     0.88270   0.17454   0.11157   0.00000  Uiso   1.00
C153   C     0.71940   0.15334   0.46522   0.00000  Uiso   1.00
C154   C     0.93659   0.21102   0.04227   0.00000  Uiso   1.00
C155   C     0.73496   0.15539   0.41623   0.00000  Uiso   1.00
C156   C     0.92613   0.19650   0.08803   0.00000  Uiso   1.00
C157   C     0.81359   0.18173   0.41079   0.00000  Uiso   1.00
C158   C     0.85102   0.16580   0.08933   0.00000  Uiso   1.00
C159   C     0.79930   0.18061   0.45920   0.00000  Uiso   1.00
C160   C     0.85752   0.18358   0.04645   0.00000  Uiso   1.00
C161   C     0.75210   0.16500   0.48649   0.00000  Uiso   1.00
C162   C     0.90193   0.20472   0.02167   0.00000  Uiso   1.00
C163   C     0.83249   0.19140   0.48054   0.00000  Uiso   1.00
C164   C     0.82093   0.18022   0.02760   0.00000  Uiso   1.00
H165   H     0.70262   0.14973   0.05672   0.00000  Uiso   1.00
H166   H     0.94383   0.23640   0.45716   0.00000  Uiso   1.00
H167   H     0.82027   0.14576   0.10708   0.00000  Uiso   1.00
H168   H     0.85018   0.19062   0.38870   0.00000  Uiso   1.00
H169   H     0.75981   0.16278   0.09203   0.00000  Uiso   1.00
H170   H     0.88593   0.22579   0.42215   0.00000  Uiso   1.00
N171   N     0.71426   0.16668   0.25001   0.00000  Uiso   1.00
N172   N     0.95241   0.16666   0.24999   0.00000  Uiso   1.00
O173   O     0.79512   0.22775   0.25000   0.00000  Uiso   1.00
O174   O     0.87154   0.10558   0.24999   0.00000  Uiso   1.00
O175   O     0.87157   0.22774   0.25000   0.00000  Uiso   1.00
O176   O     0.79510   0.10559   0.25000   0.00000  Uiso   1.00
O177   O     0.77328   0.16667   0.31612   0.00000  Uiso   1.00
O178   O     0.89339   0.16666   0.18387   0.00000  Uiso   1.00
O179   O     0.84972   0.16666   0.31612   0.00000  Uiso   1.00
O180   O     0.81695   0.16667   0.18388   0.00000  Uiso   1.00
Zn181  Zn    0.78229   0.16667   0.25000   0.00000  Uiso   1.00
Zn182  Zn    0.88438   0.16666   0.25000   0.00000  Uiso   1.00
F183   F     0.95682   0.20543   0.11009   0.00000  Uiso   1.00
F184   F     0.70474   0.14265   0.39499   0.00000  Uiso   1.00
O185   O     0.67360   0.13843   0.49276   0.00000  Uiso   1.00
H186   H     0.98804   0.13246   0.47307   0.00000  Uiso   1.00
O187   O     0.97916   0.23252   0.01776   0.00000  Uiso   1.00
H188   H     0.99995   0.23362   0.03633   0.00000  Uiso   1.00
F189   F     0.91650   0.29061   0.19417   0.00000  Uiso   1.00
F190   F     0.75016   0.04270   0.30571   0.00000  Uiso   1.00
F191   F     0.91651   0.04178   0.19404   0.00000  Uiso   1.00
F192   F     0.75018   0.29154   0.30591   0.00000  Uiso   1.00
F193   F     0.97625   0.11579   0.19084   0.00000  Uiso   1.00
F194   F     0.69045   0.21762   0.30907   0.00000  Uiso   1.00
O195   O     0.73875   0.11476   0.19110   0.00000  Uiso   1.00
H196   H     0.72543   0.09823   0.17156   0.00000  Uiso   1.00
O197   O     0.92808   0.21892   0.30852   0.00000  Uiso   1.00
H198   H     0.94151   0.23570   0.32778   0.00000  Uiso   1.00
C199   C     0.16664   0.57995   0.25005   0.00000  Uiso   1.00
C200   C     0.16670   0.42005   0.24992   0.00000  Uiso   1.00
C201   C     0.10610   0.50037   0.05470   0.00000  Uiso   1.00
C202   C     0.21026   0.54600   0.45642   0.00000  Uiso   1.00
C203   C     0.07217   0.49359   0.03456   0.00000  Uiso   1.00
C204   C     0.24394   0.55297   0.47692   0.00000  Uiso   1.00
C205   C     0.20913   0.64499   0.22212   0.00000  Uiso   1.00
C206   C     0.12421   0.35499   0.27779   0.00000  Uiso   1.00
C207   C     0.20916   0.35454   0.22208   0.00000  Uiso   1.00
C208   C     0.12419   0.64545   0.27785   0.00000  Uiso   1.00
C209   C     0.16670   0.37593   0.24993   0.00000  Uiso   1.00
C210   C     0.16665   0.62406   0.25001   0.00000  Uiso   1.00
C211   C     0.32109   0.47435   0.22043   0.00000  Uiso   1.00
C212   C     0.01227   0.52570   0.27952   0.00000  Uiso   1.00
C213   C     0.03609   0.47411   0.22039   0.00000  Uiso   1.00
C214   C     0.29730   0.52600   0.27949   0.00000  Uiso   1.00
C215   C     0.13594   0.50021   0.33814   0.00000  Uiso   1.00
C216   C     0.19733   0.50068   0.16190   0.00000  Uiso   1.00
C217   C     0.11599   0.50172   0.38922   0.00000  Uiso   1.00
C218   C     0.21604   0.50787   0.11157   0.00000  Uiso   1.00
C219   C     0.05273   0.48668   0.46522   0.00000  Uiso   1.00
C220   C     0.26992   0.54435   0.04227   0.00000  Uiso   1.00
C221   C     0.06829   0.48872   0.41623   0.00000  Uiso   1.00
C222   C     0.25946   0.52983   0.08803   0.00000  Uiso   1.00
C223   C     0.14692   0.51506   0.41079   0.00000  Uiso   1.00
C224   C     0.18436   0.49914   0.08933   0.00000  Uiso   1.00
C225   C     0.13263   0.51394   0.45920   0.00000  Uiso   1.00
C226   C     0.19086   0.51691   0.04645   0.00000  Uiso   1.00
C227   C     0.08544   0.49833   0.48649   0.00000  Uiso   1.00
C228   C     0.23527   0.53806   0.02167   0.00000  Uiso   1.00
C229   C     0.16582   0.52474   0.48054   0.00000  Uiso   1.00
C230   C     0.15426   0.51355   0.02760   0.00000  Uiso   1.00
H231   H     0.03596   0.48307   0.05672   0.00000  Uiso   1.00
H232   H     0.27716   0.56973   0.45716   0.00000  Uiso   1.00
H233   H     0.15360   0.47910   0.10708   0.00000  Uiso   1.00
H234   H     0.18351   0.52395   0.38870   0.00000  Uiso   1.00
H235   H     0.09315   0.49611   0.09203   0.00000  Uiso   1.00
H236   H     0.21926   0.55913   0.42215   0.00000  Uiso   1.00
N237   N     0.04759   0.50001   0.25001   0.00000  Uiso   1.00
N238   N     0.28574   0.49999   0.24999   0.00000  Uiso   1.00
O239   O     0.12846   0.56108   0.25000   0.00000  Uiso   1.00
O240   O     0.20488   0.43892   0.24999   0.00000  Uiso   1.00
O241   O     0.20490   0.56107   0.25000   0.00000  Uiso   1.00
O242   O     0.12843   0.43893   0.25000   0.00000  Uiso   1.00
O243   O     0.10661   0.50001   0.31612   0.00000  Uiso   1.00
O244   O     0.22672   0.49999   0.18387   0.00000  Uiso   1.00
O245   O     0.18305   0.50000   0.31612   0.00000  Uiso   1.00
O246   O     0.15028   0.50000   0.18388   0.00000  Uiso   1.00
Zn247  Zn    0.11562   0.50001   0.25000   0.00000  Uiso   1.00
Zn248  Zn    0.21771   0.49999   0.25000   0.00000  Uiso   1.00
F249   F     0.29015   0.53876   0.11009   0.00000  Uiso   1.00
F250   F     0.03807   0.47598   0.39499   0.00000  Uiso   1.00
O251   O     0.00693   0.47176   0.49276   0.00000  Uiso   1.00
H252   H     0.32137   0.46579   0.47307   0.00000  Uiso   1.00
O253   O     0.31249   0.56586   0.01776   0.00000  Uiso   1.00
H254   H     0.33328   0.56695   0.03633   0.00000  Uiso   1.00
F255   F     0.24983   0.62394   0.19417   0.00000  Uiso   1.00
F256   F     0.08349   0.37603   0.30571   0.00000  Uiso   1.00
F257   F     0.24984   0.37512   0.19404   0.00000  Uiso   1.00
F258   F     0.08351   0.62488   0.30591   0.00000  Uiso   1.00
F259   F     0.30958   0.44912   0.19084   0.00000  Uiso   1.00
F260   F     0.02379   0.55096   0.30907   0.00000  Uiso   1.00
O261   O     0.07208   0.44809   0.19110   0.00000  Uiso   1.00
H262   H     0.05876   0.43156   0.17156   0.00000  Uiso   1.00
O263   O     0.26141   0.55225   0.30852   0.00000  Uiso   1.00
H264   H     0.27485   0.56903   0.32778   0.00000  Uiso   1.00
C265   C     0.49998   0.57995   0.25005   0.00000  Uiso   1.00
C266   C     0.50003   0.42005   0.24992   0.00000  Uiso   1.00
C267   C     0.43944   0.50037   0.05470   0.00000  Uiso   1.00
C268   C     0.54359   0.54600   0.45642   0.00000  Uiso   1.00
C269   C     0.40550   0.49359   0.03456   0.00000  Uiso   1.00
C270   C     0.57727   0.55297   0.47692   0.00000  Uiso   1.00
C271   C     0.54247   0.64499   0.22212   0.00000  Uiso   1.00
C272   C     0.45754   0.35499   0.27779   0.00000  Uiso   1.00
C273   C     0.54249   0.35454   0.22208   0.00000  Uiso   1.00
C274   C     0.45753   0.64545   0.27785   0.00000  Uiso   1.00
C275   C     0.50004   0.37593   0.24993   0.00000  Uiso   1.00
C276   C     0.49998   0.62406   0.25001   0.00000  Uiso   1.00
C277   C     0.65442   0.47435   0.22043   0.00000  Uiso   1.00
C278   C     0.34560   0.52570   0.27952   0.00000  Uiso   1.00
C279   C     0.36942   0.47411   0.22039   0.00000  Uiso   1.00
C280   C     0.63063   0.52600   0.27949   0.00000  Uiso   1.00
C281   C     0.46927   0.50021   0.33814   0.00000  Uiso   1.00
C282   C     0.53066   0.50068   0.16190   0.00000  Uiso   1.00
C283   C     0.44932   0.50172   0.38922   0.00000  Uiso   1.00
C284   C     0.54937   0.50787   0.11157   0.00000  Uiso   1.00
C285   C     0.38606   0.48668   0.46522   0.00000  Uiso   1.00
C286   C     0.60325   0.54435   0.04227   0.00000  Uiso   1.00
C287   C     0.40163   0.48872   0.41623   0.00000  Uiso   1.00
C288   C     0.59279   0.52983   0.08803   0.00000  Uiso   1.00
C289   C     0.48025   0.51506   0.41079   0.00000  Uiso   1.00
C290   C     0.51769   0.49914   0.08933   0.00000  Uiso   1.00
C291   C     0.46596   0.51394   0.45920   0.00000  Uiso   1.00
C292   C     0.52419   0.51691   0.04645   0.00000  Uiso   1.00
C293   C     0.41877   0.49833   0.48649   0.00000  Uiso   1.00
C294   C     0.56860   0.53806   0.02167   0.00000  Uiso   1.00
C295   C     0.49915   0.52474   0.48054   0.00000  Uiso   1.00
C296   C     0.48759   0.51355   0.02760   0.00000  Uiso   1.00
H297   H     0.36929   0.48307   0.05672   0.00000  Uiso   1.00
H298   H     0.61049   0.56973   0.45716   0.00000  Uiso   1.00
H299   H     0.48693   0.47910   0.10708   0.00000  Uiso   1.00
H300   H     0.51684   0.52395   0.38870   0.00000  Uiso   1.00
H301   H     0.42648   0.49611   0.09203   0.00000  Uiso   1.00
H302   H     0.55260   0.55913   0.42215   0.00000  Uiso   1.00
N303   N     0.38093   0.50001   0.25001   0.00000  Uiso   1.00
N304   N     0.61907   0.49999   0.24999   0.00000  Uiso   1.00
O305   O     0.46179   0.56108   0.25000   0.00000  Uiso   1.00
O306   O     0.53821   0.43892   0.24999   0.00000  Uiso   1.00
O307   O     0.53823   0.56107   0.25000   0.00000  Uiso   1.00
O308   O     0.46177   0.43893   0.25000   0.00000  Uiso   1.00
O309   O     0.43994   0.50001   0.31612   0.00000  Uiso   1.00
O310   O     0.56006   0.49999   0.18387   0.00000  Uiso   1.00
O311   O     0.51639   0.50000   0.31612   0.00000  Uiso   1.00
O312   O     0.48361   0.50000   0.18388   0.00000  Uiso   1.00
Zn313  Zn    0.44896   0.50001   0.25000   0.00000  Uiso   1.00
Zn314  Zn    0.55104   0.49999   0.25000   0.00000  Uiso   1.00
F315   F     0.62349   0.53876   0.11009   0.00000  Uiso   1.00
F316   F     0.37141   0.47598   0.39499   0.00000  Uiso   1.00
O317   O     0.34027   0.47176   0.49276   0.00000  Uiso   1.00
H318   H     0.65470   0.46579   0.47307   0.00000  Uiso   1.00
O319   O     0.64582   0.56586   0.01776   0.00000  Uiso   1.00
H320   H     0.66661   0.56695   0.03633   0.00000  Uiso   1.00
F321   F     0.58316   0.62394   0.19417   0.00000  Uiso   1.00
F322   F     0.41683   0.37603   0.30571   0.00000  Uiso   1.00
F323   F     0.58317   0.37512   0.19404   0.00000  Uiso   1.00
F324   F     0.41685   0.62488   0.30591   0.00000  Uiso   1.00
F325   F     0.64292   0.44912   0.19084   0.00000  Uiso   1.00
F326   F     0.35712   0.55096   0.30907   0.00000  Uiso   1.00
O327   O     0.40542   0.44809   0.19110   0.00000  Uiso   1.00
H328   H     0.39210   0.43156   0.17156   0.00000  Uiso   1.00
O329   O     0.59475   0.55225   0.30852   0.00000  Uiso   1.00
H330   H     0.60818   0.56903   0.32778   0.00000  Uiso   1.00
C331   C     0.83331   0.57995   0.25005   0.00000  Uiso   1.00
C332   C     0.83337   0.42005   0.24992   0.00000  Uiso   1.00
C333   C     0.77277   0.50037   0.05470   0.00000  Uiso   1.00
C334   C     0.87692   0.54600   0.45642   0.00000  Uiso   1.00
C335   C     0.73884   0.49359   0.03456   0.00000  Uiso   1.00
C336   C     0.91060   0.55297   0.47692   0.00000  Uiso   1.00
C337   C     0.87580   0.64499   0.22212   0.00000  Uiso   1.00
C338   C     0.79087   0.35499   0.27779   0.00000  Uiso   1.00
C339   C     0.87582   0.35454   0.22208   0.00000  Uiso   1.00
C340   C     0.79086   0.64545   0.27785   0.00000  Uiso   1.00
C341   C     0.83337   0.37593   0.24993   0.00000  Uiso   1.00
C342   C     0.83331   0.62406   0.25001   0.00000  Uiso   1.00
C343   C     0.98776   0.47435   0.22043   0.00000  Uiso   1.00
C344   C     0.67894   0.52570   0.27952   0.00000  Uiso   1.00
C345   C     0.70276   0.47411   0.22039   0.00000  Uiso   1.00
C346   C     0.96396   0.52600   0.27949   0.00000  Uiso   1.00
C347   C     0.80260   0.50021   0.33814   0.00000  Uiso   1.00
C348   C     0.86399   0.50068   0.16190   0.00000  Uiso   1.00
C349   C     0.78266   0.50172   0.38922   0.00000  Uiso   1.00
C350   C     0.88270   0.50787   0.11157   0.00000  Uiso   1.00
C351   C     0.71940   0.48668   0.46522   0.00000  Uiso   1.00
C352   C     0.93659   0.54435   0.04227   0.00000  Uiso   1.00
C353   C     0.73496   0.48872   0.41623   0.00000  Uiso   1.00
C354   C     0.92613   0.52983   0.08803   0.00000  Uiso   1.00
C355   C     0.81359   0.51506   0.41079   0.00000  Uiso   1.00
C356   C     0.85102   0.49914   0.08933   0.00000  Uiso   1.00
C357   C     0.79930   0.51394   0.45920   0.00000  Uiso   1.00
C358   C     0.85752   0.51691   0.04645   0.00000  Uiso   1.00
C359   C     0.75210   0.49833   0.48649   0.00000  Uiso   1.00
C360   C     0.90193   0.53806   0.02167   0.00000  Uiso   1.00
C361   C     0.83249   0.52474   0.48054   0.00000  Uiso   1.00
C362   C     0.82093   0.51355   0.02760   0.00000  Uiso   1.00
H363   H     0.70262   0.48307   0.05672   0.00000  Uiso   1.00
H364   H     0.94383   0.56973   0.45716   0.00000  Uiso   1.00
H365   H     0.82027   0.47910   0.10708   0.00000  Uiso   1.00
H366   H     0.85018   0.52395   0.38870   0.00000  Uiso   1.00
H367   H     0.75981   0.49611   0.09203   0.00000  Uiso   1.00
H368   H     0.88593   0.55913   0.42215   0.00000  Uiso   1.00
N369   N     0.71426   0.50001   0.25001   0.00000  Uiso   1.00
N370   N     0.95241   0.49999   0.24999   0.00000  Uiso   1.00
O371   O     0.79512   0.56108   0.25000   0.00000  Uiso   1.00
O372   O     0.87154   0.43892   0.24999   0.00000  Uiso   1.00
O373   O     0.87157   0.56107   0.25000   0.00000  Uiso   1.00
O374   O     0.79510   0.43893   0.25000   0.00000  Uiso   1.00
O375   O     0.77328   0.50001   0.31612   0.00000  Uiso   1.00
O376   O     0.89339   0.49999   0.18387   0.00000  Uiso   1.00
O377   O     0.84972   0.50000   0.31612   0.00000  Uiso   1.00
O378   O     0.81695   0.50000   0.18388   0.00000  Uiso   1.00
Zn379  Zn    0.78229   0.50001   0.25000   0.00000  Uiso   1.00
Zn380  Zn    0.88438   0.49999   0.25000   0.00000  Uiso   1.00
F381   F     0.95682   0.53876   0.11009   0.00000  Uiso   1.00
F382   F     0.70474   0.47598   0.39499   0.00000  Uiso   1.00
O383   O     0.67360   0.47176   0.49276   0.00000  Uiso   1.00
H384   H     0.98804   0.46579   0.47307   0.00000  Uiso   1.00
O385   O     0.97916   0.56586   0.01776   0.00000  Uiso   1.00
H386   H     0.99995   0.56695   0.03633   0.00000  Uiso   1.00
F387   F     0.91650   0.62394   0.19417   0.00000  Uiso   1.00
F388   F     0.75016   0.37603   0.30571   0.00000  Uiso   1.00
F389   F     0.91651   0.37512   0.19404   0.00000  Uiso   1.00
F390   F     0.75018   0.62488   0.30591   0.00000  Uiso   1.00
F391   F     0.97625   0.44912   0.19084   0.00000  Uiso   1.00
F392   F     0.69045   0.55096   0.30907   0.00000  Uiso   1.00
O393   O     0.73875   0.44809   0.19110   0.00000  Uiso   1.00
H394   H     0.72543   0.43156   0.17156   0.00000  Uiso   1.00
O395   O     0.92808   0.55225   0.30852   0.00000  Uiso   1.00
H396   H     0.94151   0.56903   0.32778   0.00000  Uiso   1.00
C397   C     0.16664   0.91328   0.25005   0.00000  Uiso   1.00
C398   C     0.16670   0.75338   0.24992   0.00000  Uiso   1.00
C399   C     0.10610   0.83370   0.05470   0.00000  Uiso   1.00
C400   C     0.21026   0.87933   0.45642   0.00000  Uiso   1.00
C401   C     0.07217   0.82692   0.03456   0.00000  Uiso   1.00
C402   C     0.24394   0.88630   0.47692   0.00000  Uiso   1.00
C403   C     0.20913   0.97832   0.22212   0.00000  Uiso   1.00
C404   C     0.12421   0.68833   0.27779   0.00000  Uiso   1.00
C405   C     0.20916   0.68787   0.22208   0.00000  Uiso   1.00
C406   C     0.12419   0.97878   0.27785   0.00000  Uiso   1.00
C407   C     0.16670   0.70926   0.24993   0.00000  Uiso   1.00
C408   C     0.16665   0.95739   0.25001   0.00000  Uiso   1.00
C409   C     0.32109   0.80768   0.22043   0.00000  Uiso   1.00
C410   C     0.01227   0.85903   0.27952   0.00000  Uiso   1.00
C411   C     0.03609   0.80745   0.22039   0.00000  Uiso   1.00
C412   C     0.29730   0.85933   0.27949   0.00000  Uiso   1.00
C413   C     0.13594   0.83355   0.33814   0.00000  Uiso   1.00
C414   C     0.19733   0.83401   0.16190   0.00000  Uiso   1.00
C415   C     0.11599   0.83506   0.38922   0.00000  Uiso   1.00
C416   C     0.21604   0.84121   0.11157   0.00000  Uiso   1.00
C417   C     0.05273   0.82001   0.46522   0.00000  Uiso   1.00
C418   C     0.26992   0.87769   0.04227   0.00000  Uiso   1.00
C419   C     0.06829   0.82205   0.41623   0.00000  Uiso   1.00
C420   C     0.25946   0.86317   0.08803   0.00000  Uiso   1.00
C421   C     0.14692   0.84839   0.41079   0.00000  Uiso   1.00
C422   C     0.18436   0.83247   0.08933   0.00000  Uiso   1.00
C423   C     0.13263   0.84727   0.45920   0.00000  Uiso   1.00
C424   C     0.19086   0.85024   0.04645   0.00000  Uiso   1.00
C425   C     0.08544   0.83166   0.48649   0.00000  Uiso   1.00
C426   C     0.23527   0.87139   0.02167   0.00000  Uiso   1.00
C427   C     0.16582   0.85807   0.48054   0.00000  Uiso   1.00
C428   C     0.15426   0.84688   0.02760   0.00000  Uiso   1.00
H429   H     0.03596   0.81640   0.05672   0.00000  Uiso   1.00
H430   H     0.27716   0.90306   0.45716   0.00000  Uiso   1.00
H431   H     0.15360   0.81243   0.10708   0.00000  Uiso   1.00
H432   H     0.18351   0.85729   0.38870   0.00000  Uiso   1.00
H433   H     0.09315   0.82945   0.09203   0.00000  Uiso   1.00
H434   H     0.21926   0.89246   0.42215   0.00000  Uiso   1.00
N435   N     0.04759   0.83334   0.25001   0.00000  Uiso   1.00
N436   N     0.28574   0.83332   0.24999   0.00000  Uiso   1.00
O437   O     0.12846   0.89442   0.25000   0.00000  Uiso   1.00
O438   O     0.20488   0.77225   0.24999   0.00000  Uiso   1.00
O439   O     0.20490   0.89441   0.25000   0.00000  Uiso   1.00
O440   O     0.12843   0.77226   0.25000   0.00000  Uiso   1.00
O441   O     0.10661   0.83334   0.31612   0.00000  Uiso   1.00
O442   O     0.22672   0.83333   0.18387   0.00000  Uiso   1.00
O443   O     0.18305   0.83333   0.31612   0.00000  Uiso   1.00
O444   O     0.15028   0.83334   0.18388   0.00000  Uiso   1.00
Zn445  Zn    0.11562   0.83334   0.25000   0.00000  Uiso   1.00
Zn446  Zn    0.21771   0.83333   0.25000   0.00000  Uiso   1.00
F447   F     0.29015   0.87209   0.11009   0.00000  Uiso   1.00
F448   F     0.03807   0.80931   0.39499   0.00000  Uiso   1.00
O449   O     0.00693   0.80510   0.49276   0.00000  Uiso   1.00
H450   H     0.32137   0.79912   0.47307   0.00000  Uiso   1.00
O451   O     0.31249   0.89919   0.01776   0.00000  Uiso   1.00
H452   H     0.33328   0.90029   0.03633   0.00000  Uiso   1.00
F453   F     0.24983   0.95728   0.19417   0.00000  Uiso   1.00
F454   F     0.08349   0.70937   0.30571   0.00000  Uiso   1.00
F455   F     0.24984   0.70845   0.19404   0.00000  Uiso   1.00
F456   F     0.08351   0.95821   0.30591   0.00000  Uiso   1.00
F457   F     0.30958   0.78246   0.19084   0.00000  Uiso   1.00
F458   F     0.02379   0.88429   0.30907   0.00000  Uiso   1.00
O459   O     0.07208   0.78142   0.19110   0.00000  Uiso   1.00
H460   H     0.05876   0.76490   0.17156   0.00000  Uiso   1.00
O461   O     0.26141   0.88558   0.30852   0.00000  Uiso   1.00
H462   H     0.27485   0.90237   0.32778   0.00000  Uiso   1.00
C463   C     0.49998   0.91328   0.25005   0.00000  Uiso   1.00
C464   C     0.50003   0.75338   0.24992   0.00000  Uiso   1.00
C465   C     0.43944   0.83370   0.05470   0.00000  Uiso   1.00
C466   C     0.54359   0.87933   0.45642   0.00000  Uiso   1.00
C467   C     0.40550   0.82692   0.03456   0.00000  Uiso   1.00
C468   C     0.57727   0.88630   0.47692   0.00000  Uiso   1.00
C469   C     0.54247   0.97832   0.22212   0.00000  Uiso   1.00
C470   C     0.45754   0.68833   0.27779   0.00000  Uiso   1.00
C471   C     0.54249   0.68787   0.22208   0.00000  Uiso   1.00
C472   C     0.45753   0.97878   0.27785   0.00000  Uiso   1.00
C473   C     0.50004   0.70926   0.24993   0.00000  Uiso   1.00
C474   C     0.49998   0.95739   0.25001   0.00000  Uiso   1.00
C475   C     0.65442   0.80768   0.22043   0.00000  Uiso   1.00
C476   C     0.34560   0.85903   0.27952   0.00000  Uiso   1.00
C477   C     0.36942   0.80745   0.22039   0.00000  Uiso   1.00
C478   C     0.63063   0.85933   0.27949   0.00000  Uiso   1.00
C479   C     0.46927   0.83355   0.33814   0.00000  Uiso   1.00
C480   C     0.53066   0.83401   0.16190   0.00000  Uiso   1.00
C481   C     0.44932   0.83506   0.38922   0.00000  Uiso   1.00
C482   C     0.54937   0.84121   0.11157   0.00000  Uiso   1.00
C483   C     0.38606   0.82001   0.46522   0.00000  Uiso   1.00
C484   C     0.60325   0.87769   0.04227   0.00000  Uiso   1.00
C485   C     0.40163   0.82205   0.41623   0.00000  Uiso   1.00
C486   C     0.59279   0.86317   0.08803   0.00000  Uiso   1.00
C487   C     0.48025   0.84839   0.41079   0.00000  Uiso   1.00
C488   C     0.51769   0.83247   0.08933   0.00000  Uiso   1.00
C489   C     0.46596   0.84727   0.45920   0.00000  Uiso   1.00
C490   C     0.52419   0.85024   0.04645   0.00000  Uiso   1.00
C491   C     0.41877   0.83166   0.48649   0.00000  Uiso   1.00
C492   C     0.56860   0.87139   0.02167   0.00000  Uiso   1.00
C493   C     0.49915   0.85807   0.48054   0.00000  Uiso   1.00
C494   C     0.48759   0.84688   0.02760   0.00000  Uiso   1.00
H495   H     0.36929   0.81640   0.05672   0.00000  Uiso   1.00
H496   H     0.61049   0.90306   0.45716   0.00000  Uiso   1.00
H497   H     0.48693   0.81243   0.10708   0.00000  Uiso   1.00
H498   H     0.51684   0.85729   0.38870   0.00000  Uiso   1.00
H499   H     0.42648   0.82945   0.09203   0.00000  Uiso   1.00
H500   H     0.55260   0.89246   0.42215   0.00000  Uiso   1.00
N501   N     0.38093   0.83334   0.25001   0.00000  Uiso   1.00
N502   N     0.61907   0.83332   0.24999   0.00000  Uiso   1.00
O503   O     0.46179   0.89442   0.25000   0.00000  Uiso   1.00
O504   O     0.53821   0.77225   0.24999   0.00000  Uiso   1.00
O505   O     0.53823   0.89441   0.25000   0.00000  Uiso   1.00
O506   O     0.46177   0.77226   0.25000   0.00000  Uiso   1.00
O507   O     0.43994   0.83334   0.31612   0.00000  Uiso   1.00
O508   O     0.56006   0.83333   0.18387   0.00000  Uiso   1.00
O509   O     0.51639   0.83333   0.31612   0.00000  Uiso   1.00
O510   O     0.48361   0.83334   0.18388   0.00000  Uiso   1.00
Zn511  Zn    0.44896   0.83334   0.25000   0.00000  Uiso   1.00
Zn512  Zn    0.55104   0.83333   0.25000   0.00000  Uiso   1.00
F513   F     0.62349   0.87209   0.11009   0.00000  Uiso   1.00
F514   F     0.37141   0.80931   0.39499   0.00000  Uiso   1.00
O515   O     0.34027   0.80510   0.49276   0.00000  Uiso   1.00
H516   H     0.65470   0.79912   0.47307   0.00000  Uiso   1.00
O517   O     0.64582   0.89919   0.01776   0.00000  Uiso   1.00
H518   H     0.66661   0.90029   0.03633   0.00000  Uiso   1.00
F519   F     0.58316   0.95728   0.19417   0.00000  Uiso   1.00
F520   F     0.41683   0.70937   0.30571   0.00000  Uiso   1.00
F521   F     0.58317   0.70845   0.19404   0.00000  Uiso   1.00
F522   F     0.41685   0.95821   0.30591   0.00000  Uiso   1.00
F523   F     0.64292   0.78246   0.19084   0.00000  Uiso   1.00
F524   F     0.35712   0.88429   0.30907   0.00000  Uiso   1.00
O525   O     0.40542   0.78142   0.19110   0.00000  Uiso   1.00
H526   H     0.39210   0.76490   0.17156   0.00000  Uiso   1.00
O527   O     0.59475   0.88558   0.30852   0.00000  Uiso   1.00
H528   H     0.60818   0.90237   0.32778   0.00000  Uiso   1.00
C529   C     0.83331   0.91328   0.25005   0.00000  Uiso   1.00
C530   C     0.83337   0.75338   0.24992   0.00000  Uiso   1.00
C531   C     0.77277   0.83370   0.05470   0.00000  Uiso   1.00
C532   C     0.87692   0.87933   0.45642   0.00000  Uiso   1.00
C533   C     0.73884   0.82692   0.03456   0.00000  Uiso   1.00
C534   C     0.91060   0.88630   0.47692   0.00000  Uiso   1.00
C535   C     0.87580   0.97832   0.22212   0.00000  Uiso   1.00
C536   C     0.79087   0.68833   0.27779   0.00000  Uiso   1.00
C537   C     0.87582   0.68787   0.22208   0.00000  Uiso   1.00
C538   C     0.79086   0.97878   0.27785   0.00000  Uiso   1.00
C539   C     0.83337   0.70926   0.24993   0.00000  Uiso   1.00
C540   C     0.83331   0.95739   0.25001   0.00000  Uiso   1.00
C541   C     0.98776   0.80768   0.22043   0.00000  Uiso   1.00
C542   C     0.67894   0.85903   0.27952   0.00000  Uiso   1.00
C543   C     0.70276   0.80745   0.22039   0.00000  Uiso   1.00
C544   C     0.96396   0.85933   0.27949   0.00000  Uiso   1.00
C545   C     0.80260   0.83355   0.33814   0.00000  Uiso   1.00
C546   C     0.86399   0.83401   0.16190   0.00000  Uiso   1.00
C547   C     0.78266   0.83506   0.38922   0.00000  Uiso   1.00
C548   C     0.88270   0.84121   0.11157   0.00000  Uiso   1.00
C549   C     0.71940   0.82001   0.46522   0.00000  Uiso   1.00
C550   C     0.93659   0.87769   0.04227   0.00000  Uiso   1.00
C551   C     0.73496   0.82205   0.41623   0.00000  Uiso   1.00
C552   C     0.92613   0.86317   0.08803   0.00000  Uiso   1.00
C553   C     0.81359   0.84839   0.41079   0.00000  Uiso   1.00
C554   C     0.85102   0.83247   0.08933   0.00000  Uiso   1.00
C555   C     0.79930   0.84727   0.45920   0.00000  Uiso   1.00
C556   C     0.85752   0.85024   0.04645   0.00000  Uiso   1.00
C557   C     0.75210   0.83166   0.48649   0.00000  Uiso   1.00
C558   C     0.90193   0.87139   0.02167   0.00000  Uiso   1.00
C559   C     0.83249   0.85807   0.48054   0.00000  Uiso   1.00
C560   C     0.82093   0.84688   0.02760   0.00000  Uiso   1.00
H561   H     0.70262   0.81640   0.05672   0.00000  Uiso   1.00
H562   H     0.94383   0.90306   0.45716   0.00000  Uiso   1.00
H563   H     0.82027   0.81243   0.10708   0.00000  Uiso   1.00
H564   H     0.85018   0.85729   0.38870   0.00000  Uiso   1.00
H565   H     0.75981   0.82945   0.09203   0.00000  Uiso   1.00
H566   H     0.88593   0.89246   0.42215   0.00000  Uiso   1.00
N567   N     0.71426   0.83334   0.25001   0.00000  Uiso   1.00
N568   N     0.95241   0.83332   0.24999   0.00000  Uiso   1.00
O569   O     0.79512   0.89442   0.25000   0.00000  Uiso   1.00
O570   O     0.87154   0.77225   0.24999   0.00000  Uiso   1.00
O571   O     0.87157   0.89441   0.25000   0.00000  Uiso   1.00
O572   O     0.79510   0.77226   0.25000   0.00000  Uiso   1.00
O573   O     0.77328   0.83334   0.31612   0.00000  Uiso   1.00
O574   O     0.89339   0.83333   0.18387   0.00000  Uiso   1.00
O575   O     0.84972   0.83333   0.31612   0.00000  Uiso   1.00
O576   O     0.81695   0.83334   0.18388   0.00000  Uiso   1.00
Zn577  Zn    0.78229   0.83334   0.25000   0.00000  Uiso   1.00
Zn578  Zn    0.88438   0.83333   0.25000   0.00000  Uiso   1.00
F579   F     0.95682   0.87209   0.11009   0.00000  Uiso   1.00
F580   F     0.70474   0.80931   0.39499   0.00000  Uiso   1.00
O581   O     0.67360   0.80510   0.49276   0.00000  Uiso   1.00
H582   H     0.98804   0.79912   0.47307   0.00000  Uiso   1.00
O583   O     0.97916   0.89919   0.01776   0.00000  Uiso   1.00
H584   H     0.99995   0.90029   0.03633   0.00000  Uiso   1.00
F585   F     0.91650   0.95728   0.19417   0.00000  Uiso   1.00
F586   F     0.75016   0.70937   0.30571   0.00000  Uiso   1.00
F587   F     0.91651   0.70845   0.19404   0.00000  Uiso   1.00
F588   F     0.75018   0.95821   0.30591   0.00000  Uiso   1.00
F589   F     0.97625   0.78246   0.19084   0.00000  Uiso   1.00
F590   F     0.69045   0.88429   0.30907   0.00000  Uiso   1.00
O591   O     0.73875   0.78142   0.19110   0.00000  Uiso   1.00
H592   H     0.72543   0.76490   0.17156   0.00000  Uiso   1.00
O593   O     0.92808   0.88558   0.30852   0.00000  Uiso   1.00
H594   H     0.94151   0.90237   0.32778   0.00000  Uiso   1.00
C595   C     0.16664   0.24662   0.75005   0.00000  Uiso   1.00
C596   C     0.16670   0.08672   0.74992   0.00000  Uiso   1.00
C597   C     0.10610   0.16704   0.55470   0.00000  Uiso   1.00
C598   C     0.21026   0.21267   0.95642   0.00000  Uiso   1.00
C599   C     0.07217   0.16025   0.53456   0.00000  Uiso   1.00
C600   C     0.24394   0.21963   0.97692   0.00000  Uiso   1.00
C601   C     0.20913   0.31166   0.72212   0.00000  Uiso   1.00
C602   C     0.12421   0.02166   0.77779   0.00000  Uiso   1.00
C603   C     0.20916   0.02121   0.72208   0.00000  Uiso   1.00
C604   C     0.12419   0.31212   0.77785   0.00000  Uiso   1.00
C605   C     0.16670   0.04260   0.74993   0.00000  Uiso   1.00
C606   C     0.16665   0.29073   0.75001   0.00000  Uiso   1.00
C607   C     0.32109   0.14102   0.72043   0.00000  Uiso   1.00
C608   C     0.01227   0.19237   0.77952   0.00000  Uiso   1.00
C609   C     0.03609   0.14078   0.72039   0.00000  Uiso   1.00
C610   C     0.29730   0.19267   0.77949   0.00000  Uiso   1.00
C611   C     0.13594   0.16688   0.83814   0.00000  Uiso   1.00
C612   C     0.19733   0.16735   0.66190   0.00000  Uiso   1.00
C613   C     0.11599   0.16839   0.88922   0.00000  Uiso   1.00
C614   C     0.21604   0.17454   0.61157   0.00000  Uiso   1.00
C615   C     0.05273   0.15334   0.96522   0.00000  Uiso   1.00
C616   C     0.26992   0.21102   0.54227   0.00000  Uiso   1.00
C617   C     0.06829   0.15539   0.91623   0.00000  Uiso   1.00
C618   C     0.25946   0.19650   0.58803   0.00000  Uiso   1.00
C619   C     0.14692   0.18173   0.91079   0.00000  Uiso   1.00
C620   C     0.18436   0.16580   0.58933   0.00000  Uiso   1.00
C621   C     0.13263   0.18061   0.95920   0.00000  Uiso   1.00
C622   C     0.19086   0.18358   0.54645   0.00000  Uiso   1.00
C623   C     0.08544   0.16500   0.98649   0.00000  Uiso   1.00
C624   C     0.23527   0.20472   0.52167   0.00000  Uiso   1.00
C625   C     0.16582   0.19140   0.98054   0.00000  Uiso   1.00
C626   C     0.15426   0.18022   0.52760   0.00000  Uiso   1.00
H627   H     0.03596   0.14973   0.55672   0.00000  Uiso   1.00
H628   H     0.27716   0.23640   0.95716   0.00000  Uiso   1.00
H629   H     0.15360   0.14576   0.60708   0.00000  Uiso   1.00
H630   H     0.18351   0.19062   0.88870   0.00000  Uiso   1.00
H631   H     0.09315   0.16278   0.59203   0.00000  Uiso   1.00
H632   H     0.21926   0.22579   0.92215   0.00000  Uiso   1.00
N633   N     0.04759   0.16668   0.75001   0.00000  Uiso   1.00
N634   N     0.28574   0.16666   0.74999   0.00000  Uiso   1.00
O635   O     0.12846   0.22775   0.75000   0.00000  Uiso   1.00
O636   O     0.20488   0.10558   0.74999   0.00000  Uiso   1.00
O637   O     0.20490   0.22774   0.75000   0.00000  Uiso   1.00
O638   O     0.12843   0.10559   0.75000   0.00000  Uiso   1.00
O639   O     0.10661   0.16667   0.81612   0.00000  Uiso   1.00
O640   O     0.22672   0.16666   0.68387   0.00000  Uiso   1.00
O641   O     0.18305   0.16666   0.81612   0.00000  Uiso   1.00
O642   O     0.15028   0.16667   0.68388   0.00000  Uiso   1.00
Zn643  Zn    0.11562   0.16667   0.75000   0.00000  Uiso   1.00
Zn644  Zn    0.21771   0.16666   0.75000   0.00000  Uiso   1.00
F645   F     0.29015   0.20543   0.61009   0.00000  Uiso   1.00
F646   F     0.03807   0.14265   0.89499   0.00000  Uiso   1.00
O647   O     0.00693   0.13843   0.99276   0.00000  Uiso   1.00
H648   H     0.32137   0.13246   0.97307   0.00000  Uiso   1.00
O649   O     0.31249   0.23252   0.51776   0.00000  Uiso   1.00
H650   H     0.33328   0.23362   0.53633   0.00000  Uiso   1.00
F651   F     0.24983   0.29061   0.69417   0.00000  Uiso   1.00
F652   F     0.08349   0.04270   0.80571   0.00000  Uiso   1.00
F653   F     0.24984   0.04178   0.69404   0.00000  Uiso   1.00
F654   F     0.08351   0.29154   0.80591   0.00000  Uiso   1.00
F655   F     0.30958   0.11579   0.69084   0.00000  Uiso   1.00
F656   F     0.02379   0.21762   0.80907   0.00000  Uiso   1.00
O657   O     0.07208   0.11476   0.69110   0.00000  Uiso   1.00
H658   H     0.05876   0.09823   0.67156   0.00000  Uiso   1.00
O659   O     0.26141   0.21892   0.80852   0.00000  Uiso   1.00
H660   H     0.27485   0.23570   0.82778   0.00000  Uiso   1.00
C661   C     0.49998   0.24662   0.75005   0.00000  Uiso   1.00
C662   C     0.50003   0.08672   0.74992   0.00000  Uiso   1.00
C663   C     0.43944   0.16704   0.55470   0.00000  Uiso   1.00
C664   C     0.54359   0.21267   0.95642   0.00000  Uiso   1.00
C665   C     0.40550   0.16025   0.53456   0.00000  Uiso   1.00
C666   C     0.57727   0.21963   0.97692   0.00000  Uiso   1.00
C667   C     0.54247   0.31166   0.72212   0.00000  Uiso   1.00
C668   C     0.45754   0.02166   0.77779   0.00000  Uiso   1.00
C669   C     0.54249   0.02121   0.72208   0.00000  Uiso   1.00
C670   C     0.45753   0.31212   0.77785   0.00000  Uiso   1.00
C671   C     0.50004   0.04260   0.74993   0.00000  Uiso   1.00
C672   C     0.49998   0.29073   0.75001   0.00000  Uiso   1.00
C673   C     0.65442   0.14102   0.72043   0.00000  Uiso   1.00
C674   C     0.34560   0.19237   0.77952   0.00000  Uiso   1.00
C675   C     0.36942   0.14078   0.72039   0.00000  Uiso   1.00
C676   C     0.63063   0.19267   0.77949   0.00000  Uiso   1.00
C677   C     0.46927   0.16688   0.83814   0.00000  Uiso   1.00
C678   C     0.53066   0.16735   0.66190   0.00000  Uiso   1.00
C679   C     0.44932   0.16839   0.88922   0.00000  Uiso   1.00
C680   C     0.54937   0.17454   0.61157   0.00000  Uiso   1.00
C681   C     0.38606   0.15334   0.96522   0.00000  Uiso   1.00
C682   C     0.60325   0.21102   0.54227   0.00000  Uiso   1.00
C683   C     0.40163   0.15539   0.91623   0.00000  Uiso   1.00
C684   C     0.59279   0.19650   0.58803   0.00000  Uiso   1.00
C685   C     0.48025   0.18173   0.91079   0.00000  Uiso   1.00
C686   C     0.51769   0.16580   0.58933   0.00000  Uiso   1.00
C687   C     0.46596   0.18061   0.95920   0.00000  Uiso   1.00
C688   C     0.52419   0.18358   0.54645   0.00000  Uiso   1.00
C689   C     0.41877   0.16500   0.98649   0.00000  Uiso   1.00
C690   C     0.56860   0.20472   0.52167   0.00000  Uiso   1.00
C691   C     0.49915   0.19140   0.98054   0.00000  Uiso   1.00
C692   C     0.48759   0.18022   0.52760   0.00000  Uiso   1.00
H693   H     0.36929   0.14973   0.55672   0.00000  Uiso   1.00
H694   H     0.61049   0.23640   0.95716   0.00000  Uiso   1.00
H695   H     0.48693   0.14576   0.60708   0.00000  Uiso   1.00
H696   H     0.51684   0.19062   0.88870   0.00000  Uiso   1.00
H697   H     0.42648   0.16278   0.59203   0.00000  Uiso   1.00
H698   H     0.55260   0.22579   0.92215   0.00000  Uiso   1.00
N699   N     0.38093   0.16668   0.75001   0.00000  Uiso   1.00
N700   N     0.61907   0.16666   0.74999   0.00000  Uiso   1.00
O701   O     0.46179   0.22775   0.75000   0.00000  Uiso   1.00
O702   O     0.53821   0.10558   0.74999   0.00000  Uiso   1.00
O703   O     0.53823   0.22774   0.75000   0.00000  Uiso   1.00
O704   O     0.46177   0.10559   0.75000   0.00000  Uiso   1.00
O705   O     0.43994   0.16667   0.81612   0.00000  Uiso   1.00
O706   O     0.56006   0.16666   0.68387   0.00000  Uiso   1.00
O707   O     0.51639   0.16666   0.81612   0.00000  Uiso   1.00
O708   O     0.48361   0.16667   0.68388   0.00000  Uiso   1.00
Zn709  Zn    0.44896   0.16667   0.75000   0.00000  Uiso   1.00
Zn710  Zn    0.55104   0.16666   0.75000   0.00000  Uiso   1.00
F711   F     0.62349   0.20543   0.61009   0.00000  Uiso   1.00
F712   F     0.37141   0.14265   0.89499   0.00000  Uiso   1.00
O713   O     0.34027   0.13843   0.99276   0.00000  Uiso   1.00
H714   H     0.65470   0.13246   0.97307   0.00000  Uiso   1.00
O715   O     0.64582   0.23252   0.51776   0.00000  Uiso   1.00
H716   H     0.66661   0.23362   0.53633   0.00000  Uiso   1.00
F717   F     0.58316   0.29061   0.69417   0.00000  Uiso   1.00
F718   F     0.41683   0.04270   0.80571   0.00000  Uiso   1.00
F719   F     0.58317   0.04178   0.69404   0.00000  Uiso   1.00
F720   F     0.41685   0.29154   0.80591   0.00000  Uiso   1.00
F721   F     0.64292   0.11579   0.69084   0.00000  Uiso   1.00
F722   F     0.35712   0.21762   0.80907   0.00000  Uiso   1.00
O723   O     0.40542   0.11476   0.69110   0.00000  Uiso   1.00
H724   H     0.39210   0.09823   0.67156   0.00000  Uiso   1.00
O725   O     0.59475   0.21892   0.80852   0.00000  Uiso   1.00
H726   H     0.60818   0.23570   0.82778   0.00000  Uiso   1.00
C727   C     0.83331   0.24662   0.75005   0.00000  Uiso   1.00
C728   C     0.83337   0.08672   0.74992   0.00000  Uiso   1.00
C729   C     0.77277   0.16704   0.55470   0.00000  Uiso   1.00
C730   C     0.87692   0.21267   0.95642   0.00000  Uiso   1.00
C731   C     0.73884   0.16025   0.53456   0.00000  Uiso   1.00
C732   C     0.91060   0.21963   0.97692   0.00000  Uiso   1.00
C733   C     0.87580   0.31166   0.72212   0.00000  Uiso   1.00
C734   C     0.79087   0.02166   0.77779   0.00000  Uiso   1.00
C735   C     0.87582   0.02121   0.72208   0.00000  Uiso   1.00
C736   C     0.79086   0.31212   0.77785   0.00000  Uiso   1.00
C737   C     0.83337   0.04260   0.74993   0.00000  Uiso   1.00
C738   C     0.83331   0.29073   0.75001   0.00000  Uiso   1.00
C739   C     0.98776   0.14102   0.72043   0.00000  Uiso   1.00
C740   C     0.67894   0.19237   0.77952   0.00000  Uiso   1.00
C741   C     0.70276   0.14078   0.72039   0.00000  Uiso   1.00
C742   C     0.96396   0.19267   0.77949   0.00000  Uiso   1.00
C743   C     0.80260   0.16688   0.83814   0.00000  Uiso   1.00
C744   C     0.86399   0.16735   0.66190   0.00000  Uiso   1.00
C745   C     0.78266   0.16839   0.88922   0.00000  Uiso   1.00
C746   C     0.88270   0.17454   0.61157   0.00000  Uiso   1.00
C747   C     0.71940   0.15334   0.96522   0.00000  Uiso   1.00
C748   C     0.93659   0.21102   0.54227   0.00000  Uiso   1.00
C749   C     0.73496   0.15539   0.91623   0.00000  Uiso   1.00
C750   C     0.92613   0.19650   0.58803   0.00000  Uiso   1.00
C751   C     0.81359   0.18173   0.91079   0.00000  Uiso   1.00
C752   C     0.85102   0.16580   0.58933   0.00000  Uiso   1.00
C753   C     0.79930   0.18061   0.95920   0.00000  Uiso   1.00
C754   C     0.85752   0.18358   0.54645   0.00000  Uiso   1.00
C755   C     0.75210   0.16500   0.98649   0.00000  Uiso   1.00
C756   C     0.90193   0.20472   0.52167   0.00000  Uiso   1.00
C757   C     0.83249   0.19140   0.98054   0.00000  Uiso   1.00
C758   C     0.82093   0.18022   0.52760   0.00000  Uiso   1.00
H759   H     0.70262   0.14973   0.55672   0.00000  Uiso   1.00
H760   H     0.94383   0.23640   0.95716   0.00000  Uiso   1.00
H761   H     0.82027   0.14576   0.60708   0.00000  Uiso   1.00
H762   H     0.85018   0.19062   0.88870   0.00000  Uiso   1.00
H763   H     0.75981   0.16278   0.59203   0.00000  Uiso   1.00
H764   H     0.88593   0.22579   0.92215   0.00000  Uiso   1.00
N765   N     0.71426   0.16668   0.75001   0.00000  Uiso   1.00
N766   N     0.95241   0.16666   0.74999   0.00000  Uiso   1.00
O767   O     0.79512   0.22775   0.75000   0.00000  Uiso   1.00
O768   O     0.87154   0.10558   0.74999   0.00000  Uiso   1.00
O769   O     0.87157   0.22774   0.75000   0.00000  Uiso   1.00
O770   O     0.79510   0.10559   0.75000   0.00000  Uiso   1.00
O771   O     0.77328   0.16667   0.81612   0.00000  Uiso   1.00
O772   O     0.89339   0.16666   0.68387   0.00000  Uiso   1.00
O773   O     0.84972   0.16666   0.81612   0.00000  Uiso   1.00
O774   O     0.81695   0.16667   0.68388   0.00000  Uiso   1.00
Zn775  Zn    0.78229   0.16667   0.75000   0.00000  Uiso   1.00
Zn776  Zn    0.88438   0.16666   0.75000   0.00000  Uiso   1.00
F777   F     0.95682   0.20543   0.61009   0.00000  Uiso   1.00
F778   F     0.70474   0.14265   0.89499   0.00000  Uiso   1.00
O779   O     0.67360   0.13843   0.99276   0.00000  Uiso   1.00
H780   H     0.98804   0.13246   0.97307   0.00000  Uiso   1.00
O781   O     0.97916   0.23252   0.51776   0.00000  Uiso   1.00
H782   H     0.99995   0.23362   0.53633   0.00000  Uiso   1.00
F783   F     0.91650   0.29061   0.69417   0.00000  Uiso   1.00
F784   F     0.75016   0.04270   0.80571   0.00000  Uiso   1.00
F785   F     0.91651   0.04178   0.69404   0.00000  Uiso   1.00
F786   F     0.75018   0.29154   0.80591   0.00000  Uiso   1.00
F787   F     0.97625   0.11579   0.69084   0.00000  Uiso   1.00
F788   F     0.69045   0.21762   0.80907   0.00000  Uiso   1.00
O789   O     0.73875   0.11476   0.69110   0.00000  Uiso   1.00
H790   H     0.72543   0.09823   0.67156   0.00000  Uiso   1.00
O791   O     0.92808   0.21892   0.80852   0.00000  Uiso   1.00
H792   H     0.94151   0.23570   0.82778   0.00000  Uiso   1.00
C793   C     0.16664   0.57995   0.75005   0.00000  Uiso   1.00
C794   C     0.16670   0.42005   0.74992   0.00000  Uiso   1.00
C795   C     0.10610   0.50037   0.55470   0.00000  Uiso   1.00
C796   C     0.21026   0.54600   0.95642   0.00000  Uiso   1.00
C797   C     0.07217   0.49359   0.53456   0.00000  Uiso   1.00
C798   C     0.24394   0.55297   0.97692   0.00000  Uiso   1.00
C799   C     0.20913   0.64499   0.72212   0.00000  Uiso   1.00
C800   C     0.12421   0.35499   0.77779   0.00000  Uiso   1.00
C801   C     0.20916   0.35454   0.72208   0.00000  Uiso   1.00
C802   C     0.12419   0.64545   0.77785   0.00000  Uiso   1.00
C803   C     0.16670   0.37593   0.74993   0.00000  Uiso   1.00
C804   C     0.16665   0.62406   0.75001   0.00000  Uiso   1.00
C805   C     0.32109   0.47435   0.72043   0.00000  Uiso   1.00
C806   C     0.01227   0.52570   0.77952   0.00000  Uiso   1.00
C807   C     0.03609   0.47411   0.72039   0.00000  Uiso   1.00
C808   C     0.29730   0.52600   0.77949   0.00000  Uiso   1.00
C809   C     0.13594   0.50021   0.83814   0.00000  Uiso   1.00
C810   C     0.19733   0.50068   0.66190   0.00000  Uiso   1.00
C811   C     0.11599   0.50172   0.88922   0.00000  Uiso   1.00
C812   C     0.21604   0.50787   0.61157   0.00000  Uiso   1.00
C813   C     0.05273   0.48668   0.96522   0.00000  Uiso   1.00
C814   C     0.26992   0.54435   0.54227   0.00000  Uiso   1.00
C815   C     0.06829   0.48872   0.91623   0.00000  Uiso   1.00
C816   C     0.25946   0.52983   0.58803   0.00000  Uiso   1.00
C817   C     0.14692   0.51506   0.91079   0.00000  Uiso   1.00
C818   C     0.18436   0.49914   0.58933   0.00000  Uiso   1.00
C819   C     0.13263   0.51394   0.95920   0.00000  Uiso   1.00
C820   C     0.19086   0.51691   0.54645   0.00000  Uiso   1.00
C821   C     0.08544   0.49833   0.98649   0.00000  Uiso   1.00
C822   C     0.23527   0.53806   0.52167   0.00000  Uiso   1.00
C823   C     0.16582   0.52474   0.98054   0.00000  Uiso   1.00
C824   C     0.15426   0.51355   0.52760   0.00000  Uiso   1.00
H825   H     0.03596   0.48307   0.55672   0.00000  Uiso   1.00
H826   H     0.27716   0.56973   0.95716   0.00000  Uiso   1.00
H827   H     0.15360   0.47910   0.60708   0.00000  Uiso   1.00
H828   H     0.18351   0.52395   0.88870   0.00000  Uiso   1.00
H829   H     0.09315   0.49611   0.59203   0.00000  Uiso   1.00
H830   H     0.21926   0.55913   0.92215   0.00000  Uiso   1.00
N831   N     0.04759   0.50001   0.75001   0.00000  Uiso   1.00
N832   N     0.28574   0.49999   0.74999   0.00000  Uiso   1.00
O833   O     0.12846   0.56108   0.75000   0.00000  Uiso   1.00
O834   O     0.20488   0.43892   0.74999   0.00000  Uiso   1.00
O835   O     0.20490   0.56107   0.75000   0.00000  Uiso   1.00
O836   O     0.12843   0.43893   0.75000   0.00000  Uiso   1.00
O837   O     0.10661   0.50001   0.81612   0.00000  Uiso   1.00
O838   O     0.22672   0.49999   0.68387   0.00000  Uiso   1.00
O839   O     0.18305   0.50000   0.81612   0.00000  Uiso   1.00
O840   O     0.15028   0.50000   0.68388   0.00000  Uiso   1.00
Zn841  Zn    0.11562   0.50001   0.75000   0.00000  Uiso   1.00
Zn842  Zn    0.21771   0.49999   0.75000   0.00000  Uiso   1.00
F843   F     0.29015   0.53876   0.61009   0.00000  Uiso   1.00
F844   F     0.03807   0.47598   0.89499   0.00000  Uiso   1.00
O845   O     0.00693   0.47176   0.99276   0.00000  Uiso   1.00
H846   H     0.32137   0.46579   0.97307   0.00000  Uiso   1.00
O847   O     0.31249   0.56586   0.51776   0.00000  Uiso   1.00
H848   H     0.33328   0.56695   0.53633   0.00000  Uiso   1.00
F849   F     0.24983   0.62394   0.69417   0.00000  Uiso   1.00
F850   F     0.08349   0.37603   0.80571   0.00000  Uiso   1.00
F851   F     0.24984   0.37512   0.69404   0.00000  Uiso   1.00
F852   F     0.08351   0.62488   0.80591   0.00000  Uiso   1.00
F853   F     0.30958   0.44912   0.69084   0.00000  Uiso   1.00
F854   F     0.02379   0.55096   0.80907   0.00000  Uiso   1.00
O855   O     0.07208   0.44809   0.69110   0.00000  Uiso   1.00
H856   H     0.05876   0.43156   0.67156   0.00000  Uiso   1.00
O857   O     0.26141   0.55225   0.80852   0.00000  Uiso   1.00
H858   H     0.27485   0.56903   0.82778   0.00000  Uiso   1.00
C859   C     0.49998   0.57995   0.75005   0.00000  Uiso   1.00
C860   C     0.50003   0.42005   0.74992   0.00000  Uiso   1.00
C861   C     0.43944   0.50037   0.55470   0.00000  Uiso   1.00
C862   C     0.54359   0.54600   0.95642   0.00000  Uiso   1.00
C863   C     0.40550   0.49359   0.53456   0.00000  Uiso   1.00
C864   C     0.57727   0.55297   0.97692   0.00000  Uiso   1.00
C865   C     0.54247   0.64499   0.72212   0.00000  Uiso   1.00
C866   C     0.45754   0.35499   0.77779   0.00000  Uiso   1.00
C867   C     0.54249   0.35454   0.72208   0.00000  Uiso   1.00
C868   C     0.45753   0.64545   0.77785   0.00000  Uiso   1.00
C869   C     0.50004   0.37593   0.74993   0.00000  Uiso   1.00
C870   C     0.49998   0.62406   0.75001   0.00000  Uiso   1.00
C871   C     0.65442   0.47435   0.72043   0.00000  Uiso   1.00
C872   C     0.34560   0.52570   0.77952   0.00000  Uiso   1.00
C873   C     0.36942   0.47411   0.72039   0.00000  Uiso   1.00
C874   C     0.63063   0.52600   0.77949   0.00000  Uiso   1.00
C875   C     0.46927   0.50021   0.83814   0.00000  Uiso   1.00
C876   C     0.53066   0.50068   0.66190   0.00000  Uiso   1.00
C877   C     0.44932   0.50172   0.88922   0.00000  Uiso   1.00
C878   C     0.54937   0.50787   0.61157   0.00000  Uiso   1.00
C879   C     0.38606   0.48668   0.96522   0.00000  Uiso   1.00
C880   C     0.60325   0.54435   0.54227   0.00000  Uiso   1.00
C881   C     0.40163   0.48872   0.91623   0.00000  Uiso   1.00
C882   C     0.59279   0.52983   0.58803   0.00000  Uiso   1.00
C883   C     0.48025   0.51506   0.91079   0.00000  Uiso   1.00
C884   C     0.51769   0.49914   0.58933   0.00000  Uiso   1.00
C885   C     0.46596   0.51394   0.95920   0.00000  Uiso   1.00
C886   C     0.52419   0.51691   0.54645   0.00000  Uiso   1.00
C887   C     0.41877   0.49833   0.98649   0.00000  Uiso   1.00
C888   C     0.56860   0.53806   0.52167   0.00000  Uiso   1.00
C889   C     0.49915   0.52474   0.98054   0.00000  Uiso   1.00
C890   C     0.48759   0.51355   0.52760   0.00000  Uiso   1.00
H891   H     0.36929   0.48307   0.55672   0.00000  Uiso   1.00
H892   H     0.61049   0.56973   0.95716   0.00000  Uiso   1.00
H893   H     0.48693   0.47910   0.60708   0.00000  Uiso   1.00
H894   H     0.51684   0.52395   0.88870   0.00000  Uiso   1.00
H895   H     0.42648   0.49611   0.59203   0.00000  Uiso   1.00
H896   H     0.55260   0.55913   0.92215   0.00000  Uiso   1.00
N897   N     0.38093   0.50001   0.75001   0.00000  Uiso   1.00
N898   N     0.61907   0.49999   0.74999   0.00000  Uiso   1.00
O899   O     0.46179   0.56108   0.75000   0.00000  Uiso   1.00
O900   O     0.53821   0.43892   0.74999   0.00000  Uiso   1.00
O901   O     0.53823   0.56107   0.75000   0.00000  Uiso   1.00
O902   O     0.46177   0.43893   0.75000   0.00000  Uiso   1.00
O903   O     0.43994   0.50001   0.81612   0.00000  Uiso   1.00
O904   O     0.56006   0.49999   0.68387   0.00000  Uiso   1.00
O905   O     0.51639   0.50000   0.81612   0.00000  Uiso   1.00
O906   O     0.48361   0.50000   0.68388   0.00000  Uiso   1.00
Zn907  Zn    0.44896   0.50001   0.75000   0.00000  Uiso   1.00
Zn908  Zn    0.55104   0.49999   0.75000   0.00000  Uiso   1.00
F909   F     0.62349   0.53876   0.61009   0.00000  Uiso   1.00
F910   F     0.37141   0.47598   0.89499   0.00000  Uiso   1.00
O911   O     0.34027   0.47176   0.99276   0.00000  Uiso   1.00
H912   H     0.65470   0.46579   0.97307   0.00000  Uiso   1.00
O913   O     0.64582   0.56586   0.51776   0.00000  Uiso   1.00
H914   H     0.66661   0.56695   0.53633   0.00000  Uiso   1.00
F915   F     0.58316   0.62394   0.69417   0.00000  Uiso   1.00
F916   F     0.41683   0.37603   0.80571   0.00000  Uiso   1.00
F917   F     0.58317   0.37512   0.69404   0.00000  Uiso   1.00
F918   F     0.41685   0.62488   0.80591   0.00000  Uiso   1.00
F919   F     0.64292   0.44912   0.69084   0.00000  Uiso   1.00
F920   F     0.35712   0.55096   0.80907   0.00000  Uiso   1.00
O921   O     0.40542   0.44809   0.69110   0.00000  Uiso   1.00
H922   H     0.39210   0.43156   0.67156   0.00000  Uiso   1.00
O923   O     0.59475   0.55225   0.80852   0.00000  Uiso   1.00
H924   H     0.60818   0.56903   0.82778   0.00000  Uiso   1.00
C925   C     0.83331   0.57995   0.75005   0.00000  Uiso   1.00
C926   C     0.83337   0.42005   0.74992   0.00000  Uiso   1.00
C927   C     0.77277   0.50037   0.55470   0.00000  Uiso   1.00
C928   C     0.87692   0.54600   0.95642   0.00000  Uiso   1.00
C929   C     0.73884   0.49359   0.53456   0.00000  Uiso   1.00
C930   C     0.91060   0.55297   0.97692   0.00000  Uiso   1.00
C931   C     0.87580   0.64499   0.72212   0.00000  Uiso   1.00
C932   C     0.79087   0.35499   0.77779   0.00000  Uiso   1.00
C933   C     0.87582   0.35454   0.72208   0.00000  Uiso   1.00
C934   C     0.79086   0.64545   0.77785   0.00000  Uiso   1.00
C935   C     0.83337   0.37593   0.74993   0.00000  Uiso   1.00
C936   C     0.83331   0.62406   0.75001   0.00000  Uiso   1.00
C937   C     0.98776   0.47435   0.72043   0.00000  Uiso   1.00
C938   C     0.67894   0.52570   0.77952   0.00000  Uiso   1.00
C939   C     0.70276   0.47411   0.72039   0.00000  Uiso   1.00
C940   C     0.96396   0.52600   0.77949   0.00000  Uiso   1.00
C941   C     0.80260   0.50021   0.83814   0.00000  Uiso   1.00
C942   C     0.86399   0.50068   0.66190   0.00000  Uiso   1.00
C943   C     0.78266   0.50172   0.88922   0.00000  Uiso   1.00
C944   C     0.88270   0.50787   0.61157   0.00000  Uiso   1.00
C945   C     0.71940   0.48668   0.96522   0.00000  Uiso   1.00
C946   C     0.93659   0.54435   0.54227   0.00000  Uiso   1.00
C947   C     0.73496   0.48872   0.91623   0.00000  Uiso   1.00
C948   C     0.92613   0.52983   0.58803   0.00000  Uiso   1.00
C949   C     0.81359   0.51506   0.91079   0.00000  Uiso   1.00
C950   C     0.85102   0.49914   0.58933   0.00000  Uiso   1.00
C951   C     0.79930   0.51394   0.95920   0.00000  Uiso   1.00
C952   C     0.85752   0.51691   0.54645   0.00000  Uiso   1.00
C953   C     0.75210   0.49833   0.98649   0.00000  Uiso   1.00
C954   C     0.90193   0.53806   0.52167   0.00000  Uiso   1.00
C955   C     0.83249   0.52474   0.98054   0.00000  Uiso   1.00
C956   C     0.82093   0.51355   0.52760   0.00000  Uiso   1.00
H957   H     0.70262   0.48307   0.55672   0.00000  Uiso   1.00
H958   H     0.94383   0.56973   0.95716   0.00000  Uiso   1.00
H959   H     0.82027   0.47910   0.60708   0.00000  Uiso   1.00
H960   H     0.85018   0.52395   0.88870   0.00000  Uiso   1.00
H961   H     0.75981   0.49611   0.59203   0.00000  Uiso   1.00
H962   H     0.88593   0.55913   0.92215   0.00000  Uiso   1.00
N963   N     0.71426   0.50001   0.75001   0.00000  Uiso   1.00
N964   N     0.95241   0.49999   0.74999   0.00000  Uiso   1.00
O965   O     0.79512   0.56108   0.75000   0.00000  Uiso   1.00
O966   O     0.87154   0.43892   0.74999   0.00000  Uiso   1.00
O967   O     0.87157   0.56107   0.75000   0.00000  Uiso   1.00
O968   O     0.79510   0.43893   0.75000   0.00000  Uiso   1.00
O969   O     0.77328   0.50001   0.81612   0.00000  Uiso   1.00
O970   O     0.89339   0.49999   0.68387   0.00000  Uiso   1.00
O971   O     0.84972   0.50000   0.81612   0.00000  Uiso   1.00
O972   O     0.81695   0.50000   0.68388   0.00000  Uiso   1.00
Zn973  Zn    0.78229   0.50001   0.75000   0.00000  Uiso   1.00
Zn974  Zn    0.88438   0.49999   0.75000   0.00000  Uiso   1.00
F975   F     0.95682   0.53876   0.61009   0.00000  Uiso   1.00
F976   F     0.70474   0.47598   0.89499   0.00000  Uiso   1.00
O977   O     0.67360   0.47176   0.99276   0.00000  Uiso   1.00
H978   H     0.98804   0.46579   0.97307   0.00000  Uiso   1.00
O979   O     0.97916   0.56586   0.51776   0.00000  Uiso   1.00
H980   H     0.99995   0.56695   0.53633   0.00000  Uiso   1.00
F981   F     0.91650   0.62394   0.69417   0.00000  Uiso   1.00
F982   F     0.75016   0.37603   0.80571   0.00000  Uiso   1.00
F983   F     0.91651   0.37512   0.69404   0.00000  Uiso   1.00
F984   F     0.75018   0.62488   0.80591   0.00000  Uiso   1.00
F985   F     0.97625   0.44912   0.69084   0.00000  Uiso   1.00
F986   F     0.69045   0.55096   0.80907   0.00000  Uiso   1.00
O987   O     0.73875   0.44809   0.69110   0.00000  Uiso   1.00
H988   H     0.72543   0.43156   0.67156   0.00000  Uiso   1.00
O989   O     0.92808   0.55225   0.80852   0.00000  Uiso   1.00
H990   H     0.94151   0.56903   0.82778   0.00000  Uiso   1.00
C991   C     0.16664   0.91328   0.75005   0.00000  Uiso   1.00
C992   C     0.16670   0.75338   0.74992   0.00000  Uiso   1.00
C993   C     0.10610   0.83370   0.55470   0.00000  Uiso   1.00
C994   C     0.21026   0.87933   0.95642   0.00000  Uiso   1.00
C995   C     0.07217   0.82692   0.53456   0.00000  Uiso   1.00
C996   C     0.24394   0.88630   0.97692   0.00000  Uiso   1.00
C997   C     0.20913   0.97832   0.72212   0.00000  Uiso   1.00
C998   C     0.12421   0.68833   0.77779   0.00000  Uiso   1.00
C999   C     0.20916   0.68787   0.72208   0.00000  Uiso   1.00
C1000  C     0.12419   0.97878   0.77785   0.00000  Uiso   1.00
C1001  C     0.16670   0.70926   0.74993   0.00000  Uiso   1.00
C1002  C     0.16665   0.95739   0.75001   0.00000  Uiso   1.00
C1003  C     0.32109   0.80768   0.72043   0.00000  Uiso   1.00
C1004  C     0.01227   0.85903   0.77952   0.00000  Uiso   1.00
C1005  C     0.03609   0.80745   0.72039   0.00000  Uiso   1.00
C1006  C     0.29730   0.85933   0.77949   0.00000  Uiso   1.00
C1007  C     0.13594   0.83355   0.83814   0.00000  Uiso   1.00
C1008  C     0.19733   0.83401   0.66190   0.00000  Uiso   1.00
C1009  C     0.11599   0.83506   0.88922   0.00000  Uiso   1.00
C1010  C     0.21604   0.84121   0.61157   0.00000  Uiso   1.00
C1011  C     0.05273   0.82001   0.96522   0.00000  Uiso   1.00
C1012  C     0.26992   0.87769   0.54227   0.00000  Uiso   1.00
C1013  C     0.06829   0.82205   0.91623   0.00000  Uiso   1.00
C1014  C     0.25946   0.86317   0.58803   0.00000  Uiso   1.00
C1015  C     0.14692   0.84839   0.91079   0.00000  Uiso   1.00
C1016  C     0.18436   0.83247   0.58933   0.00000  Uiso   1.00
C1017  C     0.13263   0.84727   0.95920   0.00000  Uiso   1.00
C1018  C     0.19086   0.85024   0.54645   0.00000  Uiso   1.00
C1019  C     0.08544   0.83166   0.98649   0.00000  Uiso   1.00
C1020  C     0.23527   0.87139   0.52167   0.00000  Uiso   1.00
C1021  C     0.16582   0.85807   0.98054   0.00000  Uiso   1.00
C1022  C     0.15426   0.84688   0.52760   0.00000  Uiso   1.00
H1023  H     0.03596   0.81640   0.55672   0.00000  Uiso   1.00
H1024  H     0.27716   0.90306   0.95716   0.00000  Uiso   1.00
H1025  H     0.15360   0.81243   0.60708   0.00000  Uiso   1.00
H1026  H     0.18351   0.85729   0.88870   0.00000  Uiso   1.00
H1027  H     0.09315   0.82945   0.59203   0.00000  Uiso   1.00
H1028  H     0.21926   0.89246   0.92215   0.00000  Uiso   1.00
N1029  N     0.04759   0.83334   0.75001   0.00000  Uiso   1.00
N1030  N     0.28574   0.83332   0.74999   0.00000  Uiso   1.00
O1031  O     0.12846   0.89442   0.75000   0.00000  Uiso   1.00
O1032  O     0.20488   0.77225   0.74999   0.00000  Uiso   1.00
O1033  O     0.20490   0.89441   0.75000   0.00000  Uiso   1.00
O1034  O     0.12843   0.77226   0.75000   0.00000  Uiso   1.00
O1035  O     0.10661   0.83334   0.81612   0.00000  Uiso   1.00
O1036  O     0.22672   0.83333   0.68387   0.00000  Uiso   1.00
O1037  O     0.18305   0.83333   0.81612   0.00000  Uiso   1.00
O1038  O     0.15028   0.83334   0.68388   0.00000  Uiso   1.00
Zn1039 Zn    0.11562   0.83334   0.75000   0.00000  Uiso   1.00
Zn1040 Zn    0.21771   0.83333   0.75000   0.00000  Uiso   1.00
F1041  F     0.29015   0.87209   0.61009   0.00000  Uiso   1.00
F1042  F     0.03807   0.80931   0.89499   0.00000  Uiso   1.00
O1043  O     0.00693   0.80510   0.99276   0.00000  Uiso   1.00
H1044  H     0.32137   0.79912   0.97307   0.00000  Uiso   1.00
O1045  O     0.31249   0.89919   0.51776   0.00000  Uiso   1.00
H1046  H     0.33328   0.90029   0.53633   0.00000  Uiso   1.00
F1047  F     0.24983   0.95728   0.69417   0.00000  Uiso   1.00
F1048  F     0.08349   0.70937   0.80571   0.00000  Uiso   1.00
F1049  F     0.24984   0.70845   0.69404   0.00000  Uiso   1.00
F1050  F     0.08351   0.95821   0.80591   0.00000  Uiso   1.00
F1051  F     0.30958   0.78246   0.69084   0.00000  Uiso   1.00
F1052  F     0.02379   0.88429   0.80907   0.00000  Uiso   1.00
O1053  O     0.07208   0.78142   0.69110   0.00000  Uiso   1.00
H1054  H     0.05876   0.76490   0.67156   0.00000  Uiso   1.00
O1055  O     0.26141   0.88558   0.80852   0.00000  Uiso   1.00
H1056  H     0.27485   0.90237   0.82778   0.00000  Uiso   1.00
C1057  C     0.49998   0.91328   0.75005   0.00000  Uiso   1.00
C1058  C     0.50003   0.75338   0.74992   0.00000  Uiso   1.00
C1059  C     0.43944   0.83370   0.55470   0.00000  Uiso   1.00
C1060  C     0.54359   0.87933   0.95642   0.00000  Uiso   1.00
C1061  C     0.40550   0.82692   0.53456   0.00000  Uiso   1.00
C1062  C     0.57727   0.88630   0.97692   0.00000  Uiso   1.00
C1063  C     0.54247   0.97832   0.72212   0.00000  Uiso   1.00
C1064  C     0.45754   0.68833   0.77779   0.00000  Uiso   1.00
C1065  C     0.54249   0.68787   0.72208   0.00000  Uiso   1.00
C1066  C     0.45753   0.97878   0.77785   0.00000  Uiso   1.00
C1067  C     0.50004   0.70926   0.74993   0.00000  Uiso   1.00
C1068  C     0.49998   0.95739   0.75001   0.00000  Uiso   1.00
C1069  C     0.65442   0.80768   0.72043   0.00000  Uiso   1.00
C1070  C     0.34560   0.85903   0.77952   0.00000  Uiso   1.00
C1071  C     0.36942   0.80745   0.72039   0.00000  Uiso   1.00
C1072  C     0.63063   0.85933   0.77949   0.00000  Uiso   1.00
C1073  C     0.46927   0.83355   0.83814   0.00000  Uiso   1.00
C1074  C     0.53066   0.83401   0.66190   0.00000  Uiso   1.00
C1075  C     0.44932   0.83506   0.88922   0.00000  Uiso   1.00
C1076  C     0.54937   0.84121   0.61157   0.00000  Uiso   1.00
C1077  C     0.38606   0.82001   0.96522   0.00000  Uiso   1.00
C1078  C     0.60325   0.87769   0.54227   0.00000  Uiso   1.00
C1079  C     0.40163   0.82205   0.91623   0.00000  Uiso   1.00
C1080  C     0.59279   0.86317   0.58803   0.00000  Uiso   1.00
C1081  C     0.48025   0.84839   0.91079   0.00000  Uiso   1.00
C1082  C     0.51769   0.83247   0.58933   0.00000  Uiso   1.00
C1083  C     0.46596   0.84727   0.95920   0.00000  Uiso   1.00
C1084  C     0.52419   0.85024   0.54645   0.00000  Uiso   1.00
C1085  C     0.41877   0.83166   0.98649   0.00000  Uiso   1.00
C1086  C     0.56860   0.87139   0.52167   0.00000  Uiso   1.00
C1087  C     0.49915   0.85807   0.98054   0.00000  Uiso   1.00
C1088  C     0.48759   0.84688   0.52760   0.00000  Uiso   1.00
H1089  H     0.36929   0.81640   0.55672   0.00000  Uiso   1.00
H1090  H     0.61049   0.90306   0.95716   0.00000  Uiso   1.00
H1091  H     0.48693   0.81243   0.60708   0.00000  Uiso   1.00
H1092  H     0.51684   0.85729   0.88870   0.00000  Uiso   1.00
H1093  H     0.42648   0.82945   0.59203   0.00000  Uiso   1.00
H1094  H     0.55260   0.89246   0.92215   0.00000  Uiso   1.00
N1095  N     0.38093   0.83334   0.75001   0.00000  Uiso   1.00
N1096  N     0.61907   0.83332   0.74999   0.00000  Uiso   1.00
O1097  O     0.46179   0.89442   0.75000   0.00000  Uiso   1.00
O1098  O     0.53821   0.77225   0.74999   0.00000  Uiso   1.00
O1099  O     0.53823   0.89441   0.75000   0.00000  Uiso   1.00
O1100  O     0.46177   0.77226   0.75000   0.00000  Uiso   1.00
O1101  O     0.43994   0.83334   0.81612   0.00000  Uiso   1.00
O1102  O     0.56006   0.83333   0.68387   0.00000  Uiso   1.00
O1103  O     0.51639   0.83333   0.81612   0.00000  Uiso   1.00
O1104  O     0.48361   0.83334   0.68388   0.00000  Uiso   1.00
Zn1105 Zn    0.44896   0.83334   0.75000   0.00000  Uiso   1.00
Zn1106 Zn    0.55104   0.83333   0.75000   0.00000  Uiso   1.00
F1107  F     0.62349   0.87209   0.61009   0.00000  Uiso   1.00
F1108  F     0.37141   0.80931   0.89499   0.00000  Uiso   1.00
O1109  O     0.34027   0.80510   0.99276   0.00000  Uiso   1.00
H1110  H     0.65470   0.79912   0.97307   0.00000  Uiso   1.00
O1111  O     0.64582   0.89919   0.51776   0.00000  Uiso   1.00
H1112  H     0.66661   0.90029   0.53633   0.00000  Uiso   1.00
F1113  F     0.58316   0.95728   0.69417   0.00000  Uiso   1.00
F1114  F     0.41683   0.70937   0.80571   0.00000  Uiso   1.00
F1115  F     0.58317   0.70845   0.69404   0.00000  Uiso   1.00
F1116  F     0.41685   0.95821   0.80591   0.00000  Uiso   1.00
F1117  F     0.64292   0.78246   0.69084   0.00000  Uiso   1.00
F1118  F     0.35712   0.88429   0.80907   0.00000  Uiso   1.00
O1119  O     0.40542   0.78142   0.69110   0.00000  Uiso   1.00
H1120  H     0.39210   0.76490   0.67156   0.00000  Uiso   1.00
O1121  O     0.59475   0.88558   0.80852   0.00000  Uiso   1.00
H1122  H     0.60818   0.90237   0.82778   0.00000  Uiso   1.00
C1123  C     0.83331   0.91328   0.75005   0.00000  Uiso   1.00
C1124  C     0.83337   0.75338   0.74992   0.00000  Uiso   1.00
C1125  C     0.77277   0.83370   0.55470   0.00000  Uiso   1.00
C1126  C     0.87692   0.87933   0.95642   0.00000  Uiso   1.00
C1127  C     0.73884   0.82692   0.53456   0.00000  Uiso   1.00
C1128  C     0.91060   0.88630   0.97692   0.00000  Uiso   1.00
C1129  C     0.87580   0.97832   0.72212   0.00000  Uiso   1.00
C1130  C     0.79087   0.68833   0.77779   0.00000  Uiso   1.00
C1131  C     0.87582   0.68787   0.72208   0.00000  Uiso   1.00
C1132  C     0.79086   0.97878   0.77785   0.00000  Uiso   1.00
C1133  C     0.83337   0.70926   0.74993   0.00000  Uiso   1.00
C1134  C     0.83331   0.95739   0.75001   0.00000  Uiso   1.00
C1135  C     0.98776   0.80768   0.72043   0.00000  Uiso   1.00
C1136  C     0.67894   0.85903   0.77952   0.00000  Uiso   1.00
C1137  C     0.70276   0.80745   0.72039   0.00000  Uiso   1.00
C1138  C     0.96396   0.85933   0.77949   0.00000  Uiso   1.00
C1139  C     0.80260   0.83355   0.83814   0.00000  Uiso   1.00
C1140  C     0.86399   0.83401   0.66190   0.00000  Uiso   1.00
C1141  C     0.78266   0.83506   0.88922   0.00000  Uiso   1.00
C1142  C     0.88270   0.84121   0.61157   0.00000  Uiso   1.00
C1143  C     0.71940   0.82001   0.96522   0.00000  Uiso   1.00
C1144  C     0.93659   0.87769   0.54227   0.00000  Uiso   1.00
C1145  C     0.73496   0.82205   0.91623   0.00000  Uiso   1.00
C1146  C     0.92613   0.86317   0.58803   0.00000  Uiso   1.00
C1147  C     0.81359   0.84839   0.91079   0.00000  Uiso   1.00
C1148  C     0.85102   0.83247   0.58933   0.00000  Uiso   1.00
C1149  C     0.79930   0.84727   0.95920   0.00000  Uiso   1.00
C1150  C     0.85752   0.85024   0.54645   0.00000  Uiso   1.00
C1151  C     0.75210   0.83166   0.98649   0.00000  Uiso   1.00
C1152  C     0.90193   0.87139   0.52167   0.00000  Uiso   1.00
C1153  C     0.83249   0.85807   0.98054   0.00000  Uiso   1.00
C1154  C     0.82093   0.84688   0.52760   0.00000  Uiso   1.00
H1155  H     0.70262   0.81640   0.55672   0.00000  Uiso   1.00
H1156  H     0.94383   0.90306   0.95716   0.00000  Uiso   1.00
H1157  H     0.82027   0.81243   0.60708   0.00000  Uiso   1.00
H1158  H     0.85018   0.85729   0.88870   0.00000  Uiso   1.00
H1159  H     0.75981   0.82945   0.59203   0.00000  Uiso   1.00
H1160  H     0.88593   0.89246   0.92215   0.00000  Uiso   1.00
N1161  N     0.71426   0.83334   0.75001   0.00000  Uiso   1.00
N1162  N     0.95241   0.83332   0.74999   0.00000  Uiso   1.00
O1163  O     0.79512   0.89442   0.75000   0.00000  Uiso   1.00
O1164  O     0.87154   0.77225   0.74999   0.00000  Uiso   1.00
O1165  O     0.87157   0.89441   0.75000   0.00000  Uiso   1.00
O1166  O     0.79510   0.77226   0.75000   0.00000  Uiso   1.00
O1167  O     0.77328   0.83334   0.81612   0.00000  Uiso   1.00
O1168  O     0.89339   0.83333   0.68387   0.00000  Uiso   1.00
O1169  O     0.84972   0.83333   0.81612   0.00000  Uiso   1.00
O1170  O     0.81695   0.83334   0.68388   0.00000  Uiso   1.00
Zn1171 Zn    0.78229   0.83334   0.75000   0.00000  Uiso   1.00
Zn1172 Zn    0.88438   0.83333   0.75000   0.00000  Uiso   1.00
F1173  F     0.95682   0.87209   0.61009   0.00000  Uiso   1.00
F1174  F     0.70474   0.80931   0.89499   0.00000  Uiso   1.00
O1175  O     0.67360   0.80510   0.99276   0.00000  Uiso   1.00
H1176  H     0.98804   0.79912   0.97307   0.00000  Uiso   1.00
O1177  O     0.97916   0.89919   0.51776   0.00000  Uiso   1.00
H1178  H     0.99995   0.90029   0.53633   0.00000  Uiso   1.00
F1179  F     0.91650   0.95728   0.69417   0.00000  Uiso   1.00
F1180  F     0.75016   0.70937   0.80571   0.00000  Uiso   1.00
F1181  F     0.91651   0.70845   0.69404   0.00000  Uiso   1.00
F1182  F     0.75018   0.95821   0.80591   0.00000  Uiso   1.00
F1183  F     0.97625   0.78246   0.69084   0.00000  Uiso   1.00
F1184  F     0.69045   0.88429   0.80907   0.00000  Uiso   1.00
O1185  O     0.73875   0.78142   0.69110   0.00000  Uiso   1.00
H1186  H     0.72543   0.76490   0.67156   0.00000  Uiso   1.00
O1187  O     0.92808   0.88558   0.80852   0.00000  Uiso   1.00
H1188  H     0.94151   0.90237   0.82778   0.00000  Uiso   1.00
loop_
_geom_bond_atom_site_label_1
_geom_bond_atom_site_label_2
_geom_bond_distance
_geom_bond_site_symmetry_2
_ccdc_geom_bond_type
C1     O43     1.282   .     A
C1     O41     1.282   .     A
C1     C12     1.412   .     S
C2     C11     1.412   .     S
C2     O42     1.283   .     A
C2     O44     1.282   .     A
C3     C5      1.387   .     A
C3     C32     1.416   .     A
C3     H37     1.079   .     S
C4     C31     1.417   .     A
C4     H38     1.078   .     S
C4     C6      1.389   .     A
C5     H33     1.083   .     S
C5     C623    1.396   1_554 S
C6     H34     1.083   .     S
C6     C624    1.396   .     S
C7     C12     1.398   .     A
C7     F57     1.359   .     S
C7     C207    1.373   .     S
C8     C11     1.398   .     A
C8     F58     1.359   .     S
C8     C406    1.373   1_545 S
C9     C11     1.398   .     A
C9     F59     1.359   .     S
C9     C403    1.373   1_545 S
C10    F60     1.359   .     S
C10    C12     1.398   .     A
C10    C206    1.373   .     S
C13    F61     1.356   .     S
C13    N40     1.365   .     A
C13    C81     1.430   .     S
C14    F62     1.356   .     S
C14    N39     1.365   .     A
C14    C148    1.430   1_455 S
C15    N39     1.370   .     A
C15    O63     1.379   .     S
C15    C145    1.430   1_455 S
C16    N40     1.370   .     A
C16    O65     1.379   .     S
C16    C80     1.430   .     S
C17    O47     1.297   .     A
C17    C19     1.462   .     S
C17    O45     1.293   .     A
C18    C20     1.460   .     S
C18    O46     1.294   .     A
C18    O48     1.295   .     A
C19    C25     1.390   .     A
C19    C23     1.403   .     A
C20    C24     1.403   .     A
C20    C26     1.387   .     A
C21    C29     1.413   .     A
C21    O53     1.383   .     S
C21    C23     1.409   .     A
C22    O55     1.383   .     S
C22    C24     1.411   .     A
C22    C30     1.414   .     A
C23    F52     1.359   .     S
C24    F51     1.359   .     S
C25    C27     1.394   .     A
C25    H36     1.076   .     S
C26    C28     1.392   .     A
C26    H35     1.079   .     S
C27    C29     1.421   .     A
C27    C31     1.420   .     A
C28    C30     1.418   .     A
C28    C32     1.417   .     A
C29    C599    1.396   .     S
C30    C600    1.396   1_554 S
C31    C626    1.412   .     S
C32    C625    1.412   1_554 S
N39    Zn49    2.013   .     S
N40    Zn50    2.013   .     S
O41    Zn49    1.992   .     S
O42    Zn50    1.992   .     S
O43    Zn50    1.991   .     S
O44    Zn49    1.991   .     S
O45    Zn49    1.961   .     S
O46    Zn50    1.961   .     S
O47    Zn50    1.907   .     S
O48    Zn49    1.907   .     S
O53    H186    0.990   1_455 S
H54    O119    0.990   .     S
O55    H56     0.990   .     S
O63    H64     0.990   .     S
O65    H66     0.990   .     S
C67    O109    1.282   .     A
C67    O107    1.282   .     A
C67    C78     1.412   .     S
C68    C77     1.412   .     S
C68    O108    1.283   .     A
C68    O110    1.282   .     A
C69    C71     1.387   .     A
C69    C98     1.416   .     A
C69    H103    1.079   .     S
C70    C97     1.417   .     A
C70    H104    1.078   .     S
C70    C72     1.389   .     A
C71    H99     1.083   .     S
C71    C689    1.396   1_554 S
C72    H100    1.083   .     S
C72    C690    1.396   .     S
C73    C78     1.398   .     A
C73    F123    1.359   .     S
C73    C273    1.373   .     S
C74    C77     1.398   .     A
C74    F124    1.359   .     S
C74    C472    1.373   1_545 S
C75    C77     1.398   .     A
C75    F125    1.359   .     S
C75    C469    1.373   1_545 S
C76    F126    1.359   .     S
C76    C78     1.398   .     A
C76    C272    1.373   .     S
C79    F127    1.356   .     S
C79    N106    1.365   .     A
C79    C147    1.430   .     S
C80    F128    1.356   .     S
C80    N105    1.365   .     A
C81    N105    1.370   .     A
C81    O129    1.379   .     S
C82    N106    1.370   .     A
C82    O131    1.379   .     S
C82    C146    1.430   .     S
C83    O113    1.297   .     A
C83    C85     1.462   .     S
C83    O111    1.293   .     A
C84    C86     1.460   .     S
C84    O112    1.294   .     A
C84    O114    1.295   .     A
C85    C91     1.390   .     A
C85    C89     1.403   .     A
C86    C90     1.403   .     A
C86    C92     1.387   .     A
C87    C95     1.413   .     A
C87    O119    1.383   .     S
C87    C89     1.409   .     A
C88    O121    1.383   .     S
C88    C90     1.411   .     A
C88    C96     1.414   .     A
C89    F118    1.359   .     S
C90    F117    1.359   .     S
C91    C93     1.394   .     A
C91    H102    1.076   .     S
C92    C94     1.392   .     A
C92    H101    1.079   .     S
C93    C95     1.421   .     A
C93    C97     1.420   .     A
C94    C96     1.418   .     A
C94    C98     1.417   .     A
C95    C665    1.396   .     S
C96    C666    1.396   1_554 S
C97    C692    1.412   .     S
C98    C691    1.412   1_554 S
N105   Zn115   2.013   .     S
N106   Zn116   2.013   .     S
O107   Zn115   1.992   .     S
O108   Zn116   1.992   .     S
O109   Zn116   1.991   .     S
O110   Zn115   1.991   .     S
O111   Zn115   1.961   .     S
O112   Zn116   1.961   .     S
O113   Zn116   1.907   .     S
O114   Zn115   1.907   .     S
H120   O185    0.990   .     S
O121   H122    0.990   .     S
O129   H130    0.990   .     S
O131   H132    0.990   .     S
C133   O175    1.282   .     A
C133   O173    1.282   .     A
C133   C144    1.412   .     S
C134   C143    1.412   .     S
C134   O174    1.283   .     A
C134   O176    1.282   .     A
C135   C137    1.387   .     A
C135   C164    1.416   .     A
C135   H169    1.079   .     S
C136   C163    1.417   .     A
C136   H170    1.078   .     S
C136   C138    1.389   .     A
C137   H165    1.083   .     S
C137   C755    1.396   1_554 S
C138   H166    1.083   .     S
C138   C756    1.396   .     S
C139   C144    1.398   .     A
C139   F189    1.359   .     S
C139   C339    1.373   .     S
C140   C143    1.398   .     A
C140   F190    1.359   .     S
C140   C538    1.373   1_545 S
C141   C143    1.398   .     A
C141   F191    1.359   .     S
C141   C535    1.373   1_545 S
C142   F192    1.359   .     S
C142   C144    1.398   .     A
C142   C338    1.373   .     S
C145   F193    1.356   .     S
C145   N172    1.365   .     A
C145   C15     1.430   1_655 S
C146   F194    1.356   .     S
C146   N171    1.365   .     A
C147   N171    1.370   .     A
C147   O195    1.379   .     S
C148   N172    1.370   .     A
C148   O197    1.379   .     S
C148   C14     1.430   1_655 S
C149   O179    1.297   .     A
C149   C151    1.462   .     S
C149   O177    1.293   .     A
C150   C152    1.460   .     S
C150   O178    1.294   .     A
C150   O180    1.295   .     A
C151   C157    1.390   .     A
C151   C155    1.403   .     A
C152   C156    1.403   .     A
C152   C158    1.387   .     A
C153   C161    1.413   .     A
C153   O185    1.383   .     S
C153   C155    1.409   .     A
C154   O187    1.383   .     S
C154   C156    1.411   .     A
C154   C162    1.414   .     A
C155   F184    1.359   .     S
C156   F183    1.359   .     S
C157   C159    1.394   .     A
C157   H168    1.076   .     S
C158   C160    1.392   .     A
C158   H167    1.079   .     S
C159   C161    1.421   .     A
C159   C163    1.420   .     A
C160   C162    1.418   .     A
C160   C164    1.417   .     A
C161   C731    1.396   .     S
C162   C732    1.396   1_554 S
C163   C758    1.412   .     S
C164   C757    1.412   1_554 S
N171   Zn181   2.013   .     S
N172   Zn182   2.013   .     S
O173   Zn181   1.992   .     S
O174   Zn182   1.992   .     S
O175   Zn182   1.991   .     S
O176   Zn181   1.991   .     S
O177   Zn181   1.961   .     S
O178   Zn182   1.961   .     S
O179   Zn182   1.907   .     S
O180   Zn181   1.907   .     S
H186   O53     0.990   1_655 S
O187   H188    0.990   .     S
O195   H196    0.990   .     S
O197   H198    0.990   .     S
C199   O241    1.282   .     A
C199   O239    1.282   .     A
C199   C210    1.412   .     S
C200   C209    1.412   .     S
C200   O240    1.283   .     A
C200   O242    1.282   .     A
C201   C203    1.387   .     A
C201   C230    1.416   .     A
C201   H235    1.079   .     S
C202   C229    1.417   .     A
C202   H236    1.078   .     S
C202   C204    1.389   .     A
C203   H231    1.083   .     S
C203   C821    1.396   1_554 S
C204   H232    1.083   .     S
C204   C822    1.396   .     S
C205   C210    1.398   .     A
C205   F255    1.359   .     S
C205   C405    1.373   .     S
C206   C209    1.398   .     A
C206   F256    1.359   .     S
C207   C209    1.398   .     A
C207   F257    1.359   .     S
C208   F258    1.359   .     S
C208   C210    1.398   .     A
C208   C404    1.373   .     S
C211   F259    1.356   .     S
C211   N238    1.365   .     A
C211   C279    1.430   .     S
C212   F260    1.356   .     S
C212   N237    1.365   .     A
C212   C346    1.430   1_455 S
C213   N237    1.370   .     A
C213   O261    1.379   .     S
C213   C343    1.430   1_455 S
C214   N238    1.370   .     A
C214   O263    1.379   .     S
C214   C278    1.430   .     S
C215   O245    1.297   .     A
C215   C217    1.462   .     S
C215   O243    1.293   .     A
C216   C218    1.460   .     S
C216   O244    1.294   .     A
C216   O246    1.295   .     A
C217   C223    1.390   .     A
C217   C221    1.403   .     A
C218   C222    1.403   .     A
C218   C224    1.387   .     A
C219   C227    1.413   .     A
C219   O251    1.383   .     S
C219   C221    1.409   .     A
C220   O253    1.383   .     S
C220   C222    1.411   .     A
C220   C228    1.414   .     A
C221   F250    1.359   .     S
C222   F249    1.359   .     S
C223   C225    1.394   .     A
C223   H234    1.076   .     S
C224   C226    1.392   .     A
C224   H233    1.079   .     S
C225   C227    1.421   .     A
C225   C229    1.420   .     A
C226   C228    1.418   .     A
C226   C230    1.417   .     A
C227   C797    1.396   .     S
C228   C798    1.396   1_554 S
C229   C824    1.412   .     S
C230   C823    1.412   1_554 S
N237   Zn247   2.013   .     S
N238   Zn248   2.013   .     S
O239   Zn247   1.992   .     S
O240   Zn248   1.992   .     S
O241   Zn248   1.991   .     S
O242   Zn247   1.991   .     S
O243   Zn247   1.961   .     S
O244   Zn248   1.961   .     S
O245   Zn248   1.907   .     S
O246   Zn247   1.907   .     S
O251   H384    0.990   1_455 S
H252   O317    0.990   .     S
O253   H254    0.990   .     S
O261   H262    0.990   .     S
O263   H264    0.990   .     S
C265   O307    1.282   .     A
C265   O305    1.282   .     A
C265   C276    1.412   .     S
C266   C275    1.412   .     S
C266   O306    1.283   .     A
C266   O308    1.282   .     A
C267   C269    1.387   .     A
C267   C296    1.416   .     A
C267   H301    1.079   .     S
C268   C295    1.417   .     A
C268   H302    1.078   .     S
C268   C270    1.389   .     A
C269   H297    1.083   .     S
C269   C887    1.396   1_554 S
C270   H298    1.083   .     S
C270   C888    1.396   .     S
C271   C276    1.398   .     A
C271   F321    1.359   .     S
C271   C471    1.373   .     S
C272   C275    1.398   .     A
C272   F322    1.359   .     S
C273   C275    1.398   .     A
C273   F323    1.359   .     S
C274   F324    1.359   .     S
C274   C276    1.398   .     A
C274   C470    1.373   .     S
C277   F325    1.356   .     S
C277   N304    1.365   .     A
C277   C345    1.430   .     S
C278   F326    1.356   .     S
C278   N303    1.365   .     A
C279   N303    1.370   .     A
C279   O327    1.379   .     S
C280   N304    1.370   .     A
C280   O329    1.379   .     S
C280   C344    1.430   .     S
C281   O311    1.297   .     A
C281   C283    1.462   .     S
C281   O309    1.293   .     A
C282   C284    1.460   .     S
C282   O310    1.294   .     A
C282   O312    1.295   .     A
C283   C289    1.390   .     A
C283   C287    1.403   .     A
C284   C288    1.403   .     A
C284   C290    1.387   .     A
C285   C293    1.413   .     A
C285   O317    1.383   .     S
C285   C287    1.409   .     A
C286   O319    1.383   .     S
C286   C288    1.411   .     A
C286   C294    1.414   .     A
C287   F316    1.359   .     S
C288   F315    1.359   .     S
C289   C291    1.394   .     A
C289   H300    1.076   .     S
C290   C292    1.392   .     A
C290   H299    1.079   .     S
C291   C293    1.421   .     A
C291   C295    1.420   .     A
C292   C294    1.418   .     A
C292   C296    1.417   .     A
C293   C863    1.396   .     S
C294   C864    1.396   1_554 S
C295   C890    1.412   .     S
C296   C889    1.412   1_554 S
N303   Zn313   2.013   .     S
N304   Zn314   2.013   .     S
O305   Zn313   1.992   .     S
O306   Zn314   1.992   .     S
O307   Zn314   1.991   .     S
O308   Zn313   1.991   .     S
O309   Zn313   1.961   .     S
O310   Zn314   1.961   .     S
O311   Zn314   1.907   .     S
O312   Zn313   1.907   .     S
H318   O383    0.990   .     S
O319   H320    0.990   .     S
O327   H328    0.990   .     S
O329   H330    0.990   .     S
C331   O373    1.282   .     A
C331   O371    1.282   .     A
C331   C342    1.412   .     S
C332   C341    1.412   .     S
C332   O372    1.283   .     A
C332   O374    1.282   .     A
C333   C335    1.387   .     A
C333   C362    1.416   .     A
C333   H367    1.079   .     S
C334   C361    1.417   .     A
C334   H368    1.078   .     S
C334   C336    1.389   .     A
C335   H363    1.083   .     S
C335   C953    1.396   1_554 S
C336   H364    1.083   .     S
C336   C954    1.396   .     S
C337   C342    1.398   .     A
C337   F387    1.359   .     S
C337   C537    1.373   .     S
C338   C341    1.398   .     A
C338   F388    1.359   .     S
C339   C341    1.398   .     A
C339   F389    1.359   .     S
C340   F390    1.359   .     S
C340   C342    1.398   .     A
C340   C536    1.373   .     S
C343   F391    1.356   .     S
C343   N370    1.365   .     A
C343   C213    1.430   1_655 S
C344   F392    1.356   .     S
C344   N369    1.365   .     A
C345   N369    1.370   .     A
C345   O393    1.379   .     S
C346   N370    1.370   .     A
C346   O395    1.379   .     S
C346   C212    1.430   1_655 S
C347   O377    1.297   .     A
C347   C349    1.462   .     S
C347   O375    1.293   .     A
C348   C350    1.460   .     S
C348   O376    1.294   .     A
C348   O378    1.295   .     A
C349   C355    1.390   .     A
C349   C353    1.403   .     A
C350   C354    1.403   .     A
C350   C356    1.387   .     A
C351   C359    1.413   .     A
C351   O383    1.383   .     S
C351   C353    1.409   .     A
C352   O385    1.383   .     S
C352   C354    1.411   .     A
C352   C360    1.414   .     A
C353   F382    1.359   .     S
C354   F381    1.359   .     S
C355   C357    1.394   .     A
C355   H366    1.076   .     S
C356   C358    1.392   .     A
C356   H365    1.079   .     S
C357   C359    1.421   .     A
C357   C361    1.420   .     A
C358   C360    1.418   .     A
C358   C362    1.417   .     A
C359   C929    1.396   .     S
C360   C930    1.396   1_554 S
C361   C956    1.412   .     S
C362   C955    1.412   1_554 S
N369   Zn379   2.013   .     S
N370   Zn380   2.013   .     S
O371   Zn379   1.992   .     S
O372   Zn380   1.992   .     S
O373   Zn380   1.991   .     S
O374   Zn379   1.991   .     S
O375   Zn379   1.961   .     S
O376   Zn380   1.961   .     S
O377   Zn380   1.907   .     S
O378   Zn379   1.907   .     S
H384   O251    0.990   1_655 S
O385   H386    0.990   .     S
O393   H394    0.990   .     S
O395   H396    0.990   .     S
C397   O439    1.282   .     A
C397   O437    1.282   .     A
C397   C408    1.412   .     S
C398   C407    1.412   .     S
C398   O438    1.283   .     A
C398   O440    1.282   .     A
C399   C401    1.387   .     A
C399   C428    1.416   .     A
C399   H433    1.079   .     S
C400   C427    1.417   .     A
C400   H434    1.078   .     S
C400   C402    1.389   .     A
C401   H429    1.083   .     S
C401   C1019   1.396   1_554 S
C402   H430    1.083   .     S
C402   C1020   1.396   .     S
C403   C408    1.398   .     A
C403   F453    1.359   .     S
C403   C9      1.373   1_565 S
C404   C407    1.398   .     A
C404   F454    1.359   .     S
C405   C407    1.398   .     A
C405   F455    1.359   .     S
C406   F456    1.359   .     S
C406   C408    1.398   .     A
C406   C8      1.373   1_565 S
C409   F457    1.356   .     S
C409   N436    1.365   .     A
C409   C477    1.430   .     S
C410   F458    1.356   .     S
C410   N435    1.365   .     A
C410   C544    1.430   1_455 S
C411   N435    1.370   .     A
C411   O459    1.379   .     S
C411   C541    1.430   1_455 S
C412   N436    1.370   .     A
C412   O461    1.379   .     S
C412   C476    1.430   .     S
C413   O443    1.297   .     A
C413   C415    1.462   .     S
C413   O441    1.293   .     A
C414   C416    1.460   .     S
C414   O442    1.294   .     A
C414   O444    1.295   .     A
C415   C421    1.390   .     A
C415   C419    1.403   .     A
C416   C420    1.403   .     A
C416   C422    1.387   .     A
C417   C425    1.413   .     A
C417   O449    1.383   .     S
C417   C419    1.409   .     A
C418   O451    1.383   .     S
C418   C420    1.411   .     A
C418   C426    1.414   .     A
C419   F448    1.359   .     S
C420   F447    1.359   .     S
C421   C423    1.394   .     A
C421   H432    1.076   .     S
C422   C424    1.392   .     A
C422   H431    1.079   .     S
C423   C425    1.421   .     A
C423   C427    1.420   .     A
C424   C426    1.418   .     A
C424   C428    1.417   .     A
C425   C995    1.396   .     S
C426   C996    1.396   1_554 S
C427   C1022   1.412   .     S
C428   C1021   1.412   1_554 S
N435   Zn445   2.013   .     S
N436   Zn446   2.013   .     S
O437   Zn445   1.992   .     S
O438   Zn446   1.992   .     S
O439   Zn446   1.991   .     S
O440   Zn445   1.991   .     S
O441   Zn445   1.961   .     S
O442   Zn446   1.961   .     S
O443   Zn446   1.907   .     S
O444   Zn445   1.907   .     S
O449   H582    0.990   1_455 S
H450   O515    0.990   .     S
O451   H452    0.990   .     S
O459   H460    0.990   .     S
O461   H462    0.990   .     S
C463   O505    1.282   .     A
C463   O503    1.282   .     A
C463   C474    1.412   .     S
C464   C473    1.412   .     S
C464   O504    1.283   .     A
C464   O506    1.282   .     A
C465   C467    1.387   .     A
C465   C494    1.416   .     A
C465   H499    1.079   .     S
C466   C493    1.417   .     A
C466   H500    1.078   .     S
C466   C468    1.389   .     A
C467   H495    1.083   .     S
C467   C1085   1.396   1_554 S
C468   H496    1.083   .     S
C468   C1086   1.396   .     S
C469   C474    1.398   .     A
C469   F519    1.359   .     S
C469   C75     1.373   1_565 S
C470   C473    1.398   .     A
C470   F520    1.359   .     S
C471   C473    1.398   .     A
C471   F521    1.359   .     S
C472   F522    1.359   .     S
C472   C474    1.398   .     A
C472   C74     1.373   1_565 S
C475   F523    1.356   .     S
C475   N502    1.365   .     A
C475   C543    1.430   .     S
C476   F524    1.356   .     S
C476   N501    1.365   .     A
C477   N501    1.370   .     A
C477   O525    1.379   .     S
C478   N502    1.370   .     A
C478   O527    1.379   .     S
C478   C542    1.430   .     S
C479   O509    1.297   .     A
C479   C481    1.462   .     S
C479   O507    1.293   .     A
C480   C482    1.460   .     S
C480   O508    1.294   .     A
C480   O510    1.295   .     A
C481   C487    1.390   .     A
C481   C485    1.403   .     A
C482   C486    1.403   .     A
C482   C488    1.387   .     A
C483   C491    1.413   .     A
C483   O515    1.383   .     S
C483   C485    1.409   .     A
C484   O517    1.383   .     S
C484   C486    1.411   .     A
C484   C492    1.414   .     A
C485   F514    1.359   .     S
C486   F513    1.359   .     S
C487   C489    1.394   .     A
C487   H498    1.076   .     S
C488   C490    1.392   .     A
C488   H497    1.079   .     S
C489   C491    1.421   .     A
C489   C493    1.420   .     A
C490   C492    1.418   .     A
C490   C494    1.417   .     A
C491   C1061   1.396   .     S
C492   C1062   1.396   1_554 S
C493   C1088   1.412   .     S
C494   C1087   1.412   1_554 S
N501   Zn511   2.013   .     S
N502   Zn512   2.013   .     S
O503   Zn511   1.992   .     S
O504   Zn512   1.992   .     S
O505   Zn512   1.991   .     S
O506   Zn511   1.991   .     S
O507   Zn511   1.961   .     S
O508   Zn512   1.961   .     S
O509   Zn512   1.907   .     S
O510   Zn511   1.907   .     S
H516   O581    0.990   .     S
O517   H518    0.990   .     S
O525   H526    0.990   .     S
O527   H528    0.990   .     S
C529   O571    1.282   .     A
C529   O569    1.282   .     A
C529   C540    1.412   .     S
C530   C539    1.412   .     S
C530   O570    1.283   .     A
C530   O572    1.282   .     A
C531   C533    1.387   .     A
C531   C560    1.416   .     A
C531   H565    1.079   .     S
C532   C559    1.417   .     A
C532   H566    1.078   .     S
C532   C534    1.389   .     A
C533   H561    1.083   .     S
C533   C1151   1.396   1_554 S
C534   H562    1.083   .     S
C534   C1152   1.396   .     S
C535   C540    1.398   .     A
C535   F585    1.359   .     S
C535   C141    1.373   1_565 S
C536   C539    1.398   .     A
C536   F586    1.359   .     S
C537   C539    1.398   .     A
C537   F587    1.359   .     S
C538   F588    1.359   .     S
C538   C540    1.398   .     A
C538   C140    1.373   1_565 S
C541   F589    1.356   .     S
C541   N568    1.365   .     A
C541   C411    1.430   1_655 S
C542   F590    1.356   .     S
C542   N567    1.365   .     A
C543   N567    1.370   .     A
C543   O591    1.379   .     S
C544   N568    1.370   .     A
C544   O593    1.379   .     S
C544   C410    1.430   1_655 S
C545   O575    1.297   .     A
C545   C547    1.462   .     S
C545   O573    1.293   .     A
C546   C548    1.460   .     S
C546   O574    1.294   .     A
C546   O576    1.295   .     A
C547   C553    1.390   .     A
C547   C551    1.403   .     A
C548   C552    1.403   .     A
C548   C554    1.387   .     A
C549   C557    1.413   .     A
C549   O581    1.383   .     S
C549   C551    1.409   .     A
C550   O583    1.383   .     S
C550   C552    1.411   .     A
C550   C558    1.414   .     A
C551   F580    1.359   .     S
C552   F579    1.359   .     S
C553   C555    1.394   .     A
C553   H564    1.076   .     S
C554   C556    1.392   .     A
C554   H563    1.079   .     S
C555   C557    1.421   .     A
C555   C559    1.420   .     A
C556   C558    1.418   .     A
C556   C560    1.417   .     A
C557   C1127   1.396   .     S
C558   C1128   1.396   1_554 S
C559   C1154   1.412   .     S
C560   C1153   1.412   1_554 S
N567   Zn577   2.013   .     S
N568   Zn578   2.013   .     S
O569   Zn577   1.992   .     S
O570   Zn578   1.992   .     S
O571   Zn578   1.991   .     S
O572   Zn577   1.991   .     S
O573   Zn577   1.961   .     S
O574   Zn578   1.961   .     S
O575   Zn578   1.907   .     S
O576   Zn577   1.907   .     S
H582   O449    0.990   1_655 S
O583   H584    0.990   .     S
O591   H592    0.990   .     S
O593   H594    0.990   .     S
C595   O637    1.282   .     A
C595   O635    1.282   .     A
C595   C606    1.412   .     S
C596   C605    1.412   .     S
C596   O636    1.283   .     A
C596   O638    1.282   .     A
C597   C599    1.387   .     A
C597   C626    1.416   .     A
C597   H631    1.079   .     S
C598   C625    1.417   .     A
C598   H632    1.078   .     S
C598   C600    1.389   .     A
C599   H627    1.083   .     S
C600   H628    1.083   .     S
C600   C30     1.396   1_556 S
C601   C606    1.398   .     A
C601   F651    1.359   .     S
C601   C801    1.373   .     S
C602   C605    1.398   .     A
C602   F652    1.359   .     S
C602   C1000   1.373   1_545 S
C603   C605    1.398   .     A
C603   F653    1.359   .     S
C603   C997    1.373   1_545 S
C604   F654    1.359   .     S
C604   C606    1.398   .     A
C604   C800    1.373   .     S
C607   F655    1.356   .     S
C607   N634    1.365   .     A
C607   C675    1.430   .     S
C608   F656    1.356   .     S
C608   N633    1.365   .     A
C608   C742    1.430   1_455 S
C609   N633    1.370   .     A
C609   O657    1.379   .     S
C609   C739    1.430   1_455 S
C610   N634    1.370   .     A
C610   O659    1.379   .     S
C610   C674    1.430   .     S
C611   O641    1.297   .     A
C611   C613    1.462   .     S
C611   O639    1.293   .     A
C612   C614    1.460   .     S
C612   O640    1.294   .     A
C612   O642    1.295   .     A
C613   C619    1.390   .     A
C613   C617    1.403   .     A
C614   C618    1.403   .     A
C614   C620    1.387   .     A
C615   C623    1.413   .     A
C615   O647    1.383   .     S
C615   C617    1.409   .     A
C616   O649    1.383   .     S
C616   C618    1.411   .     A
C616   C624    1.414   .     A
C617   F646    1.359   .     S
C618   F645    1.359   .     S
C619   C621    1.394   .     A
C619   H630    1.076   .     S
C620   C622    1.392   .     A
C620   H629    1.079   .     S
C621   C623    1.421   .     A
C621   C625    1.420   .     A
C622   C624    1.418   .     A
C622   C626    1.417   .     A
C623   C5      1.396   1_556 S
C625   C32     1.412   1_556 S
N633   Zn643   2.013   .     S
N634   Zn644   2.013   .     S
O635   Zn643   1.992   .     S
O636   Zn644   1.992   .     S
O637   Zn644   1.991   .     S
O638   Zn643   1.991   .     S
O639   Zn643   1.961   .     S
O640   Zn644   1.961   .     S
O641   Zn644   1.907   .     S
O642   Zn643   1.907   .     S
O647   H780    0.990   1_455 S
H648   O713    0.990   .     S
O649   H650    0.990   .     S
O657   H658    0.990   .     S
O659   H660    0.990   .     S
C661   O703    1.282   .     A
C661   O701    1.282   .     A
C661   C672    1.412   .     S
C662   C671    1.412   .     S
C662   O702    1.283   .     A
C662   O704    1.282   .     A
C663   C665    1.387   .     A
C663   C692    1.416   .     A
C663   H697    1.079   .     S
C664   C691    1.417   .     A
C664   H698    1.078   .     S
C664   C666    1.389   .     A
C665   H693    1.083   .     S
C666   H694    1.083   .     S
C666   C96     1.396   1_556 S
C667   C672    1.398   .     A
C667   F717    1.359   .     S
C667   C867    1.373   .     S
C668   C671    1.398   .     A
C668   F718    1.359   .     S
C668   C1066   1.373   1_545 S
C669   C671    1.398   .     A
C669   F719    1.359   .     S
C669   C1063   1.373   1_545 S
C670   F720    1.359   .     S
C670   C672    1.398   .     A
C670   C866    1.373   .     S
C673   F721    1.356   .     S
C673   N700    1.365   .     A
C673   C741    1.430   .     S
C674   F722    1.356   .     S
C674   N699    1.365   .     A
C675   N699    1.370   .     A
C675   O723    1.379   .     S
C676   N700    1.370   .     A
C676   O725    1.379   .     S
C676   C740    1.430   .     S
C677   O707    1.297   .     A
C677   C679    1.462   .     S
C677   O705    1.293   .     A
C678   C680    1.460   .     S
C678   O706    1.294   .     A
C678   O708    1.295   .     A
C679   C685    1.390   .     A
C679   C683    1.403   .     A
C680   C684    1.403   .     A
C680   C686    1.387   .     A
C681   C689    1.413   .     A
C681   O713    1.383   .     S
C681   C683    1.409   .     A
C682   O715    1.383   .     S
C682   C684    1.411   .     A
C682   C690    1.414   .     A
C683   F712    1.359   .     S
C684   F711    1.359   .     S
C685   C687    1.394   .     A
C685   H696    1.076   .     S
C686   C688    1.392   .     A
C686   H695    1.079   .     S
C687   C689    1.421   .     A
C687   C691    1.420   .     A
C688   C690    1.418   .     A
C688   C692    1.417   .     A
C689   C71     1.396   1_556 S
C691   C98     1.412   1_556 S
N699   Zn709   2.013   .     S
N700   Zn710   2.013   .     S
O701   Zn709   1.992   .     S
O702   Zn710   1.992   .     S
O703   Zn710   1.991   .     S
O704   Zn709   1.991   .     S
O705   Zn709   1.961   .     S
O706   Zn710   1.961   .     S
O707   Zn710   1.907   .     S
O708   Zn709   1.907   .     S
H714   O779    0.990   .     S
O715   H716    0.990   .     S
O723   H724    0.990   .     S
O725   H726    0.990   .     S
C727   O769    1.282   .     A
C727   O767    1.282   .     A
C727   C738    1.412   .     S
C728   C737    1.412   .     S
C728   O768    1.283   .     A
C728   O770    1.282   .     A
C729   C731    1.387   .     A
C729   C758    1.416   .     A
C729   H763    1.079   .     S
C730   C757    1.417   .     A
C730   H764    1.078   .     S
C730   C732    1.389   .     A
C731   H759    1.083   .     S
C732   H760    1.083   .     S
C732   C162    1.396   1_556 S
C733   C738    1.398   .     A
C733   F783    1.359   .     S
C733   C933    1.373   .     S
C734   C737    1.398   .     A
C734   F784    1.359   .     S
C734   C1132   1.373   1_545 S
C735   C737    1.398   .     A
C735   F785    1.359   .     S
C735   C1129   1.373   1_545 S
C736   F786    1.359   .     S
C736   C738    1.398   .     A
C736   C932    1.373   .     S
C739   F787    1.356   .     S
C739   N766    1.365   .     A
C739   C609    1.430   1_655 S
C740   F788    1.356   .     S
C740   N765    1.365   .     A
C741   N765    1.370   .     A
C741   O789    1.379   .     S
C742   N766    1.370   .     A
C742   O791    1.379   .     S
C742   C608    1.430   1_655 S
C743   O773    1.297   .     A
C743   C745    1.462   .     S
C743   O771    1.293   .     A
C744   C746    1.460   .     S
C744   O772    1.294   .     A
C744   O774    1.295   .     A
C745   C751    1.390   .     A
C745   C749    1.403   .     A
C746   C750    1.403   .     A
C746   C752    1.387   .     A
C747   C755    1.413   .     A
C747   O779    1.383   .     S
C747   C749    1.409   .     A
C748   O781    1.383   .     S
C748   C750    1.411   .     A
C748   C756    1.414   .     A
C749   F778    1.359   .     S
C750   F777    1.359   .     S
C751   C753    1.394   .     A
C751   H762    1.076   .     S
C752   C754    1.392   .     A
C752   H761    1.079   .     S
C753   C755    1.421   .     A
C753   C757    1.420   .     A
C754   C756    1.418   .     A
C754   C758    1.417   .     A
C755   C137    1.396   1_556 S
C757   C164    1.412   1_556 S
N765   Zn775   2.013   .     S
N766   Zn776   2.013   .     S
O767   Zn775   1.992   .     S
O768   Zn776   1.992   .     S
O769   Zn776   1.991   .     S
O770   Zn775   1.991   .     S
O771   Zn775   1.961   .     S
O772   Zn776   1.961   .     S
O773   Zn776   1.907   .     S
O774   Zn775   1.907   .     S
H780   O647    0.990   1_655 S
O781   H782    0.990   .     S
O789   H790    0.990   .     S
O791   H792    0.990   .     S
C793   O835    1.282   .     A
C793   O833    1.282   .     A
C793   C804    1.412   .     S
C794   C803    1.412   .     S
C794   O834    1.283   .     A
C794   O836    1.282   .     A
C795   C797    1.387   .     A
C795   C824    1.416   .     A
C795   H829    1.079   .     S
C796   C823    1.417   .     A
C796   H830    1.078   .     S
C796   C798    1.389   .     A
C797   H825    1.083   .     S
C798   H826    1.083   .     S
C798   C228    1.396   1_556 S
C799   C804    1.398   .     A
C799   F849    1.359   .     S
C799   C999    1.373   .     S
C800   C803    1.398   .     A
C800   F850    1.359   .     S
C801   C803    1.398   .     A
C801   F851    1.359   .     S
C802   F852    1.359   .     S
C802   C804    1.398   .     A
C802   C998    1.373   .     S
C805   F853    1.356   .     S
C805   N832    1.365   .     A
C805   C873    1.430   .     S
C806   F854    1.356   .     S
C806   N831    1.365   .     A
C806   C940    1.430   1_455 S
C807   N831    1.370   .     A
C807   O855    1.379   .     S
C807   C937    1.430   1_455 S
C808   N832    1.370   .     A
C808   O857    1.379   .     S
C808   C872    1.430   .     S
C809   O839    1.297   .     A
C809   C811    1.462   .     S
C809   O837    1.293   .     A
C810   C812    1.460   .     S
C810   O838    1.294   .     A
C810   O840    1.295   .     A
C811   C817    1.390   .     A
C811   C815    1.403   .     A
C812   C816    1.403   .     A
C812   C818    1.387   .     A
C813   C821    1.413   .     A
C813   O845    1.383   .     S
C813   C815    1.409   .     A
C814   O847    1.383   .     S
C814   C816    1.411   .     A
C814   C822    1.414   .     A
C815   F844    1.359   .     S
C816   F843    1.359   .     S
C817   C819    1.394   .     A
C817   H828    1.076   .     S
C818   C820    1.392   .     A
C818   H827    1.079   .     S
C819   C821    1.421   .     A
C819   C823    1.420   .     A
C820   C822    1.418   .     A
C820   C824    1.417   .     A
C821   C203    1.396   1_556 S
C823   C230    1.412   1_556 S
N831   Zn841   2.013   .     S
N832   Zn842   2.013   .     S
O833   Zn841   1.992   .     S
O834   Zn842   1.992   .     S
O835   Zn842   1.991   .     S
O836   Zn841   1.991   .     S
O837   Zn841   1.961   .     S
O838   Zn842   1.961   .     S
O839   Zn842   1.907   .     S
O840   Zn841   1.907   .     S
O845   H978    0.990   1_455 S
H846   O911    0.990   .     S
O847   H848    0.990   .     S
O855   H856    0.990   .     S
O857   H858    0.990   .     S
C859   O901    1.282   .     A
C859   O899    1.282   .     A
C859   C870    1.412   .     S
C860   C869    1.412   .     S
C860   O900    1.283   .     A
C860   O902    1.282   .     A
C861   C863    1.387   .     A
C861   C890    1.416   .     A
C861   H895    1.079   .     S
C862   C889    1.417   .     A
C862   H896    1.078   .     S
C862   C864    1.389   .     A
C863   H891    1.083   .     S
C864   H892    1.083   .     S
C864   C294    1.396   1_556 S
C865   C870    1.398   .     A
C865   F915    1.359   .     S
C865   C1065   1.373   .     S
C866   C869    1.398   .     A
C866   F916    1.359   .     S
C867   C869    1.398   .     A
C867   F917    1.359   .     S
C868   F918    1.359   .     S
C868   C870    1.398   .     A
C868   C1064   1.373   .     S
C871   F919    1.356   .     S
C871   N898    1.365   .     A
C871   C939    1.430   .     S
C872   F920    1.356   .     S
C872   N897    1.365   .     A
C873   N897    1.370   .     A
C873   O921    1.379   .     S
C874   N898    1.370   .     A
C874   O923    1.379   .     S
C874   C938    1.430   .     S
C875   O905    1.297   .     A
C875   C877    1.462   .     S
C875   O903    1.293   .     A
C876   C878    1.460   .     S
C876   O904    1.294   .     A
C876   O906    1.295   .     A
C877   C883    1.390   .     A
C877   C881    1.403   .     A
C878   C882    1.403   .     A
C878   C884    1.387   .     A
C879   C887    1.413   .     A
C879   O911    1.383   .     S
C879   C881    1.409   .     A
C880   O913    1.383   .     S
C880   C882    1.411   .     A
C880   C888    1.414   .     A
C881   F910    1.359   .     S
C882   F909    1.359   .     S
C883   C885    1.394   .     A
C883   H894    1.076   .     S
C884   C886    1.392   .     A
C884   H893    1.079   .     S
C885   C887    1.421   .     A
C885   C889    1.420   .     A
C886   C888    1.418   .     A
C886   C890    1.417   .     A
C887   C269    1.396   1_556 S
C889   C296    1.412   1_556 S
N897   Zn907   2.013   .     S
N898   Zn908   2.013   .     S
O899   Zn907   1.992   .     S
O900   Zn908   1.992   .     S
O901   Zn908   1.991   .     S
O902   Zn907   1.991   .     S
O903   Zn907   1.961   .     S
O904   Zn908   1.961   .     S
O905   Zn908   1.907   .     S
O906   Zn907   1.907   .     S
H912   O977    0.990   .     S
O913   H914    0.990   .     S
O921   H922    0.990   .     S
O923   H924    0.990   .     S
C925   O967    1.282   .     A
C925   O965    1.282   .     A
C925   C936    1.412   .     S
C926   C935    1.412   .     S
C926   O966    1.283   .     A
C926   O968    1.282   .     A
C927   C929    1.387   .     A
C927   C956    1.416   .     A
C927   H961    1.079   .     S
C928   C955    1.417   .     A
C928   H962    1.078   .     S
C928   C930    1.389   .     A
C929   H957    1.083   .     S
C930   H958    1.083   .     S
C930   C360    1.396   1_556 S
C931   C936    1.398   .     A
C931   F981    1.359   .     S
C931   C1131   1.373   .     S
C932   C935    1.398   .     A
C932   F982    1.359   .     S
C933   C935    1.398   .     A
C933   F983    1.359   .     S
C934   F984    1.359   .     S
C934   C936    1.398   .     A
C934   C1130   1.373   .     S
C937   F985    1.356   .     S
C937   N964    1.365   .     A
C937   C807    1.430   1_655 S
C938   F986    1.356   .     S
C938   N963    1.365   .     A
C939   N963    1.370   .     A
C939   O987    1.379   .     S
C940   N964    1.370   .     A
C940   O989    1.379   .     S
C940   C806    1.430   1_655 S
C941   O971    1.297   .     A
C941   C943    1.462   .     S
C941   O969    1.293   .     A
C942   C944    1.460   .     S
C942   O970    1.294   .     A
C942   O972    1.295   .     A
C943   C949    1.390   .     A
C943   C947    1.403   .     A
C944   C948    1.403   .     A
C944   C950    1.387   .     A
C945   C953    1.413   .     A
C945   O977    1.383   .     S
C945   C947    1.409   .     A
C946   O979    1.383   .     S
C946   C948    1.411   .     A
C946   C954    1.414   .     A
C947   F976    1.359   .     S
C948   F975    1.359   .     S
C949   C951    1.394   .     A
C949   H960    1.076   .     S
C950   C952    1.392   .     A
C950   H959    1.079   .     S
C951   C953    1.421   .     A
C951   C955    1.420   .     A
C952   C954    1.418   .     A
C952   C956    1.417   .     A
C953   C335    1.396   1_556 S
C955   C362    1.412   1_556 S
N963   Zn973   2.013   .     S
N964   Zn974   2.013   .     S
O965   Zn973   1.992   .     S
O966   Zn974   1.992   .     S
O967   Zn974   1.991   .     S
O968   Zn973   1.991   .     S
O969   Zn973   1.961   .     S
O970   Zn974   1.961   .     S
O971   Zn974   1.907   .     S
O972   Zn973   1.907   .     S
H978   O845    0.990   1_655 S
O979   H980    0.990   .     S
O987   H988    0.990   .     S
O989   H990    0.990   .     S
C991   O1033   1.282   .     A
C991   O1031   1.282   .     A
C991   C1002   1.412   .     S
C992   C1001   1.412   .     S
C992   O1032   1.283   .     A
C992   O1034   1.282   .     A
C993   C995    1.387   .     A
C993   C1022   1.416   .     A
C993   H1027   1.079   .     S
C994   C1021   1.417   .     A
C994   H1028   1.078   .     S
C994   C996    1.389   .     A
C995   H1023   1.083   .     S
C996   H1024   1.083   .     S
C996   C426    1.396   1_556 S
C997   C1002   1.398   .     A
C997   F1047   1.359   .     S
C997   C603    1.373   1_565 S
C998   C1001   1.398   .     A
C998   F1048   1.359   .     S
C999   C1001   1.398   .     A
C999   F1049   1.359   .     S
C1000  F1050   1.359   .     S
C1000  C1002   1.398   .     A
C1000  C602    1.373   1_565 S
C1003  F1051   1.356   .     S
C1003  N1030   1.365   .     A
C1003  C1071   1.430   .     S
C1004  F1052   1.356   .     S
C1004  N1029   1.365   .     A
C1004  C1138   1.430   1_455 S
C1005  N1029   1.370   .     A
C1005  O1053   1.379   .     S
C1005  C1135   1.430   1_455 S
C1006  N1030   1.370   .     A
C1006  O1055   1.379   .     S
C1006  C1070   1.430   .     S
C1007  O1037   1.297   .     A
C1007  C1009   1.462   .     S
C1007  O1035   1.293   .     A
C1008  C1010   1.460   .     S
C1008  O1036   1.294   .     A
C1008  O1038   1.295   .     A
C1009  C1015   1.390   .     A
C1009  C1013   1.403   .     A
C1010  C1014   1.403   .     A
C1010  C1016   1.387   .     A
C1011  C1019   1.413   .     A
C1011  O1043   1.383   .     S
C1011  C1013   1.409   .     A
C1012  O1045   1.383   .     S
C1012  C1014   1.411   .     A
C1012  C1020   1.414   .     A
C1013  F1042   1.359   .     S
C1014  F1041   1.359   .     S
C1015  C1017   1.394   .     A
C1015  H1026   1.076   .     S
C1016  C1018   1.392   .     A
C1016  H1025   1.079   .     S
C1017  C1019   1.421   .     A
C1017  C1021   1.420   .     A
C1018  C1020   1.418   .     A
C1018  C1022   1.417   .     A
C1019  C401    1.396   1_556 S
C1021  C428    1.412   1_556 S
N1029  Zn1039  2.013   .     S
N1030  Zn1040  2.013   .     S
O1031  Zn1039  1.992   .     S
O1032  Zn1040  1.992   .     S
O1033  Zn1040  1.991   .     S
O1034  Zn1039  1.991   .     S
O1035  Zn1039  1.961   .     S
O1036  Zn1040  1.961   .     S
O1037  Zn1040  1.907   .     S
O1038  Zn1039  1.907   .     S
O1043  H1176   0.990   1_455 S
H1044  O1109   0.990   .     S
O1045  H1046   0.990   .     S
O1053  H1054   0.990   .     S
O1055  H1056   0.990   .     S
C1057  O1099   1.282   .     A
C1057  O1097   1.282   .     A
C1057  C1068   1.412   .     S
C1058  C1067   1.412   .     S
C1058  O1098   1.283   .     A
C1058  O1100   1.282   .     A
C1059  C1061   1.387   .     A
C1059  C1088   1.416   .     A
C1059  H1093   1.079   .     S
C1060  C1087   1.417   .     A
C1060  H1094   1.078   .     S
C1060  C1062   1.389   .     A
C1061  H1089   1.083   .     S
C1062  H1090   1.083   .     S
C1062  C492    1.396   1_556 S
C1063  C1068   1.398   .     A
C1063  F1113   1.359   .     S
C1063  C669    1.373   1_565 S
C1064  C1067   1.398   .     A
C1064  F1114   1.359   .     S
C1065  C1067   1.398   .     A
C1065  F1115   1.359   .     S
C1066  F1116   1.359   .     S
C1066  C1068   1.398   .     A
C1066  C668    1.373   1_565 S
C1069  F1117   1.356   .     S
C1069  N1096   1.365   .     A
C1069  C1137   1.430   .     S
C1070  F1118   1.356   .     S
C1070  N1095   1.365   .     A
C1071  N1095   1.370   .     A
C1071  O1119   1.379   .     S
C1072  N1096   1.370   .     A
C1072  O1121   1.379   .     S
C1072  C1136   1.430   .     S
C1073  O1103   1.297   .     A
C1073  C1075   1.462   .     S
C1073  O1101   1.293   .     A
C1074  C1076   1.460   .     S
C1074  O1102   1.294   .     A
C1074  O1104   1.295   .     A
C1075  C1081   1.390   .     A
C1075  C1079   1.403   .     A
C1076  C1080   1.403   .     A
C1076  C1082   1.387   .     A
C1077  C1085   1.413   .     A
C1077  O1109   1.383   .     S
C1077  C1079   1.409   .     A
C1078  O1111   1.383   .     S
C1078  C1080   1.411   .     A
C1078  C1086   1.414   .     A
C1079  F1108   1.359   .     S
C1080  F1107   1.359   .     S
C1081  C1083   1.394   .     A
C1081  H1092   1.076   .     S
C1082  C1084   1.392   .     A
C1082  H1091   1.079   .     S
C1083  C1085   1.421   .     A
C1083  C1087   1.420   .     A
C1084  C1086   1.418   .     A
C1084  C1088   1.417   .     A
C1085  C467    1.396   1_556 S
C1087  C494    1.412   1_556 S
N1095  Zn1105  2.013   .     S
N1096  Zn1106  2.013   .     S
O1097  Zn1105  1.992   .     S
O1098  Zn1106  1.992   .     S
O1099  Zn1106  1.991   .     S
O1100  Zn1105  1.991   .     S
O1101  Zn1105  1.961   .     S
O1102  Zn1106  1.961   .     S
O1103  Zn1106  1.907   .     S
O1104  Zn1105  1.907   .     S
H1110  O1175   0.990   .     S
O1111  H1112   0.990   .     S
O1119  H1120   0.990   .     S
O1121  H1122   0.990   .     S
C1123  O1165   1.282   .     A
C1123  O1163   1.282   .     A
C1123  C1134   1.412   .     S
C1124  C1133   1.412   .     S
C1124  O1164   1.283   .     A
C1124  O1166   1.282   .     A
C1125  C1127   1.387   .     A
C1125  C1154   1.416   .     A
C1125  H1159   1.079   .     S
C1126  C1153   1.417   .     A
C1126  H1160   1.078   .     S
C1126  C1128   1.389   .     A
C1127  H1155   1.083   .     S
C1128  H1156   1.083   .     S
C1128  C558    1.396   1_556 S
C1129  C1134   1.398   .     A
C1129  F1179   1.359   .     S
C1129  C735    1.373   1_565 S
C1130  C1133   1.398   .     A
C1130  F1180   1.359   .     S
C1131  C1133   1.398   .     A
C1131  F1181   1.359   .     S
C1132  F1182   1.359   .     S
C1132  C1134   1.398   .     A
C1132  C734    1.373   1_565 S
C1135  F1183   1.356   .     S
C1135  N1162   1.365   .     A
C1135  C1005   1.430   1_655 S
C1136  F1184   1.356   .     S
C1136  N1161   1.365   .     A
C1137  N1161   1.370   .     A
C1137  O1185   1.379   .     S
C1138  N1162   1.370   .     A
C1138  O1187   1.379   .     S
C1138  C1004   1.430   1_655 S
C1139  O1169   1.297   .     A
C1139  C1141   1.462   .     S
C1139  O1167   1.293   .     A
C1140  C1142   1.460   .     S
C1140  O1168   1.294   .     A
C1140  O1170   1.295   .     A
C1141  C1147   1.390   .     A
C1141  C1145   1.403   .     A
C1142  C1146   1.403   .     A
C1142  C1148   1.387   .     A
C1143  C1151   1.413   .     A
C1143  O1175   1.383   .     S
C1143  C1145   1.409   .     A
C1144  O1177   1.383   .     S
C1144  C1146   1.411   .     A
C1144  C1152   1.414   .     A
C1145  F1174   1.359   .     S
C1146  F1173   1.359   .     S
C1147  C1149   1.394   .     A
C1147  H1158   1.076   .     S
C1148  C1150   1.392   .     A
C1148  H1157   1.079   .     S
C1149  C1151   1.421   .     A
C1149  C1153   1.420   .     A
C1150  C1152   1.418   .     A
C1150  C1154   1.417   .     A
C1151  C533    1.396   1_556 S
C1153  C560    1.412   1_556 S
N1161  Zn1171  2.013   .     S
N1162  Zn1172  2.013   .     S
O1163  Zn1171  1.992   .     S
O1164  Zn1172  1.992   .     S
O1165  Zn1172  1.991   .     S
O1166  Zn1171  1.991   .     S
O1167  Zn1171  1.961   .     S
O1168  Zn1172  1.961   .     S
O1169  Zn1172  1.907   .     S
O1170  Zn1171  1.907   .     S
H1176  O1043   0.990   1_655 S
O1177  H1178   0.990   .     S
O1185  H1186   0.990   .     S
O1187  H1188   0.990   .     S
