data_str_m3_o2_o5_pcu_sym.6
_audit_creation_date              2020-01-03
_audit_creation_method            'Materials Studio'
_symmetry_space_group_name_H-M    'P1'
_symmetry_Int_Tables_number       1
_symmetry_cell_setting            triclinic
loop_
_symmetry_equiv_pos_as_xyz
  x,y,z
_cell_length_a                    29.9971
_cell_length_b                    28.8591
_cell_length_c                    26.6905
_cell_angle_alpha                 90.0030
_cell_angle_beta                  92.3975
_cell_angle_gamma                 89.9989
loop_
_atom_site_label
_atom_site_type_symbol
_atom_site_fract_x
_atom_site_fract_y
_atom_site_fract_z
_atom_site_U_iso_or_equiv
_atom_site_adp_type
_atom_site_occupancy
C1     C     0.16409   0.25001   0.16650   0.00000  Uiso   1.00
C2     C     0.22154   0.44764   0.13427   0.00000  Uiso   1.00
C3     C     0.24988   0.25001   0.07305   0.00000  Uiso   1.00
C4     C     0.25012   0.25001   0.26028   0.00000  Uiso   1.00
C5     C     0.25000   0.02552   0.16666   0.00000  Uiso   1.00
C6     C     0.25000   0.47302   0.16666   0.00000  Uiso   1.00
C7     C     0.24996   0.25004   0.02184   0.00000  Uiso   1.00
C8     C     0.25004   0.25004   0.31150   0.00000  Uiso   1.00
C9     C     0.04775   0.28922   0.18348   0.00000  Uiso   1.00
C10    C     0.45363   0.21130   0.18423   0.00000  Uiso   1.00
C11    C     0.45214   0.28903   0.14886   0.00000  Uiso   1.00
C12    C     0.33590   0.25001   0.16680   0.00000  Uiso   1.00
C13    C     0.04640   0.21117   0.14894   0.00000  Uiso   1.00
C14    C     0.09377   0.28927   0.18325   0.00000  Uiso   1.00
C15    C     0.40760   0.21112   0.18411   0.00000  Uiso   1.00
C16    C     0.40613   0.28909   0.14931   0.00000  Uiso   1.00
C17    C     0.09244   0.21098   0.14928   0.00000  Uiso   1.00
C18    C     0.11613   0.25007   0.16634   0.00000  Uiso   1.00
C19    C     0.38385   0.25007   0.16676   0.00000  Uiso   1.00
C20    C     0.02405   0.25021   0.16624   0.00000  Uiso   1.00
C21    C     0.47590   0.25018   0.16643   0.00000  Uiso   1.00
C22    C     0.23737   0.12010   0.07025   0.00000  Uiso   1.00
C23    C     0.24353   0.10009   0.12248   0.00000  Uiso   1.00
C24    C     0.19047   0.13955   0.06008   0.00000  Uiso   1.00
C25    C     0.30904   0.37574   0.23793   0.00000  Uiso   1.00
C26    C     0.29229   0.38227   0.29051   0.00000  Uiso   1.00
C27    C     0.26264   0.12011   0.26308   0.00000  Uiso   1.00
C28    C     0.30954   0.13956   0.27324   0.00000  Uiso   1.00
C29    C     0.19096   0.37573   0.09540   0.00000  Uiso   1.00
C30    C     0.20771   0.38224   0.04283   0.00000  Uiso   1.00
C31    C     0.27798   0.39858   0.19948   0.00000  Uiso   1.00
C32    C     0.25647   0.10009   0.21085   0.00000  Uiso   1.00
C33    C     0.22203   0.39858   0.13385   0.00000  Uiso   1.00
C34    C     0.24318   0.05084   0.12295   0.00000  Uiso   1.00
C35    C     0.27846   0.44764   0.19906   0.00000  Uiso   1.00
C36    C     0.25682   0.05084   0.21037   0.00000  Uiso   1.00
H37    H     0.03070   0.31932   0.19758   0.00000  Uiso   1.00
H38    H     0.30166   0.46593   0.22418   0.00000  Uiso   1.00
H39    H     0.26160   0.03170   0.24510   0.00000  Uiso   1.00
H40    H     0.19835   0.46593   0.10914   0.00000  Uiso   1.00
H41    H     0.16586   0.11077   0.05828   0.00000  Uiso   1.00
H42    H     0.18075   0.16365   0.08980   0.00000  Uiso   1.00
H43    H     0.18896   0.15806   0.02358   0.00000  Uiso   1.00
H44    H     0.26533   0.14293   0.06109   0.00000  Uiso   1.00
H45    H     0.24099   0.09275   0.04148   0.00000  Uiso   1.00
H46    H     0.25776   0.36872   0.29157   0.00000  Uiso   1.00
H47    H     0.31392   0.36281   0.31796   0.00000  Uiso   1.00
H48    H     0.47183   0.18136   0.19859   0.00000  Uiso   1.00
H49    H     0.29257   0.41945   0.30127   0.00000  Uiso   1.00
H50    H     0.31278   0.33865   0.23192   0.00000  Uiso   1.00
H51    H     0.34300   0.39088   0.23593   0.00000  Uiso   1.00
H52    H     0.33415   0.11078   0.27502   0.00000  Uiso   1.00
H53    H     0.31925   0.16366   0.24353   0.00000  Uiso   1.00
H54    H     0.31106   0.15805   0.30975   0.00000  Uiso   1.00
H55    H     0.23468   0.14294   0.27226   0.00000  Uiso   1.00
H56    H     0.25902   0.09275   0.29186   0.00000  Uiso   1.00
H57    H     0.24223   0.36867   0.04176   0.00000  Uiso   1.00
H58    H     0.18607   0.36279   0.01537   0.00000  Uiso   1.00
H59    H     0.46913   0.31900   0.13438   0.00000  Uiso   1.00
H60    H     0.20745   0.41941   0.03206   0.00000  Uiso   1.00
H61    H     0.18721   0.33865   0.10142   0.00000  Uiso   1.00
H62    H     0.15700   0.39088   0.09740   0.00000  Uiso   1.00
H63    H     0.02825   0.18110   0.13486   0.00000  Uiso   1.00
H64    H     0.11180   0.31957   0.19692   0.00000  Uiso   1.00
H65    H     0.39071   0.18089   0.19809   0.00000  Uiso   1.00
H66    H     0.38804   0.31927   0.13540   0.00000  Uiso   1.00
H67    H     0.10938   0.18061   0.13570   0.00000  Uiso   1.00
H68    H     0.23840   0.03169   0.08823   0.00000  Uiso   1.00
N69    N     0.25000   0.12623   0.16667   0.00000  Uiso   1.00
N70    N     0.25000   0.37376   0.16667   0.00000  Uiso   1.00
O71    O     0.18453   0.28974   0.16667   0.00000  Uiso   1.00
O72    O     0.31547   0.21026   0.16666   0.00000  Uiso   1.00
O73    O     0.31547   0.28974   0.16666   0.00000  Uiso   1.00
O74    O     0.18453   0.21026   0.16667   0.00000  Uiso   1.00
O75    O     0.25000   0.28973   0.09511   0.00000  Uiso   1.00
O76    O     0.25000   0.21027   0.23822   0.00000  Uiso   1.00
O77    O     0.25000   0.28973   0.23822   0.00000  Uiso   1.00
O78    O     0.25000   0.21027   0.09511   0.00000  Uiso   1.00
Zn79   Zn    0.25000   0.30307   0.16667   0.00000  Uiso   1.00
Zn80   Zn    0.25000   0.19693   0.16667   0.00000  Uiso   1.00
C81    C     0.66409   0.25001   0.16650   0.00000  Uiso   1.00
C82    C     0.72154   0.44764   0.13427   0.00000  Uiso   1.00
C83    C     0.74988   0.25001   0.07305   0.00000  Uiso   1.00
C84    C     0.75012   0.25001   0.26028   0.00000  Uiso   1.00
C85    C     0.75000   0.02552   0.16666   0.00000  Uiso   1.00
C86    C     0.75000   0.47302   0.16666   0.00000  Uiso   1.00
C87    C     0.74996   0.25004   0.02184   0.00000  Uiso   1.00
C88    C     0.75004   0.25004   0.31150   0.00000  Uiso   1.00
C89    C     0.54775   0.28922   0.18348   0.00000  Uiso   1.00
C90    C     0.95363   0.21130   0.18423   0.00000  Uiso   1.00
C91    C     0.95214   0.28903   0.14886   0.00000  Uiso   1.00
C92    C     0.83590   0.25001   0.16680   0.00000  Uiso   1.00
C93    C     0.54640   0.21117   0.14894   0.00000  Uiso   1.00
C94    C     0.59377   0.28927   0.18325   0.00000  Uiso   1.00
C95    C     0.90760   0.21112   0.18411   0.00000  Uiso   1.00
C96    C     0.90613   0.28909   0.14931   0.00000  Uiso   1.00
C97    C     0.59244   0.21098   0.14928   0.00000  Uiso   1.00
C98    C     0.61613   0.25007   0.16634   0.00000  Uiso   1.00
C99    C     0.88385   0.25007   0.16676   0.00000  Uiso   1.00
C100   C     0.52405   0.25021   0.16624   0.00000  Uiso   1.00
C101   C     0.97590   0.25018   0.16643   0.00000  Uiso   1.00
C102   C     0.73737   0.12010   0.07025   0.00000  Uiso   1.00
C103   C     0.74353   0.10009   0.12248   0.00000  Uiso   1.00
C104   C     0.69047   0.13955   0.06008   0.00000  Uiso   1.00
C105   C     0.80904   0.37574   0.23793   0.00000  Uiso   1.00
C106   C     0.79229   0.38227   0.29051   0.00000  Uiso   1.00
C107   C     0.76264   0.12011   0.26308   0.00000  Uiso   1.00
C108   C     0.80954   0.13956   0.27324   0.00000  Uiso   1.00
C109   C     0.69096   0.37573   0.09540   0.00000  Uiso   1.00
C110   C     0.70771   0.38224   0.04283   0.00000  Uiso   1.00
C111   C     0.77798   0.39858   0.19948   0.00000  Uiso   1.00
C112   C     0.75647   0.10009   0.21085   0.00000  Uiso   1.00
C113   C     0.72203   0.39858   0.13385   0.00000  Uiso   1.00
C114   C     0.74318   0.05084   0.12295   0.00000  Uiso   1.00
C115   C     0.77846   0.44764   0.19906   0.00000  Uiso   1.00
C116   C     0.75682   0.05084   0.21037   0.00000  Uiso   1.00
H117   H     0.53070   0.31932   0.19758   0.00000  Uiso   1.00
H118   H     0.80166   0.46593   0.22418   0.00000  Uiso   1.00
H119   H     0.76160   0.03170   0.24510   0.00000  Uiso   1.00
H120   H     0.69835   0.46593   0.10914   0.00000  Uiso   1.00
H121   H     0.66586   0.11077   0.05828   0.00000  Uiso   1.00
H122   H     0.68075   0.16365   0.08980   0.00000  Uiso   1.00
H123   H     0.68896   0.15806   0.02358   0.00000  Uiso   1.00
H124   H     0.76533   0.14293   0.06109   0.00000  Uiso   1.00
H125   H     0.74099   0.09275   0.04148   0.00000  Uiso   1.00
H126   H     0.75776   0.36872   0.29157   0.00000  Uiso   1.00
H127   H     0.81392   0.36281   0.31796   0.00000  Uiso   1.00
H128   H     0.97183   0.18136   0.19859   0.00000  Uiso   1.00
H129   H     0.79257   0.41945   0.30127   0.00000  Uiso   1.00
H130   H     0.81278   0.33865   0.23192   0.00000  Uiso   1.00
H131   H     0.84300   0.39088   0.23593   0.00000  Uiso   1.00
H132   H     0.83415   0.11078   0.27502   0.00000  Uiso   1.00
H133   H     0.81925   0.16366   0.24353   0.00000  Uiso   1.00
H134   H     0.81106   0.15805   0.30975   0.00000  Uiso   1.00
H135   H     0.73468   0.14294   0.27226   0.00000  Uiso   1.00
H136   H     0.75902   0.09275   0.29186   0.00000  Uiso   1.00
H137   H     0.74223   0.36867   0.04176   0.00000  Uiso   1.00
H138   H     0.68607   0.36279   0.01537   0.00000  Uiso   1.00
H139   H     0.96913   0.31900   0.13438   0.00000  Uiso   1.00
H140   H     0.70745   0.41941   0.03206   0.00000  Uiso   1.00
H141   H     0.68721   0.33865   0.10142   0.00000  Uiso   1.00
H142   H     0.65700   0.39088   0.09740   0.00000  Uiso   1.00
H143   H     0.52825   0.18110   0.13486   0.00000  Uiso   1.00
H144   H     0.61180   0.31957   0.19692   0.00000  Uiso   1.00
H145   H     0.89071   0.18089   0.19809   0.00000  Uiso   1.00
H146   H     0.88804   0.31927   0.13540   0.00000  Uiso   1.00
H147   H     0.60938   0.18061   0.13570   0.00000  Uiso   1.00
H148   H     0.73840   0.03169   0.08823   0.00000  Uiso   1.00
N149   N     0.75000   0.12623   0.16667   0.00000  Uiso   1.00
N150   N     0.75000   0.37376   0.16667   0.00000  Uiso   1.00
O151   O     0.68453   0.28974   0.16667   0.00000  Uiso   1.00
O152   O     0.81547   0.21026   0.16666   0.00000  Uiso   1.00
O153   O     0.81547   0.28974   0.16666   0.00000  Uiso   1.00
O154   O     0.68453   0.21026   0.16667   0.00000  Uiso   1.00
O155   O     0.75000   0.28973   0.09511   0.00000  Uiso   1.00
O156   O     0.75000   0.21027   0.23822   0.00000  Uiso   1.00
O157   O     0.75000   0.28973   0.23822   0.00000  Uiso   1.00
O158   O     0.75000   0.21027   0.09511   0.00000  Uiso   1.00
Zn159  Zn    0.75000   0.30307   0.16667   0.00000  Uiso   1.00
Zn160  Zn    0.75000   0.19693   0.16667   0.00000  Uiso   1.00
C161   C     0.16409   0.75001   0.16650   0.00000  Uiso   1.00
C162   C     0.22154   0.94764   0.13427   0.00000  Uiso   1.00
C163   C     0.24988   0.75001   0.07305   0.00000  Uiso   1.00
C164   C     0.25012   0.75001   0.26028   0.00000  Uiso   1.00
C165   C     0.25000   0.52552   0.16666   0.00000  Uiso   1.00
C166   C     0.25000   0.97302   0.16666   0.00000  Uiso   1.00
C167   C     0.24996   0.75004   0.02184   0.00000  Uiso   1.00
C168   C     0.25004   0.75004   0.31150   0.00000  Uiso   1.00
C169   C     0.04775   0.78922   0.18348   0.00000  Uiso   1.00
C170   C     0.45363   0.71130   0.18423   0.00000  Uiso   1.00
C171   C     0.45214   0.78903   0.14886   0.00000  Uiso   1.00
C172   C     0.33590   0.75001   0.16680   0.00000  Uiso   1.00
C173   C     0.04640   0.71117   0.14894   0.00000  Uiso   1.00
C174   C     0.09377   0.78927   0.18325   0.00000  Uiso   1.00
C175   C     0.40760   0.71112   0.18411   0.00000  Uiso   1.00
C176   C     0.40613   0.78909   0.14931   0.00000  Uiso   1.00
C177   C     0.09244   0.71098   0.14928   0.00000  Uiso   1.00
C178   C     0.11613   0.75007   0.16634   0.00000  Uiso   1.00
C179   C     0.38385   0.75007   0.16676   0.00000  Uiso   1.00
C180   C     0.02405   0.75021   0.16624   0.00000  Uiso   1.00
C181   C     0.47590   0.75018   0.16643   0.00000  Uiso   1.00
C182   C     0.23737   0.62010   0.07025   0.00000  Uiso   1.00
C183   C     0.24353   0.60009   0.12248   0.00000  Uiso   1.00
C184   C     0.19047   0.63955   0.06008   0.00000  Uiso   1.00
C185   C     0.30904   0.87574   0.23793   0.00000  Uiso   1.00
C186   C     0.29229   0.88227   0.29051   0.00000  Uiso   1.00
C187   C     0.26264   0.62011   0.26308   0.00000  Uiso   1.00
C188   C     0.30954   0.63956   0.27324   0.00000  Uiso   1.00
C189   C     0.19096   0.87573   0.09540   0.00000  Uiso   1.00
C190   C     0.20771   0.88224   0.04283   0.00000  Uiso   1.00
C191   C     0.27798   0.89858   0.19948   0.00000  Uiso   1.00
C192   C     0.25647   0.60009   0.21085   0.00000  Uiso   1.00
C193   C     0.22203   0.89858   0.13385   0.00000  Uiso   1.00
C194   C     0.24318   0.55084   0.12295   0.00000  Uiso   1.00
C195   C     0.27846   0.94764   0.19906   0.00000  Uiso   1.00
C196   C     0.25682   0.55084   0.21037   0.00000  Uiso   1.00
H197   H     0.03070   0.81932   0.19758   0.00000  Uiso   1.00
H198   H     0.30166   0.96593   0.22418   0.00000  Uiso   1.00
H199   H     0.26160   0.53170   0.24510   0.00000  Uiso   1.00
H200   H     0.19835   0.96593   0.10914   0.00000  Uiso   1.00
H201   H     0.16586   0.61077   0.05828   0.00000  Uiso   1.00
H202   H     0.18075   0.66365   0.08980   0.00000  Uiso   1.00
H203   H     0.18896   0.65806   0.02358   0.00000  Uiso   1.00
H204   H     0.26533   0.64293   0.06109   0.00000  Uiso   1.00
H205   H     0.24099   0.59275   0.04148   0.00000  Uiso   1.00
H206   H     0.25776   0.86872   0.29157   0.00000  Uiso   1.00
H207   H     0.31392   0.86281   0.31796   0.00000  Uiso   1.00
H208   H     0.47183   0.68136   0.19859   0.00000  Uiso   1.00
H209   H     0.29257   0.91945   0.30127   0.00000  Uiso   1.00
H210   H     0.31278   0.83865   0.23192   0.00000  Uiso   1.00
H211   H     0.34300   0.89088   0.23593   0.00000  Uiso   1.00
H212   H     0.33415   0.61078   0.27502   0.00000  Uiso   1.00
H213   H     0.31925   0.66366   0.24353   0.00000  Uiso   1.00
H214   H     0.31106   0.65805   0.30975   0.00000  Uiso   1.00
H215   H     0.23468   0.64294   0.27226   0.00000  Uiso   1.00
H216   H     0.25902   0.59275   0.29186   0.00000  Uiso   1.00
H217   H     0.24223   0.86867   0.04176   0.00000  Uiso   1.00
H218   H     0.18607   0.86279   0.01537   0.00000  Uiso   1.00
H219   H     0.46913   0.81900   0.13438   0.00000  Uiso   1.00
H220   H     0.20745   0.91941   0.03206   0.00000  Uiso   1.00
H221   H     0.18721   0.83865   0.10142   0.00000  Uiso   1.00
H222   H     0.15700   0.89088   0.09740   0.00000  Uiso   1.00
H223   H     0.02825   0.68110   0.13486   0.00000  Uiso   1.00
H224   H     0.11180   0.81957   0.19692   0.00000  Uiso   1.00
H225   H     0.39071   0.68089   0.19809   0.00000  Uiso   1.00
H226   H     0.38804   0.81927   0.13540   0.00000  Uiso   1.00
H227   H     0.10938   0.68061   0.13570   0.00000  Uiso   1.00
H228   H     0.23840   0.53169   0.08823   0.00000  Uiso   1.00
N229   N     0.25000   0.62623   0.16667   0.00000  Uiso   1.00
N230   N     0.25000   0.87376   0.16667   0.00000  Uiso   1.00
O231   O     0.18453   0.78974   0.16667   0.00000  Uiso   1.00
O232   O     0.31547   0.71026   0.16666   0.00000  Uiso   1.00
O233   O     0.31547   0.78974   0.16666   0.00000  Uiso   1.00
O234   O     0.18453   0.71026   0.16667   0.00000  Uiso   1.00
O235   O     0.25000   0.78973   0.09511   0.00000  Uiso   1.00
O236   O     0.25000   0.71027   0.23822   0.00000  Uiso   1.00
O237   O     0.25000   0.78973   0.23822   0.00000  Uiso   1.00
O238   O     0.25000   0.71027   0.09511   0.00000  Uiso   1.00
Zn239  Zn    0.25000   0.80307   0.16667   0.00000  Uiso   1.00
Zn240  Zn    0.25000   0.69693   0.16667   0.00000  Uiso   1.00
C241   C     0.66409   0.75001   0.16650   0.00000  Uiso   1.00
C242   C     0.72154   0.94764   0.13427   0.00000  Uiso   1.00
C243   C     0.74988   0.75001   0.07305   0.00000  Uiso   1.00
C244   C     0.75012   0.75001   0.26028   0.00000  Uiso   1.00
C245   C     0.75000   0.52552   0.16666   0.00000  Uiso   1.00
C246   C     0.75000   0.97302   0.16666   0.00000  Uiso   1.00
C247   C     0.74996   0.75004   0.02184   0.00000  Uiso   1.00
C248   C     0.75004   0.75004   0.31150   0.00000  Uiso   1.00
C249   C     0.54775   0.78922   0.18348   0.00000  Uiso   1.00
C250   C     0.95363   0.71130   0.18423   0.00000  Uiso   1.00
C251   C     0.95214   0.78903   0.14886   0.00000  Uiso   1.00
C252   C     0.83590   0.75001   0.16680   0.00000  Uiso   1.00
C253   C     0.54640   0.71117   0.14894   0.00000  Uiso   1.00
C254   C     0.59377   0.78927   0.18325   0.00000  Uiso   1.00
C255   C     0.90760   0.71112   0.18411   0.00000  Uiso   1.00
C256   C     0.90613   0.78909   0.14931   0.00000  Uiso   1.00
C257   C     0.59244   0.71098   0.14928   0.00000  Uiso   1.00
C258   C     0.61613   0.75007   0.16634   0.00000  Uiso   1.00
C259   C     0.88385   0.75007   0.16676   0.00000  Uiso   1.00
C260   C     0.52405   0.75021   0.16624   0.00000  Uiso   1.00
C261   C     0.97590   0.75018   0.16643   0.00000  Uiso   1.00
C262   C     0.73737   0.62010   0.07025   0.00000  Uiso   1.00
C263   C     0.74353   0.60009   0.12248   0.00000  Uiso   1.00
C264   C     0.69047   0.63955   0.06008   0.00000  Uiso   1.00
C265   C     0.80904   0.87574   0.23793   0.00000  Uiso   1.00
C266   C     0.79229   0.88227   0.29051   0.00000  Uiso   1.00
C267   C     0.76264   0.62011   0.26308   0.00000  Uiso   1.00
C268   C     0.80954   0.63956   0.27324   0.00000  Uiso   1.00
C269   C     0.69096   0.87573   0.09540   0.00000  Uiso   1.00
C270   C     0.70771   0.88224   0.04283   0.00000  Uiso   1.00
C271   C     0.77798   0.89858   0.19948   0.00000  Uiso   1.00
C272   C     0.75647   0.60009   0.21085   0.00000  Uiso   1.00
C273   C     0.72203   0.89858   0.13385   0.00000  Uiso   1.00
C274   C     0.74318   0.55084   0.12295   0.00000  Uiso   1.00
C275   C     0.77846   0.94764   0.19906   0.00000  Uiso   1.00
C276   C     0.75682   0.55084   0.21037   0.00000  Uiso   1.00
H277   H     0.53070   0.81932   0.19758   0.00000  Uiso   1.00
H278   H     0.80166   0.96593   0.22418   0.00000  Uiso   1.00
H279   H     0.76160   0.53170   0.24510   0.00000  Uiso   1.00
H280   H     0.69835   0.96593   0.10914   0.00000  Uiso   1.00
H281   H     0.66586   0.61077   0.05828   0.00000  Uiso   1.00
H282   H     0.68075   0.66365   0.08980   0.00000  Uiso   1.00
H283   H     0.68896   0.65806   0.02358   0.00000  Uiso   1.00
H284   H     0.76533   0.64293   0.06109   0.00000  Uiso   1.00
H285   H     0.74099   0.59275   0.04148   0.00000  Uiso   1.00
H286   H     0.75776   0.86872   0.29157   0.00000  Uiso   1.00
H287   H     0.81392   0.86281   0.31796   0.00000  Uiso   1.00
H288   H     0.97183   0.68136   0.19859   0.00000  Uiso   1.00
H289   H     0.79257   0.91945   0.30127   0.00000  Uiso   1.00
H290   H     0.81278   0.83865   0.23192   0.00000  Uiso   1.00
H291   H     0.84300   0.89088   0.23593   0.00000  Uiso   1.00
H292   H     0.83415   0.61078   0.27502   0.00000  Uiso   1.00
H293   H     0.81925   0.66366   0.24353   0.00000  Uiso   1.00
H294   H     0.81106   0.65805   0.30975   0.00000  Uiso   1.00
H295   H     0.73468   0.64294   0.27226   0.00000  Uiso   1.00
H296   H     0.75902   0.59275   0.29186   0.00000  Uiso   1.00
H297   H     0.74223   0.86867   0.04176   0.00000  Uiso   1.00
H298   H     0.68607   0.86279   0.01537   0.00000  Uiso   1.00
H299   H     0.96913   0.81900   0.13438   0.00000  Uiso   1.00
H300   H     0.70745   0.91941   0.03206   0.00000  Uiso   1.00
H301   H     0.68721   0.83865   0.10142   0.00000  Uiso   1.00
H302   H     0.65700   0.89088   0.09740   0.00000  Uiso   1.00
H303   H     0.52825   0.68110   0.13486   0.00000  Uiso   1.00
H304   H     0.61180   0.81957   0.19692   0.00000  Uiso   1.00
H305   H     0.89071   0.68089   0.19809   0.00000  Uiso   1.00
H306   H     0.88804   0.81927   0.13540   0.00000  Uiso   1.00
H307   H     0.60938   0.68061   0.13570   0.00000  Uiso   1.00
H308   H     0.73840   0.53169   0.08823   0.00000  Uiso   1.00
N309   N     0.75000   0.62623   0.16667   0.00000  Uiso   1.00
N310   N     0.75000   0.87376   0.16667   0.00000  Uiso   1.00
O311   O     0.68453   0.78974   0.16667   0.00000  Uiso   1.00
O312   O     0.81547   0.71026   0.16666   0.00000  Uiso   1.00
O313   O     0.81547   0.78974   0.16666   0.00000  Uiso   1.00
O314   O     0.68453   0.71026   0.16667   0.00000  Uiso   1.00
O315   O     0.75000   0.78973   0.09511   0.00000  Uiso   1.00
O316   O     0.75000   0.71027   0.23822   0.00000  Uiso   1.00
O317   O     0.75000   0.78973   0.23822   0.00000  Uiso   1.00
O318   O     0.75000   0.71027   0.09511   0.00000  Uiso   1.00
Zn319  Zn    0.75000   0.80307   0.16667   0.00000  Uiso   1.00
Zn320  Zn    0.75000   0.69693   0.16667   0.00000  Uiso   1.00
C321   C     0.16409   0.25001   0.49984   0.00000  Uiso   1.00
C322   C     0.22154   0.44764   0.46760   0.00000  Uiso   1.00
C323   C     0.24988   0.25001   0.40638   0.00000  Uiso   1.00
C324   C     0.25012   0.25001   0.59362   0.00000  Uiso   1.00
C325   C     0.25000   0.02552   0.50000   0.00000  Uiso   1.00
C326   C     0.25000   0.47302   0.50000   0.00000  Uiso   1.00
C327   C     0.24996   0.25004   0.35517   0.00000  Uiso   1.00
C328   C     0.25004   0.25004   0.64483   0.00000  Uiso   1.00
C329   C     0.04775   0.28922   0.51682   0.00000  Uiso   1.00
C330   C     0.45363   0.21130   0.51757   0.00000  Uiso   1.00
C331   C     0.45214   0.28903   0.48219   0.00000  Uiso   1.00
C332   C     0.33590   0.25001   0.50013   0.00000  Uiso   1.00
C333   C     0.04640   0.21117   0.48228   0.00000  Uiso   1.00
C334   C     0.09377   0.28927   0.51658   0.00000  Uiso   1.00
C335   C     0.40760   0.21112   0.51744   0.00000  Uiso   1.00
C336   C     0.40613   0.28909   0.48265   0.00000  Uiso   1.00
C337   C     0.09244   0.21098   0.48262   0.00000  Uiso   1.00
C338   C     0.11613   0.25007   0.49968   0.00000  Uiso   1.00
C339   C     0.38385   0.25007   0.50010   0.00000  Uiso   1.00
C340   C     0.02405   0.25021   0.49957   0.00000  Uiso   1.00
C341   C     0.47590   0.25018   0.49977   0.00000  Uiso   1.00
C342   C     0.23737   0.12010   0.40359   0.00000  Uiso   1.00
C343   C     0.24353   0.10009   0.45581   0.00000  Uiso   1.00
C344   C     0.19047   0.13955   0.39342   0.00000  Uiso   1.00
C345   C     0.30904   0.37574   0.57126   0.00000  Uiso   1.00
C346   C     0.29229   0.38227   0.62384   0.00000  Uiso   1.00
C347   C     0.26264   0.12011   0.59641   0.00000  Uiso   1.00
C348   C     0.30954   0.13956   0.60658   0.00000  Uiso   1.00
C349   C     0.19096   0.37573   0.42874   0.00000  Uiso   1.00
C350   C     0.20771   0.38224   0.37616   0.00000  Uiso   1.00
C351   C     0.27798   0.39858   0.53281   0.00000  Uiso   1.00
C352   C     0.25647   0.10009   0.54419   0.00000  Uiso   1.00
C353   C     0.22203   0.39858   0.46718   0.00000  Uiso   1.00
C354   C     0.24318   0.05084   0.45629   0.00000  Uiso   1.00
C355   C     0.27846   0.44764   0.53239   0.00000  Uiso   1.00
C356   C     0.25682   0.05084   0.54371   0.00000  Uiso   1.00
H357   H     0.03070   0.31932   0.53092   0.00000  Uiso   1.00
H358   H     0.30166   0.46593   0.55752   0.00000  Uiso   1.00
H359   H     0.26160   0.03170   0.57843   0.00000  Uiso   1.00
H360   H     0.19835   0.46593   0.44247   0.00000  Uiso   1.00
H361   H     0.16586   0.11077   0.39161   0.00000  Uiso   1.00
H362   H     0.18075   0.16365   0.42313   0.00000  Uiso   1.00
H363   H     0.18896   0.15806   0.35691   0.00000  Uiso   1.00
H364   H     0.26533   0.14293   0.39442   0.00000  Uiso   1.00
H365   H     0.24099   0.09275   0.37481   0.00000  Uiso   1.00
H366   H     0.25776   0.36872   0.62490   0.00000  Uiso   1.00
H367   H     0.31392   0.36281   0.65130   0.00000  Uiso   1.00
H368   H     0.47183   0.18136   0.53192   0.00000  Uiso   1.00
H369   H     0.29257   0.41945   0.63460   0.00000  Uiso   1.00
H370   H     0.31278   0.33865   0.56526   0.00000  Uiso   1.00
H371   H     0.34300   0.39088   0.56927   0.00000  Uiso   1.00
H372   H     0.33415   0.11078   0.60836   0.00000  Uiso   1.00
H373   H     0.31925   0.16366   0.57686   0.00000  Uiso   1.00
H374   H     0.31106   0.15805   0.64309   0.00000  Uiso   1.00
H375   H     0.23468   0.14294   0.60559   0.00000  Uiso   1.00
H376   H     0.25902   0.09275   0.62519   0.00000  Uiso   1.00
H377   H     0.24223   0.36867   0.37510   0.00000  Uiso   1.00
H378   H     0.18607   0.36279   0.34871   0.00000  Uiso   1.00
H379   H     0.46913   0.31900   0.46771   0.00000  Uiso   1.00
H380   H     0.20745   0.41941   0.36539   0.00000  Uiso   1.00
H381   H     0.18721   0.33865   0.43475   0.00000  Uiso   1.00
H382   H     0.15700   0.39088   0.43073   0.00000  Uiso   1.00
H383   H     0.02825   0.18110   0.46819   0.00000  Uiso   1.00
H384   H     0.11180   0.31957   0.53025   0.00000  Uiso   1.00
H385   H     0.39071   0.18089   0.53142   0.00000  Uiso   1.00
H386   H     0.38804   0.31927   0.46873   0.00000  Uiso   1.00
H387   H     0.10938   0.18061   0.46904   0.00000  Uiso   1.00
H388   H     0.23840   0.03169   0.42156   0.00000  Uiso   1.00
N389   N     0.25000   0.12623   0.50000   0.00000  Uiso   1.00
N390   N     0.25000   0.37376   0.50000   0.00000  Uiso   1.00
O391   O     0.18453   0.28974   0.50000   0.00000  Uiso   1.00
O392   O     0.31547   0.21026   0.50000   0.00000  Uiso   1.00
O393   O     0.31547   0.28974   0.50000   0.00000  Uiso   1.00
O394   O     0.18453   0.21026   0.50000   0.00000  Uiso   1.00
O395   O     0.25000   0.28973   0.42845   0.00000  Uiso   1.00
O396   O     0.25000   0.21027   0.57155   0.00000  Uiso   1.00
O397   O     0.25000   0.28973   0.57155   0.00000  Uiso   1.00
O398   O     0.25000   0.21027   0.42845   0.00000  Uiso   1.00
Zn399  Zn    0.25000   0.30307   0.50000   0.00000  Uiso   1.00
Zn400  Zn    0.25000   0.19693   0.50000   0.00000  Uiso   1.00
C401   C     0.66409   0.25001   0.49984   0.00000  Uiso   1.00
C402   C     0.72154   0.44764   0.46760   0.00000  Uiso   1.00
C403   C     0.74988   0.25001   0.40638   0.00000  Uiso   1.00
C404   C     0.75012   0.25001   0.59362   0.00000  Uiso   1.00
C405   C     0.75000   0.02552   0.50000   0.00000  Uiso   1.00
C406   C     0.75000   0.47302   0.50000   0.00000  Uiso   1.00
C407   C     0.74996   0.25004   0.35517   0.00000  Uiso   1.00
C408   C     0.75004   0.25004   0.64483   0.00000  Uiso   1.00
C409   C     0.54775   0.28922   0.51682   0.00000  Uiso   1.00
C410   C     0.95363   0.21130   0.51757   0.00000  Uiso   1.00
C411   C     0.95214   0.28903   0.48219   0.00000  Uiso   1.00
C412   C     0.83590   0.25001   0.50013   0.00000  Uiso   1.00
C413   C     0.54640   0.21117   0.48228   0.00000  Uiso   1.00
C414   C     0.59377   0.28927   0.51658   0.00000  Uiso   1.00
C415   C     0.90760   0.21112   0.51744   0.00000  Uiso   1.00
C416   C     0.90613   0.28909   0.48265   0.00000  Uiso   1.00
C417   C     0.59244   0.21098   0.48262   0.00000  Uiso   1.00
C418   C     0.61613   0.25007   0.49968   0.00000  Uiso   1.00
C419   C     0.88385   0.25007   0.50010   0.00000  Uiso   1.00
C420   C     0.52405   0.25021   0.49957   0.00000  Uiso   1.00
C421   C     0.97590   0.25018   0.49977   0.00000  Uiso   1.00
C422   C     0.73737   0.12010   0.40359   0.00000  Uiso   1.00
C423   C     0.74353   0.10009   0.45581   0.00000  Uiso   1.00
C424   C     0.69047   0.13955   0.39342   0.00000  Uiso   1.00
C425   C     0.80904   0.37574   0.57126   0.00000  Uiso   1.00
C426   C     0.79229   0.38227   0.62384   0.00000  Uiso   1.00
C427   C     0.76264   0.12011   0.59641   0.00000  Uiso   1.00
C428   C     0.80954   0.13956   0.60658   0.00000  Uiso   1.00
C429   C     0.69096   0.37573   0.42874   0.00000  Uiso   1.00
C430   C     0.70771   0.38224   0.37616   0.00000  Uiso   1.00
C431   C     0.77798   0.39858   0.53281   0.00000  Uiso   1.00
C432   C     0.75647   0.10009   0.54419   0.00000  Uiso   1.00
C433   C     0.72203   0.39858   0.46718   0.00000  Uiso   1.00
C434   C     0.74318   0.05084   0.45629   0.00000  Uiso   1.00
C435   C     0.77846   0.44764   0.53239   0.00000  Uiso   1.00
C436   C     0.75682   0.05084   0.54371   0.00000  Uiso   1.00
H437   H     0.53070   0.31932   0.53092   0.00000  Uiso   1.00
H438   H     0.80166   0.46593   0.55752   0.00000  Uiso   1.00
H439   H     0.76160   0.03170   0.57843   0.00000  Uiso   1.00
H440   H     0.69835   0.46593   0.44247   0.00000  Uiso   1.00
H441   H     0.66586   0.11077   0.39161   0.00000  Uiso   1.00
H442   H     0.68075   0.16365   0.42313   0.00000  Uiso   1.00
H443   H     0.68896   0.15806   0.35691   0.00000  Uiso   1.00
H444   H     0.76533   0.14293   0.39442   0.00000  Uiso   1.00
H445   H     0.74099   0.09275   0.37481   0.00000  Uiso   1.00
H446   H     0.75776   0.36872   0.62490   0.00000  Uiso   1.00
H447   H     0.81392   0.36281   0.65130   0.00000  Uiso   1.00
H448   H     0.97183   0.18136   0.53192   0.00000  Uiso   1.00
H449   H     0.79257   0.41945   0.63460   0.00000  Uiso   1.00
H450   H     0.81278   0.33865   0.56526   0.00000  Uiso   1.00
H451   H     0.84300   0.39088   0.56927   0.00000  Uiso   1.00
H452   H     0.83415   0.11078   0.60836   0.00000  Uiso   1.00
H453   H     0.81925   0.16366   0.57686   0.00000  Uiso   1.00
H454   H     0.81106   0.15805   0.64309   0.00000  Uiso   1.00
H455   H     0.73468   0.14294   0.60559   0.00000  Uiso   1.00
H456   H     0.75902   0.09275   0.62519   0.00000  Uiso   1.00
H457   H     0.74223   0.36867   0.37510   0.00000  Uiso   1.00
H458   H     0.68607   0.36279   0.34871   0.00000  Uiso   1.00
H459   H     0.96913   0.31900   0.46771   0.00000  Uiso   1.00
H460   H     0.70745   0.41941   0.36539   0.00000  Uiso   1.00
H461   H     0.68721   0.33865   0.43475   0.00000  Uiso   1.00
H462   H     0.65700   0.39088   0.43073   0.00000  Uiso   1.00
H463   H     0.52825   0.18110   0.46819   0.00000  Uiso   1.00
H464   H     0.61180   0.31957   0.53025   0.00000  Uiso   1.00
H465   H     0.89071   0.18089   0.53142   0.00000  Uiso   1.00
H466   H     0.88804   0.31927   0.46873   0.00000  Uiso   1.00
H467   H     0.60938   0.18061   0.46904   0.00000  Uiso   1.00
H468   H     0.73840   0.03169   0.42156   0.00000  Uiso   1.00
N469   N     0.75000   0.12623   0.50000   0.00000  Uiso   1.00
N470   N     0.75000   0.37376   0.50000   0.00000  Uiso   1.00
O471   O     0.68453   0.28974   0.50000   0.00000  Uiso   1.00
O472   O     0.81547   0.21026   0.50000   0.00000  Uiso   1.00
O473   O     0.81547   0.28974   0.50000   0.00000  Uiso   1.00
O474   O     0.68453   0.21026   0.50000   0.00000  Uiso   1.00
O475   O     0.75000   0.28973   0.42845   0.00000  Uiso   1.00
O476   O     0.75000   0.21027   0.57155   0.00000  Uiso   1.00
O477   O     0.75000   0.28973   0.57155   0.00000  Uiso   1.00
O478   O     0.75000   0.21027   0.42845   0.00000  Uiso   1.00
Zn479  Zn    0.75000   0.30307   0.50000   0.00000  Uiso   1.00
Zn480  Zn    0.75000   0.19693   0.50000   0.00000  Uiso   1.00
C481   C     0.16409   0.75001   0.49984   0.00000  Uiso   1.00
C482   C     0.22154   0.94764   0.46760   0.00000  Uiso   1.00
C483   C     0.24988   0.75001   0.40638   0.00000  Uiso   1.00
C484   C     0.25012   0.75001   0.59362   0.00000  Uiso   1.00
C485   C     0.25000   0.52552   0.50000   0.00000  Uiso   1.00
C486   C     0.25000   0.97302   0.50000   0.00000  Uiso   1.00
C487   C     0.24996   0.75004   0.35517   0.00000  Uiso   1.00
C488   C     0.25004   0.75004   0.64483   0.00000  Uiso   1.00
C489   C     0.04775   0.78922   0.51682   0.00000  Uiso   1.00
C490   C     0.45363   0.71130   0.51757   0.00000  Uiso   1.00
C491   C     0.45214   0.78903   0.48219   0.00000  Uiso   1.00
C492   C     0.33590   0.75001   0.50013   0.00000  Uiso   1.00
C493   C     0.04640   0.71117   0.48228   0.00000  Uiso   1.00
C494   C     0.09377   0.78927   0.51658   0.00000  Uiso   1.00
C495   C     0.40760   0.71112   0.51744   0.00000  Uiso   1.00
C496   C     0.40613   0.78909   0.48265   0.00000  Uiso   1.00
C497   C     0.09244   0.71098   0.48262   0.00000  Uiso   1.00
C498   C     0.11613   0.75007   0.49968   0.00000  Uiso   1.00
C499   C     0.38385   0.75007   0.50010   0.00000  Uiso   1.00
C500   C     0.02405   0.75021   0.49957   0.00000  Uiso   1.00
C501   C     0.47590   0.75018   0.49977   0.00000  Uiso   1.00
C502   C     0.23737   0.62010   0.40359   0.00000  Uiso   1.00
C503   C     0.24353   0.60009   0.45581   0.00000  Uiso   1.00
C504   C     0.19047   0.63955   0.39342   0.00000  Uiso   1.00
C505   C     0.30904   0.87574   0.57126   0.00000  Uiso   1.00
C506   C     0.29229   0.88227   0.62384   0.00000  Uiso   1.00
C507   C     0.26264   0.62011   0.59641   0.00000  Uiso   1.00
C508   C     0.30954   0.63956   0.60658   0.00000  Uiso   1.00
C509   C     0.19096   0.87573   0.42874   0.00000  Uiso   1.00
C510   C     0.20771   0.88224   0.37616   0.00000  Uiso   1.00
C511   C     0.27798   0.89858   0.53281   0.00000  Uiso   1.00
C512   C     0.25647   0.60009   0.54419   0.00000  Uiso   1.00
C513   C     0.22203   0.89858   0.46718   0.00000  Uiso   1.00
C514   C     0.24318   0.55084   0.45629   0.00000  Uiso   1.00
C515   C     0.27846   0.94764   0.53239   0.00000  Uiso   1.00
C516   C     0.25682   0.55084   0.54371   0.00000  Uiso   1.00
H517   H     0.03070   0.81932   0.53092   0.00000  Uiso   1.00
H518   H     0.30166   0.96593   0.55752   0.00000  Uiso   1.00
H519   H     0.26160   0.53170   0.57843   0.00000  Uiso   1.00
H520   H     0.19835   0.96593   0.44247   0.00000  Uiso   1.00
H521   H     0.16586   0.61077   0.39161   0.00000  Uiso   1.00
H522   H     0.18075   0.66365   0.42313   0.00000  Uiso   1.00
H523   H     0.18896   0.65806   0.35691   0.00000  Uiso   1.00
H524   H     0.26533   0.64293   0.39442   0.00000  Uiso   1.00
H525   H     0.24099   0.59275   0.37481   0.00000  Uiso   1.00
H526   H     0.25776   0.86872   0.62490   0.00000  Uiso   1.00
H527   H     0.31392   0.86281   0.65130   0.00000  Uiso   1.00
H528   H     0.47183   0.68136   0.53192   0.00000  Uiso   1.00
H529   H     0.29257   0.91945   0.63460   0.00000  Uiso   1.00
H530   H     0.31278   0.83865   0.56526   0.00000  Uiso   1.00
H531   H     0.34300   0.89088   0.56927   0.00000  Uiso   1.00
H532   H     0.33415   0.61078   0.60836   0.00000  Uiso   1.00
H533   H     0.31925   0.66366   0.57686   0.00000  Uiso   1.00
H534   H     0.31106   0.65805   0.64309   0.00000  Uiso   1.00
H535   H     0.23468   0.64294   0.60559   0.00000  Uiso   1.00
H536   H     0.25902   0.59275   0.62519   0.00000  Uiso   1.00
H537   H     0.24223   0.86867   0.37510   0.00000  Uiso   1.00
H538   H     0.18607   0.86279   0.34871   0.00000  Uiso   1.00
H539   H     0.46913   0.81900   0.46771   0.00000  Uiso   1.00
H540   H     0.20745   0.91941   0.36539   0.00000  Uiso   1.00
H541   H     0.18721   0.83865   0.43475   0.00000  Uiso   1.00
H542   H     0.15700   0.89088   0.43073   0.00000  Uiso   1.00
H543   H     0.02825   0.68110   0.46819   0.00000  Uiso   1.00
H544   H     0.11180   0.81957   0.53025   0.00000  Uiso   1.00
H545   H     0.39071   0.68089   0.53142   0.00000  Uiso   1.00
H546   H     0.38804   0.81927   0.46873   0.00000  Uiso   1.00
H547   H     0.10938   0.68061   0.46904   0.00000  Uiso   1.00
H548   H     0.23840   0.53169   0.42156   0.00000  Uiso   1.00
N549   N     0.25000   0.62623   0.50000   0.00000  Uiso   1.00
N550   N     0.25000   0.87376   0.50000   0.00000  Uiso   1.00
O551   O     0.18453   0.78974   0.50000   0.00000  Uiso   1.00
O552   O     0.31547   0.71026   0.50000   0.00000  Uiso   1.00
O553   O     0.31547   0.78974   0.50000   0.00000  Uiso   1.00
O554   O     0.18453   0.71026   0.50000   0.00000  Uiso   1.00
O555   O     0.25000   0.78973   0.42845   0.00000  Uiso   1.00
O556   O     0.25000   0.71027   0.57155   0.00000  Uiso   1.00
O557   O     0.25000   0.78973   0.57155   0.00000  Uiso   1.00
O558   O     0.25000   0.71027   0.42845   0.00000  Uiso   1.00
Zn559  Zn    0.25000   0.80307   0.50000   0.00000  Uiso   1.00
Zn560  Zn    0.25000   0.69693   0.50000   0.00000  Uiso   1.00
C561   C     0.66409   0.75001   0.49984   0.00000  Uiso   1.00
C562   C     0.72154   0.94764   0.46760   0.00000  Uiso   1.00
C563   C     0.74988   0.75001   0.40638   0.00000  Uiso   1.00
C564   C     0.75012   0.75001   0.59362   0.00000  Uiso   1.00
C565   C     0.75000   0.52552   0.50000   0.00000  Uiso   1.00
C566   C     0.75000   0.97302   0.50000   0.00000  Uiso   1.00
C567   C     0.74996   0.75004   0.35517   0.00000  Uiso   1.00
C568   C     0.75004   0.75004   0.64483   0.00000  Uiso   1.00
C569   C     0.54775   0.78922   0.51682   0.00000  Uiso   1.00
C570   C     0.95363   0.71130   0.51757   0.00000  Uiso   1.00
C571   C     0.95214   0.78903   0.48219   0.00000  Uiso   1.00
C572   C     0.83590   0.75001   0.50013   0.00000  Uiso   1.00
C573   C     0.54640   0.71117   0.48228   0.00000  Uiso   1.00
C574   C     0.59377   0.78927   0.51658   0.00000  Uiso   1.00
C575   C     0.90760   0.71112   0.51744   0.00000  Uiso   1.00
C576   C     0.90613   0.78909   0.48265   0.00000  Uiso   1.00
C577   C     0.59244   0.71098   0.48262   0.00000  Uiso   1.00
C578   C     0.61613   0.75007   0.49968   0.00000  Uiso   1.00
C579   C     0.88385   0.75007   0.50010   0.00000  Uiso   1.00
C580   C     0.52405   0.75021   0.49957   0.00000  Uiso   1.00
C581   C     0.97590   0.75018   0.49977   0.00000  Uiso   1.00
C582   C     0.73737   0.62010   0.40359   0.00000  Uiso   1.00
C583   C     0.74353   0.60009   0.45581   0.00000  Uiso   1.00
C584   C     0.69047   0.63955   0.39342   0.00000  Uiso   1.00
C585   C     0.80904   0.87574   0.57126   0.00000  Uiso   1.00
C586   C     0.79229   0.88227   0.62384   0.00000  Uiso   1.00
C587   C     0.76264   0.62011   0.59641   0.00000  Uiso   1.00
C588   C     0.80954   0.63956   0.60658   0.00000  Uiso   1.00
C589   C     0.69096   0.87573   0.42874   0.00000  Uiso   1.00
C590   C     0.70771   0.88224   0.37616   0.00000  Uiso   1.00
C591   C     0.77798   0.89858   0.53281   0.00000  Uiso   1.00
C592   C     0.75647   0.60009   0.54419   0.00000  Uiso   1.00
C593   C     0.72203   0.89858   0.46718   0.00000  Uiso   1.00
C594   C     0.74318   0.55084   0.45629   0.00000  Uiso   1.00
C595   C     0.77846   0.94764   0.53239   0.00000  Uiso   1.00
C596   C     0.75682   0.55084   0.54371   0.00000  Uiso   1.00
H597   H     0.53070   0.81932   0.53092   0.00000  Uiso   1.00
H598   H     0.80166   0.96593   0.55752   0.00000  Uiso   1.00
H599   H     0.76160   0.53170   0.57843   0.00000  Uiso   1.00
H600   H     0.69835   0.96593   0.44247   0.00000  Uiso   1.00
H601   H     0.66586   0.61077   0.39161   0.00000  Uiso   1.00
H602   H     0.68075   0.66365   0.42313   0.00000  Uiso   1.00
H603   H     0.68896   0.65806   0.35691   0.00000  Uiso   1.00
H604   H     0.76533   0.64293   0.39442   0.00000  Uiso   1.00
H605   H     0.74099   0.59275   0.37481   0.00000  Uiso   1.00
H606   H     0.75776   0.86872   0.62490   0.00000  Uiso   1.00
H607   H     0.81392   0.86281   0.65130   0.00000  Uiso   1.00
H608   H     0.97183   0.68136   0.53192   0.00000  Uiso   1.00
H609   H     0.79257   0.91945   0.63460   0.00000  Uiso   1.00
H610   H     0.81278   0.83865   0.56526   0.00000  Uiso   1.00
H611   H     0.84300   0.89088   0.56927   0.00000  Uiso   1.00
H612   H     0.83415   0.61078   0.60836   0.00000  Uiso   1.00
H613   H     0.81925   0.66366   0.57686   0.00000  Uiso   1.00
H614   H     0.81106   0.65805   0.64309   0.00000  Uiso   1.00
H615   H     0.73468   0.64294   0.60559   0.00000  Uiso   1.00
H616   H     0.75902   0.59275   0.62519   0.00000  Uiso   1.00
H617   H     0.74223   0.86867   0.37510   0.00000  Uiso   1.00
H618   H     0.68607   0.86279   0.34871   0.00000  Uiso   1.00
H619   H     0.96913   0.81900   0.46771   0.00000  Uiso   1.00
H620   H     0.70745   0.91941   0.36539   0.00000  Uiso   1.00
H621   H     0.68721   0.83865   0.43475   0.00000  Uiso   1.00
H622   H     0.65700   0.89088   0.43073   0.00000  Uiso   1.00
H623   H     0.52825   0.68110   0.46819   0.00000  Uiso   1.00
H624   H     0.61180   0.81957   0.53025   0.00000  Uiso   1.00
H625   H     0.89071   0.68089   0.53142   0.00000  Uiso   1.00
H626   H     0.88804   0.81927   0.46873   0.00000  Uiso   1.00
H627   H     0.60938   0.68061   0.46904   0.00000  Uiso   1.00
H628   H     0.73840   0.53169   0.42156   0.00000  Uiso   1.00
N629   N     0.75000   0.62623   0.50000   0.00000  Uiso   1.00
N630   N     0.75000   0.87376   0.50000   0.00000  Uiso   1.00
O631   O     0.68453   0.78974   0.50000   0.00000  Uiso   1.00
O632   O     0.81547   0.71026   0.50000   0.00000  Uiso   1.00
O633   O     0.81547   0.78974   0.50000   0.00000  Uiso   1.00
O634   O     0.68453   0.71026   0.50000   0.00000  Uiso   1.00
O635   O     0.75000   0.78973   0.42845   0.00000  Uiso   1.00
O636   O     0.75000   0.71027   0.57155   0.00000  Uiso   1.00
O637   O     0.75000   0.78973   0.57155   0.00000  Uiso   1.00
O638   O     0.75000   0.71027   0.42845   0.00000  Uiso   1.00
Zn639  Zn    0.75000   0.80307   0.50000   0.00000  Uiso   1.00
Zn640  Zn    0.75000   0.69693   0.50000   0.00000  Uiso   1.00
C641   C     0.16409   0.25001   0.83317   0.00000  Uiso   1.00
C642   C     0.22154   0.44764   0.80094   0.00000  Uiso   1.00
C643   C     0.24988   0.25001   0.73972   0.00000  Uiso   1.00
C644   C     0.25012   0.25001   0.92695   0.00000  Uiso   1.00
C645   C     0.25000   0.02552   0.83333   0.00000  Uiso   1.00
C646   C     0.25000   0.47302   0.83333   0.00000  Uiso   1.00
C647   C     0.24996   0.25004   0.68850   0.00000  Uiso   1.00
C648   C     0.25004   0.25004   0.97816   0.00000  Uiso   1.00
C649   C     0.04775   0.28922   0.85015   0.00000  Uiso   1.00
C650   C     0.45363   0.21130   0.85090   0.00000  Uiso   1.00
C651   C     0.45214   0.28903   0.81552   0.00000  Uiso   1.00
C652   C     0.33590   0.25001   0.83346   0.00000  Uiso   1.00
C653   C     0.04640   0.21117   0.81561   0.00000  Uiso   1.00
C654   C     0.09377   0.28927   0.84992   0.00000  Uiso   1.00
C655   C     0.40760   0.21112   0.85077   0.00000  Uiso   1.00
C656   C     0.40613   0.28909   0.81598   0.00000  Uiso   1.00
C657   C     0.09244   0.21098   0.81595   0.00000  Uiso   1.00
C658   C     0.11613   0.25007   0.83301   0.00000  Uiso   1.00
C659   C     0.38385   0.25007   0.83343   0.00000  Uiso   1.00
C660   C     0.02405   0.25021   0.83291   0.00000  Uiso   1.00
C661   C     0.47590   0.25018   0.83310   0.00000  Uiso   1.00
C662   C     0.23737   0.12010   0.73692   0.00000  Uiso   1.00
C663   C     0.24353   0.10009   0.78915   0.00000  Uiso   1.00
C664   C     0.19047   0.13955   0.72675   0.00000  Uiso   1.00
C665   C     0.30904   0.37574   0.90460   0.00000  Uiso   1.00
C666   C     0.29229   0.38227   0.95717   0.00000  Uiso   1.00
C667   C     0.26264   0.12011   0.92975   0.00000  Uiso   1.00
C668   C     0.30954   0.13956   0.93991   0.00000  Uiso   1.00
C669   C     0.19096   0.37573   0.76207   0.00000  Uiso   1.00
C670   C     0.20771   0.38224   0.70949   0.00000  Uiso   1.00
C671   C     0.27798   0.39858   0.86615   0.00000  Uiso   1.00
C672   C     0.25647   0.10009   0.87752   0.00000  Uiso   1.00
C673   C     0.22203   0.39858   0.80052   0.00000  Uiso   1.00
C674   C     0.24318   0.05084   0.78962   0.00000  Uiso   1.00
C675   C     0.27846   0.44764   0.86572   0.00000  Uiso   1.00
C676   C     0.25682   0.05084   0.87704   0.00000  Uiso   1.00
H677   H     0.03070   0.31932   0.86425   0.00000  Uiso   1.00
H678   H     0.30166   0.46593   0.89085   0.00000  Uiso   1.00
H679   H     0.26160   0.03170   0.91176   0.00000  Uiso   1.00
H680   H     0.19835   0.46593   0.77581   0.00000  Uiso   1.00
H681   H     0.16586   0.11077   0.72495   0.00000  Uiso   1.00
H682   H     0.18075   0.16365   0.75647   0.00000  Uiso   1.00
H683   H     0.18896   0.15806   0.69025   0.00000  Uiso   1.00
H684   H     0.26533   0.14293   0.72775   0.00000  Uiso   1.00
H685   H     0.24099   0.09275   0.70814   0.00000  Uiso   1.00
H686   H     0.25776   0.36872   0.95823   0.00000  Uiso   1.00
H687   H     0.31392   0.36281   0.98463   0.00000  Uiso   1.00
H688   H     0.47183   0.18136   0.86526   0.00000  Uiso   1.00
H689   H     0.29257   0.41945   0.96794   0.00000  Uiso   1.00
H690   H     0.31278   0.33865   0.89859   0.00000  Uiso   1.00
H691   H     0.34300   0.39088   0.90260   0.00000  Uiso   1.00
H692   H     0.33415   0.11078   0.94169   0.00000  Uiso   1.00
H693   H     0.31925   0.16366   0.91020   0.00000  Uiso   1.00
H694   H     0.31106   0.15805   0.97642   0.00000  Uiso   1.00
H695   H     0.23468   0.14294   0.93892   0.00000  Uiso   1.00
H696   H     0.25902   0.09275   0.95852   0.00000  Uiso   1.00
H697   H     0.24223   0.36867   0.70843   0.00000  Uiso   1.00
H698   H     0.18607   0.36279   0.68204   0.00000  Uiso   1.00
H699   H     0.46913   0.31900   0.80104   0.00000  Uiso   1.00
H700   H     0.20745   0.41941   0.69872   0.00000  Uiso   1.00
H701   H     0.18721   0.33865   0.76809   0.00000  Uiso   1.00
H702   H     0.15700   0.39088   0.76406   0.00000  Uiso   1.00
H703   H     0.02825   0.18110   0.80152   0.00000  Uiso   1.00
H704   H     0.11180   0.31957   0.86359   0.00000  Uiso   1.00
H705   H     0.39071   0.18089   0.86476   0.00000  Uiso   1.00
H706   H     0.38804   0.31927   0.80206   0.00000  Uiso   1.00
H707   H     0.10938   0.18061   0.80237   0.00000  Uiso   1.00
H708   H     0.23840   0.03169   0.75490   0.00000  Uiso   1.00
N709   N     0.25000   0.12623   0.83333   0.00000  Uiso   1.00
N710   N     0.25000   0.37376   0.83333   0.00000  Uiso   1.00
O711   O     0.18453   0.28974   0.83334   0.00000  Uiso   1.00
O712   O     0.31547   0.21026   0.83333   0.00000  Uiso   1.00
O713   O     0.31547   0.28974   0.83333   0.00000  Uiso   1.00
O714   O     0.18453   0.21026   0.83334   0.00000  Uiso   1.00
O715   O     0.25000   0.28973   0.76178   0.00000  Uiso   1.00
O716   O     0.25000   0.21027   0.90489   0.00000  Uiso   1.00
O717   O     0.25000   0.28973   0.90489   0.00000  Uiso   1.00
O718   O     0.25000   0.21027   0.76178   0.00000  Uiso   1.00
Zn719  Zn    0.25000   0.30307   0.83333   0.00000  Uiso   1.00
Zn720  Zn    0.25000   0.19693   0.83333   0.00000  Uiso   1.00
C721   C     0.66409   0.25001   0.83317   0.00000  Uiso   1.00
C722   C     0.72154   0.44764   0.80094   0.00000  Uiso   1.00
C723   C     0.74988   0.25001   0.73972   0.00000  Uiso   1.00
C724   C     0.75012   0.25001   0.92695   0.00000  Uiso   1.00
C725   C     0.75000   0.02552   0.83333   0.00000  Uiso   1.00
C726   C     0.75000   0.47302   0.83333   0.00000  Uiso   1.00
C727   C     0.74996   0.25004   0.68850   0.00000  Uiso   1.00
C728   C     0.75004   0.25004   0.97816   0.00000  Uiso   1.00
C729   C     0.54775   0.28922   0.85015   0.00000  Uiso   1.00
C730   C     0.95363   0.21130   0.85090   0.00000  Uiso   1.00
C731   C     0.95214   0.28903   0.81552   0.00000  Uiso   1.00
C732   C     0.83590   0.25001   0.83346   0.00000  Uiso   1.00
C733   C     0.54640   0.21117   0.81561   0.00000  Uiso   1.00
C734   C     0.59377   0.28927   0.84992   0.00000  Uiso   1.00
C735   C     0.90760   0.21112   0.85077   0.00000  Uiso   1.00
C736   C     0.90613   0.28909   0.81598   0.00000  Uiso   1.00
C737   C     0.59244   0.21098   0.81595   0.00000  Uiso   1.00
C738   C     0.61613   0.25007   0.83301   0.00000  Uiso   1.00
C739   C     0.88385   0.25007   0.83343   0.00000  Uiso   1.00
C740   C     0.52405   0.25021   0.83291   0.00000  Uiso   1.00
C741   C     0.97590   0.25018   0.83310   0.00000  Uiso   1.00
C742   C     0.73737   0.12010   0.73692   0.00000  Uiso   1.00
C743   C     0.74353   0.10009   0.78915   0.00000  Uiso   1.00
C744   C     0.69047   0.13955   0.72675   0.00000  Uiso   1.00
C745   C     0.80904   0.37574   0.90460   0.00000  Uiso   1.00
C746   C     0.79229   0.38227   0.95717   0.00000  Uiso   1.00
C747   C     0.76264   0.12011   0.92975   0.00000  Uiso   1.00
C748   C     0.80954   0.13956   0.93991   0.00000  Uiso   1.00
C749   C     0.69096   0.37573   0.76207   0.00000  Uiso   1.00
C750   C     0.70771   0.38224   0.70949   0.00000  Uiso   1.00
C751   C     0.77798   0.39858   0.86615   0.00000  Uiso   1.00
C752   C     0.75647   0.10009   0.87752   0.00000  Uiso   1.00
C753   C     0.72203   0.39858   0.80052   0.00000  Uiso   1.00
C754   C     0.74318   0.05084   0.78962   0.00000  Uiso   1.00
C755   C     0.77846   0.44764   0.86572   0.00000  Uiso   1.00
C756   C     0.75682   0.05084   0.87704   0.00000  Uiso   1.00
H757   H     0.53070   0.31932   0.86425   0.00000  Uiso   1.00
H758   H     0.80166   0.46593   0.89085   0.00000  Uiso   1.00
H759   H     0.76160   0.03170   0.91176   0.00000  Uiso   1.00
H760   H     0.69835   0.46593   0.77581   0.00000  Uiso   1.00
H761   H     0.66586   0.11077   0.72495   0.00000  Uiso   1.00
H762   H     0.68075   0.16365   0.75647   0.00000  Uiso   1.00
H763   H     0.68896   0.15806   0.69025   0.00000  Uiso   1.00
H764   H     0.76533   0.14293   0.72775   0.00000  Uiso   1.00
H765   H     0.74099   0.09275   0.70814   0.00000  Uiso   1.00
H766   H     0.75776   0.36872   0.95823   0.00000  Uiso   1.00
H767   H     0.81392   0.36281   0.98463   0.00000  Uiso   1.00
H768   H     0.97183   0.18136   0.86526   0.00000  Uiso   1.00
H769   H     0.79257   0.41945   0.96794   0.00000  Uiso   1.00
H770   H     0.81278   0.33865   0.89859   0.00000  Uiso   1.00
H771   H     0.84300   0.39088   0.90260   0.00000  Uiso   1.00
H772   H     0.83415   0.11078   0.94169   0.00000  Uiso   1.00
H773   H     0.81925   0.16366   0.91020   0.00000  Uiso   1.00
H774   H     0.81106   0.15805   0.97642   0.00000  Uiso   1.00
H775   H     0.73468   0.14294   0.93892   0.00000  Uiso   1.00
H776   H     0.75902   0.09275   0.95852   0.00000  Uiso   1.00
H777   H     0.74223   0.36867   0.70843   0.00000  Uiso   1.00
H778   H     0.68607   0.36279   0.68204   0.00000  Uiso   1.00
H779   H     0.96913   0.31900   0.80104   0.00000  Uiso   1.00
H780   H     0.70745   0.41941   0.69872   0.00000  Uiso   1.00
H781   H     0.68721   0.33865   0.76809   0.00000  Uiso   1.00
H782   H     0.65700   0.39088   0.76406   0.00000  Uiso   1.00
H783   H     0.52825   0.18110   0.80152   0.00000  Uiso   1.00
H784   H     0.61180   0.31957   0.86359   0.00000  Uiso   1.00
H785   H     0.89071   0.18089   0.86476   0.00000  Uiso   1.00
H786   H     0.88804   0.31927   0.80206   0.00000  Uiso   1.00
H787   H     0.60938   0.18061   0.80237   0.00000  Uiso   1.00
H788   H     0.73840   0.03169   0.75490   0.00000  Uiso   1.00
N789   N     0.75000   0.12623   0.83333   0.00000  Uiso   1.00
N790   N     0.75000   0.37376   0.83333   0.00000  Uiso   1.00
O791   O     0.68453   0.28974   0.83334   0.00000  Uiso   1.00
O792   O     0.81547   0.21026   0.83333   0.00000  Uiso   1.00
O793   O     0.81547   0.28974   0.83333   0.00000  Uiso   1.00
O794   O     0.68453   0.21026   0.83334   0.00000  Uiso   1.00
O795   O     0.75000   0.28973   0.76178   0.00000  Uiso   1.00
O796   O     0.75000   0.21027   0.90489   0.00000  Uiso   1.00
O797   O     0.75000   0.28973   0.90489   0.00000  Uiso   1.00
O798   O     0.75000   0.21027   0.76178   0.00000  Uiso   1.00
Zn799  Zn    0.75000   0.30307   0.83333   0.00000  Uiso   1.00
Zn800  Zn    0.75000   0.19693   0.83333   0.00000  Uiso   1.00
C801   C     0.16409   0.75001   0.83317   0.00000  Uiso   1.00
C802   C     0.22154   0.94764   0.80094   0.00000  Uiso   1.00
C803   C     0.24988   0.75001   0.73972   0.00000  Uiso   1.00
C804   C     0.25012   0.75001   0.92695   0.00000  Uiso   1.00
C805   C     0.25000   0.52552   0.83333   0.00000  Uiso   1.00
C806   C     0.25000   0.97302   0.83333   0.00000  Uiso   1.00
C807   C     0.24996   0.75004   0.68850   0.00000  Uiso   1.00
C808   C     0.25004   0.75004   0.97816   0.00000  Uiso   1.00
C809   C     0.04775   0.78922   0.85015   0.00000  Uiso   1.00
C810   C     0.45363   0.71130   0.85090   0.00000  Uiso   1.00
C811   C     0.45214   0.78903   0.81552   0.00000  Uiso   1.00
C812   C     0.33590   0.75001   0.83346   0.00000  Uiso   1.00
C813   C     0.04640   0.71117   0.81561   0.00000  Uiso   1.00
C814   C     0.09377   0.78927   0.84992   0.00000  Uiso   1.00
C815   C     0.40760   0.71112   0.85077   0.00000  Uiso   1.00
C816   C     0.40613   0.78909   0.81598   0.00000  Uiso   1.00
C817   C     0.09244   0.71098   0.81595   0.00000  Uiso   1.00
C818   C     0.11613   0.75007   0.83301   0.00000  Uiso   1.00
C819   C     0.38385   0.75007   0.83343   0.00000  Uiso   1.00
C820   C     0.02405   0.75021   0.83291   0.00000  Uiso   1.00
C821   C     0.47590   0.75018   0.83310   0.00000  Uiso   1.00
C822   C     0.23737   0.62010   0.73692   0.00000  Uiso   1.00
C823   C     0.24353   0.60009   0.78915   0.00000  Uiso   1.00
C824   C     0.19047   0.63955   0.72675   0.00000  Uiso   1.00
C825   C     0.30904   0.87574   0.90460   0.00000  Uiso   1.00
C826   C     0.29229   0.88227   0.95717   0.00000  Uiso   1.00
C827   C     0.26264   0.62011   0.92975   0.00000  Uiso   1.00
C828   C     0.30954   0.63956   0.93991   0.00000  Uiso   1.00
C829   C     0.19096   0.87573   0.76207   0.00000  Uiso   1.00
C830   C     0.20771   0.88224   0.70949   0.00000  Uiso   1.00
C831   C     0.27798   0.89858   0.86615   0.00000  Uiso   1.00
C832   C     0.25647   0.60009   0.87752   0.00000  Uiso   1.00
C833   C     0.22203   0.89858   0.80052   0.00000  Uiso   1.00
C834   C     0.24318   0.55084   0.78962   0.00000  Uiso   1.00
C835   C     0.27846   0.94764   0.86572   0.00000  Uiso   1.00
C836   C     0.25682   0.55084   0.87704   0.00000  Uiso   1.00
H837   H     0.03070   0.81932   0.86425   0.00000  Uiso   1.00
H838   H     0.30166   0.96593   0.89085   0.00000  Uiso   1.00
H839   H     0.26160   0.53170   0.91176   0.00000  Uiso   1.00
H840   H     0.19835   0.96593   0.77581   0.00000  Uiso   1.00
H841   H     0.16586   0.61077   0.72495   0.00000  Uiso   1.00
H842   H     0.18075   0.66365   0.75647   0.00000  Uiso   1.00
H843   H     0.18896   0.65806   0.69025   0.00000  Uiso   1.00
H844   H     0.26533   0.64293   0.72775   0.00000  Uiso   1.00
H845   H     0.24099   0.59275   0.70814   0.00000  Uiso   1.00
H846   H     0.25776   0.86872   0.95823   0.00000  Uiso   1.00
H847   H     0.31392   0.86281   0.98463   0.00000  Uiso   1.00
H848   H     0.47183   0.68136   0.86526   0.00000  Uiso   1.00
H849   H     0.29257   0.91945   0.96794   0.00000  Uiso   1.00
H850   H     0.31278   0.83865   0.89859   0.00000  Uiso   1.00
H851   H     0.34300   0.89088   0.90260   0.00000  Uiso   1.00
H852   H     0.33415   0.61078   0.94169   0.00000  Uiso   1.00
H853   H     0.31925   0.66366   0.91020   0.00000  Uiso   1.00
H854   H     0.31106   0.65805   0.97642   0.00000  Uiso   1.00
H855   H     0.23468   0.64294   0.93892   0.00000  Uiso   1.00
H856   H     0.25902   0.59275   0.95852   0.00000  Uiso   1.00
H857   H     0.24223   0.86867   0.70843   0.00000  Uiso   1.00
H858   H     0.18607   0.86279   0.68204   0.00000  Uiso   1.00
H859   H     0.46913   0.81900   0.80104   0.00000  Uiso   1.00
H860   H     0.20745   0.91941   0.69872   0.00000  Uiso   1.00
H861   H     0.18721   0.83865   0.76809   0.00000  Uiso   1.00
H862   H     0.15700   0.89088   0.76406   0.00000  Uiso   1.00
H863   H     0.02825   0.68110   0.80152   0.00000  Uiso   1.00
H864   H     0.11180   0.81957   0.86359   0.00000  Uiso   1.00
H865   H     0.39071   0.68089   0.86476   0.00000  Uiso   1.00
H866   H     0.38804   0.81927   0.80206   0.00000  Uiso   1.00
H867   H     0.10938   0.68061   0.80237   0.00000  Uiso   1.00
H868   H     0.23840   0.53169   0.75490   0.00000  Uiso   1.00
N869   N     0.25000   0.62623   0.83333   0.00000  Uiso   1.00
N870   N     0.25000   0.87376   0.83333   0.00000  Uiso   1.00
O871   O     0.18453   0.78974   0.83334   0.00000  Uiso   1.00
O872   O     0.31547   0.71026   0.83333   0.00000  Uiso   1.00
O873   O     0.31547   0.78974   0.83333   0.00000  Uiso   1.00
O874   O     0.18453   0.71026   0.83334   0.00000  Uiso   1.00
O875   O     0.25000   0.78973   0.76178   0.00000  Uiso   1.00
O876   O     0.25000   0.71027   0.90489   0.00000  Uiso   1.00
O877   O     0.25000   0.78973   0.90489   0.00000  Uiso   1.00
O878   O     0.25000   0.71027   0.76178   0.00000  Uiso   1.00
Zn879  Zn    0.25000   0.80307   0.83333   0.00000  Uiso   1.00
Zn880  Zn    0.25000   0.69693   0.83333   0.00000  Uiso   1.00
C881   C     0.66409   0.75001   0.83317   0.00000  Uiso   1.00
C882   C     0.72154   0.94764   0.80094   0.00000  Uiso   1.00
C883   C     0.74988   0.75001   0.73972   0.00000  Uiso   1.00
C884   C     0.75012   0.75001   0.92695   0.00000  Uiso   1.00
C885   C     0.75000   0.52552   0.83333   0.00000  Uiso   1.00
C886   C     0.75000   0.97302   0.83333   0.00000  Uiso   1.00
C887   C     0.74996   0.75004   0.68850   0.00000  Uiso   1.00
C888   C     0.75004   0.75004   0.97816   0.00000  Uiso   1.00
C889   C     0.54775   0.78922   0.85015   0.00000  Uiso   1.00
C890   C     0.95363   0.71130   0.85090   0.00000  Uiso   1.00
C891   C     0.95214   0.78903   0.81552   0.00000  Uiso   1.00
C892   C     0.83590   0.75001   0.83346   0.00000  Uiso   1.00
C893   C     0.54640   0.71117   0.81561   0.00000  Uiso   1.00
C894   C     0.59377   0.78927   0.84992   0.00000  Uiso   1.00
C895   C     0.90760   0.71112   0.85077   0.00000  Uiso   1.00
C896   C     0.90613   0.78909   0.81598   0.00000  Uiso   1.00
C897   C     0.59244   0.71098   0.81595   0.00000  Uiso   1.00
C898   C     0.61613   0.75007   0.83301   0.00000  Uiso   1.00
C899   C     0.88385   0.75007   0.83343   0.00000  Uiso   1.00
C900   C     0.52405   0.75021   0.83291   0.00000  Uiso   1.00
C901   C     0.97590   0.75018   0.83310   0.00000  Uiso   1.00
C902   C     0.73737   0.62010   0.73692   0.00000  Uiso   1.00
C903   C     0.74353   0.60009   0.78915   0.00000  Uiso   1.00
C904   C     0.69047   0.63955   0.72675   0.00000  Uiso   1.00
C905   C     0.80904   0.87574   0.90460   0.00000  Uiso   1.00
C906   C     0.79229   0.88227   0.95717   0.00000  Uiso   1.00
C907   C     0.76264   0.62011   0.92975   0.00000  Uiso   1.00
C908   C     0.80954   0.63956   0.93991   0.00000  Uiso   1.00
C909   C     0.69096   0.87573   0.76207   0.00000  Uiso   1.00
C910   C     0.70771   0.88224   0.70949   0.00000  Uiso   1.00
C911   C     0.77798   0.89858   0.86615   0.00000  Uiso   1.00
C912   C     0.75647   0.60009   0.87752   0.00000  Uiso   1.00
C913   C     0.72203   0.89858   0.80052   0.00000  Uiso   1.00
C914   C     0.74318   0.55084   0.78962   0.00000  Uiso   1.00
C915   C     0.77846   0.94764   0.86572   0.00000  Uiso   1.00
C916   C     0.75682   0.55084   0.87704   0.00000  Uiso   1.00
H917   H     0.53070   0.81932   0.86425   0.00000  Uiso   1.00
H918   H     0.80166   0.96593   0.89085   0.00000  Uiso   1.00
H919   H     0.76160   0.53170   0.91176   0.00000  Uiso   1.00
H920   H     0.69835   0.96593   0.77581   0.00000  Uiso   1.00
H921   H     0.66586   0.61077   0.72495   0.00000  Uiso   1.00
H922   H     0.68075   0.66365   0.75647   0.00000  Uiso   1.00
H923   H     0.68896   0.65806   0.69025   0.00000  Uiso   1.00
H924   H     0.76533   0.64293   0.72775   0.00000  Uiso   1.00
H925   H     0.74099   0.59275   0.70814   0.00000  Uiso   1.00
H926   H     0.75776   0.86872   0.95823   0.00000  Uiso   1.00
H927   H     0.81392   0.86281   0.98463   0.00000  Uiso   1.00
H928   H     0.97183   0.68136   0.86526   0.00000  Uiso   1.00
H929   H     0.79257   0.91945   0.96794   0.00000  Uiso   1.00
H930   H     0.81278   0.83865   0.89859   0.00000  Uiso   1.00
H931   H     0.84300   0.89088   0.90260   0.00000  Uiso   1.00
H932   H     0.83415   0.61078   0.94169   0.00000  Uiso   1.00
H933   H     0.81925   0.66366   0.91020   0.00000  Uiso   1.00
H934   H     0.81106   0.65805   0.97642   0.00000  Uiso   1.00
H935   H     0.73468   0.64294   0.93892   0.00000  Uiso   1.00
H936   H     0.75902   0.59275   0.95852   0.00000  Uiso   1.00
H937   H     0.74223   0.86867   0.70843   0.00000  Uiso   1.00
H938   H     0.68607   0.86279   0.68204   0.00000  Uiso   1.00
H939   H     0.96913   0.81900   0.80104   0.00000  Uiso   1.00
H940   H     0.70745   0.91941   0.69872   0.00000  Uiso   1.00
H941   H     0.68721   0.83865   0.76809   0.00000  Uiso   1.00
H942   H     0.65700   0.89088   0.76406   0.00000  Uiso   1.00
H943   H     0.52825   0.68110   0.80152   0.00000  Uiso   1.00
H944   H     0.61180   0.81957   0.86359   0.00000  Uiso   1.00
H945   H     0.89071   0.68089   0.86476   0.00000  Uiso   1.00
H946   H     0.88804   0.81927   0.80206   0.00000  Uiso   1.00
H947   H     0.60938   0.68061   0.80237   0.00000  Uiso   1.00
H948   H     0.73840   0.53169   0.75490   0.00000  Uiso   1.00
N949   N     0.75000   0.62623   0.83333   0.00000  Uiso   1.00
N950   N     0.75000   0.87376   0.83333   0.00000  Uiso   1.00
O951   O     0.68453   0.78974   0.83334   0.00000  Uiso   1.00
O952   O     0.81547   0.71026   0.83333   0.00000  Uiso   1.00
O953   O     0.81547   0.78974   0.83333   0.00000  Uiso   1.00
O954   O     0.68453   0.71026   0.83334   0.00000  Uiso   1.00
O955   O     0.75000   0.78973   0.76178   0.00000  Uiso   1.00
O956   O     0.75000   0.71027   0.90489   0.00000  Uiso   1.00
O957   O     0.75000   0.78973   0.90489   0.00000  Uiso   1.00
O958   O     0.75000   0.71027   0.76178   0.00000  Uiso   1.00
Zn959  Zn    0.75000   0.80307   0.83333   0.00000  Uiso   1.00
Zn960  Zn    0.75000   0.69693   0.83333   0.00000  Uiso   1.00
loop_
_geom_bond_atom_site_label_1
_geom_bond_atom_site_label_2
_geom_bond_distance
_geom_bond_site_symmetry_2
_ccdc_geom_bond_type
C1     C18     1.439   .     S
C1     O71     1.300   .     A
C1     O74     1.301   .     A
C2     C6      1.397   .     A
C2     C33     1.416   .     A
C2     H40     1.083   .     S
C3     C7      1.367   .     S
C3     O75     1.289   .     A
C3     O78     1.289   .     A
C4     C8      1.367   .     S
C4     O77     1.289   .     A
C4     O76     1.289   .     A
C5     C36     1.385   .     A
C5     C34     1.385   .     A
C5     C166    1.515   1_545 S
C6     C35     1.397   .     A
C6     C165    1.515   .     S
C7     C648    1.166   1_554 S
C8     C327    1.166   .     S
C9     C14     1.381   .     A
C9     C20     1.399   .     A
C9     H37     1.083   .     S
C10    C15     1.381   .     A
C10    C21     1.399   .     A
C10    H48     1.083   .     S
C11    H59     1.083   .     S
C11    C21     1.399   .     A
C11    C16     1.381   .     A
C12    O72     1.300   .     A
C12    O73     1.300   .     A
C12    C19     1.438   .     S
C13    H63     1.083   .     S
C13    C20     1.399   .     A
C13    C17     1.381   .     A
C14    C18     1.399   .     A
C14    H64     1.084   .     S
C15    C19     1.399   .     A
C15    H65     1.083   .     S
C16    H66     1.084   .     S
C16    C19     1.399   .     A
C17    H67     1.083   .     S
C17    C18     1.399   .     A
C20    C101    1.445   1_455 S
C21    C100    1.445   .     S
C22    H44     1.102   .     S
C22    C24     1.529   .     S
C22    H45     1.110   .     S
C22    C23     1.513   .     S
C23    N69     1.407   .     A
C23    C34     1.422   .     A
C24    H42     1.103   .     S
C24    H41     1.111   .     S
C24    H43     1.110   .     S
C25    C31     1.509   .     S
C25    H50     1.089   .     S
C25    C26     1.522   .     S
C25    H51     1.112   .     S
C26    H49     1.111   .     S
C26    H47     1.111   .     S
C26    H46     1.109   .     S
C27    C32     1.513   .     S
C27    H56     1.110   .     S
C27    H55     1.102   .     S
C27    C28     1.529   .     S
C28    H54     1.110   .     S
C28    H53     1.103   .     S
C28    H52     1.111   .     S
C29    C33     1.509   .     S
C29    H61     1.089   .     S
C29    C30     1.522   .     S
C29    H62     1.112   .     S
C30    H57     1.109   .     S
C30    H60     1.110   .     S
C30    H58     1.111   .     S
C31    N70     1.387   .     A
C31    C35     1.416   .     A
C32    C36     1.422   .     A
C32    N69     1.407   .     A
C33    N70     1.387   .     A
C34    H68     1.083   .     S
C35    H38     1.083   .     S
C36    H39     1.083   .     S
N69    Zn80    2.040   .     S
N70    Zn79    2.040   .     S
O71    Zn79    2.001   .     S
O72    Zn80    2.001   .     S
O73    Zn79    2.001   .     S
O74    Zn80    2.001   .     S
O75    Zn79    1.948   .     S
O76    Zn80    1.948   .     S
O77    Zn79    1.948   .     S
O78    Zn80    1.948   .     S
C81    C98     1.439   .     S
C81    O151    1.300   .     A
C81    O154    1.301   .     A
C82    C86     1.397   .     A
C82    C113    1.416   .     A
C82    H120    1.083   .     S
C83    C87     1.367   .     S
C83    O155    1.289   .     A
C83    O158    1.289   .     A
C84    C88     1.367   .     S
C84    O157    1.289   .     A
C84    O156    1.289   .     A
C85    C116    1.385   .     A
C85    C114    1.385   .     A
C85    C246    1.515   1_545 S
C86    C115    1.397   .     A
C86    C245    1.515   .     S
C87    C728    1.166   1_554 S
C88    C407    1.166   .     S
C89    C94     1.381   .     A
C89    C100    1.399   .     A
C89    H117    1.083   .     S
C90    C95     1.381   .     A
C90    C101    1.399   .     A
C90    H128    1.083   .     S
C91    H139    1.083   .     S
C91    C101    1.399   .     A
C91    C96     1.381   .     A
C92    O152    1.300   .     A
C92    O153    1.300   .     A
C92    C99     1.438   .     S
C93    H143    1.083   .     S
C93    C100    1.399   .     A
C93    C97     1.381   .     A
C94    C98     1.399   .     A
C94    H144    1.084   .     S
C95    C99     1.399   .     A
C95    H145    1.083   .     S
C96    H146    1.084   .     S
C96    C99     1.399   .     A
C97    H147    1.083   .     S
C97    C98     1.399   .     A
C101   C20     1.445   1_655 S
C102   H124    1.102   .     S
C102   C104    1.529   .     S
C102   H125    1.110   .     S
C102   C103    1.513   .     S
C103   N149    1.407   .     A
C103   C114    1.422   .     A
C104   H122    1.103   .     S
C104   H121    1.111   .     S
C104   H123    1.110   .     S
C105   C111    1.509   .     S
C105   H130    1.089   .     S
C105   C106    1.522   .     S
C105   H131    1.112   .     S
C106   H129    1.111   .     S
C106   H127    1.111   .     S
C106   H126    1.109   .     S
C107   C112    1.513   .     S
C107   H136    1.110   .     S
C107   H135    1.102   .     S
C107   C108    1.529   .     S
C108   H134    1.110   .     S
C108   H133    1.103   .     S
C108   H132    1.111   .     S
C109   C113    1.509   .     S
C109   H141    1.089   .     S
C109   C110    1.522   .     S
C109   H142    1.112   .     S
C110   H137    1.109   .     S
C110   H140    1.110   .     S
C110   H138    1.111   .     S
C111   N150    1.387   .     A
C111   C115    1.416   .     A
C112   C116    1.422   .     A
C112   N149    1.407   .     A
C113   N150    1.387   .     A
C114   H148    1.083   .     S
C115   H118    1.083   .     S
C116   H119    1.083   .     S
N149   Zn160   2.040   .     S
N150   Zn159   2.040   .     S
O151   Zn159   2.001   .     S
O152   Zn160   2.001   .     S
O153   Zn159   2.001   .     S
O154   Zn160   2.001   .     S
O155   Zn159   1.948   .     S
O156   Zn160   1.948   .     S
O157   Zn159   1.948   .     S
O158   Zn160   1.948   .     S
C161   C178    1.439   .     S
C161   O231    1.300   .     A
C161   O234    1.301   .     A
C162   C166    1.397   .     A
C162   C193    1.416   .     A
C162   H200    1.083   .     S
C163   C167    1.367   .     S
C163   O235    1.289   .     A
C163   O238    1.289   .     A
C164   C168    1.367   .     S
C164   O237    1.289   .     A
C164   O236    1.289   .     A
C165   C196    1.385   .     A
C165   C194    1.385   .     A
C166   C195    1.397   .     A
C166   C5      1.515   1_565 S
C167   C808    1.166   1_554 S
C168   C487    1.166   .     S
C169   C174    1.381   .     A
C169   C180    1.399   .     A
C169   H197    1.083   .     S
C170   C175    1.381   .     A
C170   C181    1.399   .     A
C170   H208    1.083   .     S
C171   H219    1.083   .     S
C171   C181    1.399   .     A
C171   C176    1.381   .     A
C172   O232    1.300   .     A
C172   O233    1.300   .     A
C172   C179    1.438   .     S
C173   H223    1.083   .     S
C173   C180    1.399   .     A
C173   C177    1.381   .     A
C174   C178    1.399   .     A
C174   H224    1.084   .     S
C175   C179    1.399   .     A
C175   H225    1.083   .     S
C176   H226    1.084   .     S
C176   C179    1.399   .     A
C177   H227    1.083   .     S
C177   C178    1.399   .     A
C180   C261    1.445   1_455 S
C181   C260    1.445   .     S
C182   H204    1.102   .     S
C182   C184    1.529   .     S
C182   H205    1.110   .     S
C182   C183    1.513   .     S
C183   N229    1.407   .     A
C183   C194    1.422   .     A
C184   H202    1.103   .     S
C184   H201    1.111   .     S
C184   H203    1.110   .     S
C185   C191    1.509   .     S
C185   H210    1.089   .     S
C185   C186    1.522   .     S
C185   H211    1.112   .     S
C186   H209    1.111   .     S
C186   H207    1.111   .     S
C186   H206    1.109   .     S
C187   C192    1.513   .     S
C187   H216    1.110   .     S
C187   H215    1.102   .     S
C187   C188    1.529   .     S
C188   H214    1.110   .     S
C188   H213    1.103   .     S
C188   H212    1.111   .     S
C189   C193    1.509   .     S
C189   H221    1.089   .     S
C189   C190    1.522   .     S
C189   H222    1.112   .     S
C190   H217    1.109   .     S
C190   H220    1.110   .     S
C190   H218    1.111   .     S
C191   N230    1.387   .     A
C191   C195    1.416   .     A
C192   C196    1.422   .     A
C192   N229    1.407   .     A
C193   N230    1.387   .     A
C194   H228    1.083   .     S
C195   H198    1.083   .     S
C196   H199    1.083   .     S
N229   Zn240   2.040   .     S
N230   Zn239   2.040   .     S
O231   Zn239   2.001   .     S
O232   Zn240   2.001   .     S
O233   Zn239   2.001   .     S
O234   Zn240   2.001   .     S
O235   Zn239   1.948   .     S
O236   Zn240   1.948   .     S
O237   Zn239   1.948   .     S
O238   Zn240   1.948   .     S
C241   C258    1.439   .     S
C241   O311    1.300   .     A
C241   O314    1.301   .     A
C242   C246    1.397   .     A
C242   C273    1.416   .     A
C242   H280    1.083   .     S
C243   C247    1.367   .     S
C243   O315    1.289   .     A
C243   O318    1.289   .     A
C244   C248    1.367   .     S
C244   O317    1.289   .     A
C244   O316    1.289   .     A
C245   C276    1.385   .     A
C245   C274    1.385   .     A
C246   C275    1.397   .     A
C246   C85     1.515   1_565 S
C247   C888    1.166   1_554 S
C248   C567    1.166   .     S
C249   C254    1.381   .     A
C249   C260    1.399   .     A
C249   H277    1.083   .     S
C250   C255    1.381   .     A
C250   C261    1.399   .     A
C250   H288    1.083   .     S
C251   H299    1.083   .     S
C251   C261    1.399   .     A
C251   C256    1.381   .     A
C252   O312    1.300   .     A
C252   O313    1.300   .     A
C252   C259    1.438   .     S
C253   H303    1.083   .     S
C253   C260    1.399   .     A
C253   C257    1.381   .     A
C254   C258    1.399   .     A
C254   H304    1.084   .     S
C255   C259    1.399   .     A
C255   H305    1.083   .     S
C256   H306    1.084   .     S
C256   C259    1.399   .     A
C257   H307    1.083   .     S
C257   C258    1.399   .     A
C261   C180    1.445   1_655 S
C262   H284    1.102   .     S
C262   C264    1.529   .     S
C262   H285    1.110   .     S
C262   C263    1.513   .     S
C263   N309    1.407   .     A
C263   C274    1.422   .     A
C264   H282    1.103   .     S
C264   H281    1.111   .     S
C264   H283    1.110   .     S
C265   C271    1.509   .     S
C265   H290    1.089   .     S
C265   C266    1.522   .     S
C265   H291    1.112   .     S
C266   H289    1.111   .     S
C266   H287    1.111   .     S
C266   H286    1.109   .     S
C267   C272    1.513   .     S
C267   H296    1.110   .     S
C267   H295    1.102   .     S
C267   C268    1.529   .     S
C268   H294    1.110   .     S
C268   H293    1.103   .     S
C268   H292    1.111   .     S
C269   C273    1.509   .     S
C269   H301    1.089   .     S
C269   C270    1.522   .     S
C269   H302    1.112   .     S
C270   H297    1.109   .     S
C270   H300    1.110   .     S
C270   H298    1.111   .     S
C271   N310    1.387   .     A
C271   C275    1.416   .     A
C272   C276    1.422   .     A
C272   N309    1.407   .     A
C273   N310    1.387   .     A
C274   H308    1.083   .     S
C275   H278    1.083   .     S
C276   H279    1.083   .     S
N309   Zn320   2.040   .     S
N310   Zn319   2.040   .     S
O311   Zn319   2.001   .     S
O312   Zn320   2.001   .     S
O313   Zn319   2.001   .     S
O314   Zn320   2.001   .     S
O315   Zn319   1.948   .     S
O316   Zn320   1.948   .     S
O317   Zn319   1.948   .     S
O318   Zn320   1.948   .     S
C321   C338    1.439   .     S
C321   O391    1.300   .     A
C321   O394    1.301   .     A
C322   C326    1.397   .     A
C322   C353    1.416   .     A
C322   H360    1.083   .     S
C323   C327    1.367   .     S
C323   O395    1.289   .     A
C323   O398    1.289   .     A
C324   C328    1.367   .     S
C324   O397    1.289   .     A
C324   O396    1.289   .     A
C325   C356    1.385   .     A
C325   C354    1.385   .     A
C325   C486    1.515   1_545 S
C326   C355    1.397   .     A
C326   C485    1.515   .     S
C328   C647    1.166   .     S
C329   C334    1.381   .     A
C329   C340    1.399   .     A
C329   H357    1.083   .     S
C330   C335    1.381   .     A
C330   C341    1.399   .     A
C330   H368    1.083   .     S
C331   H379    1.083   .     S
C331   C341    1.399   .     A
C331   C336    1.381   .     A
C332   O392    1.300   .     A
C332   O393    1.300   .     A
C332   C339    1.438   .     S
C333   H383    1.083   .     S
C333   C340    1.399   .     A
C333   C337    1.381   .     A
C334   C338    1.399   .     A
C334   H384    1.084   .     S
C335   C339    1.399   .     A
C335   H385    1.083   .     S
C336   H386    1.084   .     S
C336   C339    1.399   .     A
C337   H387    1.083   .     S
C337   C338    1.399   .     A
C340   C421    1.445   1_455 S
C341   C420    1.445   .     S
C342   H364    1.102   .     S
C342   C344    1.529   .     S
C342   H365    1.110   .     S
C342   C343    1.513   .     S
C343   N389    1.407   .     A
C343   C354    1.422   .     A
C344   H362    1.103   .     S
C344   H361    1.111   .     S
C344   H363    1.110   .     S
C345   C351    1.509   .     S
C345   H370    1.089   .     S
C345   C346    1.522   .     S
C345   H371    1.112   .     S
C346   H369    1.111   .     S
C346   H367    1.111   .     S
C346   H366    1.109   .     S
C347   C352    1.513   .     S
C347   H376    1.110   .     S
C347   H375    1.102   .     S
C347   C348    1.529   .     S
C348   H374    1.110   .     S
C348   H373    1.103   .     S
C348   H372    1.111   .     S
C349   C353    1.509   .     S
C349   H381    1.089   .     S
C349   C350    1.522   .     S
C349   H382    1.112   .     S
C350   H377    1.109   .     S
C350   H380    1.110   .     S
C350   H378    1.111   .     S
C351   N390    1.387   .     A
C351   C355    1.416   .     A
C352   C356    1.422   .     A
C352   N389    1.407   .     A
C353   N390    1.387   .     A
C354   H388    1.083   .     S
C355   H358    1.083   .     S
C356   H359    1.083   .     S
N389   Zn400   2.040   .     S
N390   Zn399   2.040   .     S
O391   Zn399   2.001   .     S
O392   Zn400   2.001   .     S
O393   Zn399   2.001   .     S
O394   Zn400   2.001   .     S
O395   Zn399   1.948   .     S
O396   Zn400   1.948   .     S
O397   Zn399   1.948   .     S
O398   Zn400   1.948   .     S
C401   C418    1.439   .     S
C401   O471    1.300   .     A
C401   O474    1.301   .     A
C402   C406    1.397   .     A
C402   C433    1.416   .     A
C402   H440    1.083   .     S
C403   C407    1.367   .     S
C403   O475    1.289   .     A
C403   O478    1.289   .     A
C404   C408    1.367   .     S
C404   O477    1.289   .     A
C404   O476    1.289   .     A
C405   C436    1.385   .     A
C405   C434    1.385   .     A
C405   C566    1.515   1_545 S
C406   C435    1.397   .     A
C406   C565    1.515   .     S
C408   C727    1.166   .     S
C409   C414    1.381   .     A
C409   C420    1.399   .     A
C409   H437    1.083   .     S
C410   C415    1.381   .     A
C410   C421    1.399   .     A
C410   H448    1.083   .     S
C411   H459    1.083   .     S
C411   C421    1.399   .     A
C411   C416    1.381   .     A
C412   O472    1.300   .     A
C412   O473    1.300   .     A
C412   C419    1.438   .     S
C413   H463    1.083   .     S
C413   C420    1.399   .     A
C413   C417    1.381   .     A
C414   C418    1.399   .     A
C414   H464    1.084   .     S
C415   C419    1.399   .     A
C415   H465    1.083   .     S
C416   H466    1.084   .     S
C416   C419    1.399   .     A
C417   H467    1.083   .     S
C417   C418    1.399   .     A
C421   C340    1.445   1_655 S
C422   H444    1.102   .     S
C422   C424    1.529   .     S
C422   H445    1.110   .     S
C422   C423    1.513   .     S
C423   N469    1.407   .     A
C423   C434    1.422   .     A
C424   H442    1.103   .     S
C424   H441    1.111   .     S
C424   H443    1.110   .     S
C425   C431    1.509   .     S
C425   H450    1.089   .     S
C425   C426    1.522   .     S
C425   H451    1.112   .     S
C426   H449    1.111   .     S
C426   H447    1.111   .     S
C426   H446    1.109   .     S
C427   C432    1.513   .     S
C427   H456    1.110   .     S
C427   H455    1.102   .     S
C427   C428    1.529   .     S
C428   H454    1.110   .     S
C428   H453    1.103   .     S
C428   H452    1.111   .     S
C429   C433    1.509   .     S
C429   H461    1.089   .     S
C429   C430    1.522   .     S
C429   H462    1.112   .     S
C430   H457    1.109   .     S
C430   H460    1.110   .     S
C430   H458    1.111   .     S
C431   N470    1.387   .     A
C431   C435    1.416   .     A
C432   C436    1.422   .     A
C432   N469    1.407   .     A
C433   N470    1.387   .     A
C434   H468    1.083   .     S
C435   H438    1.083   .     S
C436   H439    1.083   .     S
N469   Zn480   2.040   .     S
N470   Zn479   2.040   .     S
O471   Zn479   2.001   .     S
O472   Zn480   2.001   .     S
O473   Zn479   2.001   .     S
O474   Zn480   2.001   .     S
O475   Zn479   1.948   .     S
O476   Zn480   1.948   .     S
O477   Zn479   1.948   .     S
O478   Zn480   1.948   .     S
C481   C498    1.439   .     S
C481   O551    1.300   .     A
C481   O554    1.301   .     A
C482   C486    1.397   .     A
C482   C513    1.416   .     A
C482   H520    1.083   .     S
C483   C487    1.367   .     S
C483   O555    1.289   .     A
C483   O558    1.289   .     A
C484   C488    1.367   .     S
C484   O557    1.289   .     A
C484   O556    1.289   .     A
C485   C516    1.385   .     A
C485   C514    1.385   .     A
C486   C515    1.397   .     A
C486   C325    1.515   1_565 S
C488   C807    1.166   .     S
C489   C494    1.381   .     A
C489   C500    1.399   .     A
C489   H517    1.083   .     S
C490   C495    1.381   .     A
C490   C501    1.399   .     A
C490   H528    1.083   .     S
C491   H539    1.083   .     S
C491   C501    1.399   .     A
C491   C496    1.381   .     A
C492   O552    1.300   .     A
C492   O553    1.300   .     A
C492   C499    1.438   .     S
C493   H543    1.083   .     S
C493   C500    1.399   .     A
C493   C497    1.381   .     A
C494   C498    1.399   .     A
C494   H544    1.084   .     S
C495   C499    1.399   .     A
C495   H545    1.083   .     S
C496   H546    1.084   .     S
C496   C499    1.399   .     A
C497   H547    1.083   .     S
C497   C498    1.399   .     A
C500   C581    1.445   1_455 S
C501   C580    1.445   .     S
C502   H524    1.102   .     S
C502   C504    1.529   .     S
C502   H525    1.110   .     S
C502   C503    1.513   .     S
C503   N549    1.407   .     A
C503   C514    1.422   .     A
C504   H522    1.103   .     S
C504   H521    1.111   .     S
C504   H523    1.110   .     S
C505   C511    1.509   .     S
C505   H530    1.089   .     S
C505   C506    1.522   .     S
C505   H531    1.112   .     S
C506   H529    1.111   .     S
C506   H527    1.111   .     S
C506   H526    1.109   .     S
C507   C512    1.513   .     S
C507   H536    1.110   .     S
C507   H535    1.102   .     S
C507   C508    1.529   .     S
C508   H534    1.110   .     S
C508   H533    1.103   .     S
C508   H532    1.111   .     S
C509   C513    1.509   .     S
C509   H541    1.089   .     S
C509   C510    1.522   .     S
C509   H542    1.112   .     S
C510   H537    1.109   .     S
C510   H540    1.110   .     S
C510   H538    1.111   .     S
C511   N550    1.387   .     A
C511   C515    1.416   .     A
C512   C516    1.422   .     A
C512   N549    1.407   .     A
C513   N550    1.387   .     A
C514   H548    1.083   .     S
C515   H518    1.083   .     S
C516   H519    1.083   .     S
N549   Zn560   2.040   .     S
N550   Zn559   2.040   .     S
O551   Zn559   2.001   .     S
O552   Zn560   2.001   .     S
O553   Zn559   2.001   .     S
O554   Zn560   2.001   .     S
O555   Zn559   1.948   .     S
O556   Zn560   1.948   .     S
O557   Zn559   1.948   .     S
O558   Zn560   1.948   .     S
C561   C578    1.439   .     S
C561   O631    1.300   .     A
C561   O634    1.301   .     A
C562   C566    1.397   .     A
C562   C593    1.416   .     A
C562   H600    1.083   .     S
C563   C567    1.367   .     S
C563   O635    1.289   .     A
C563   O638    1.289   .     A
C564   C568    1.367   .     S
C564   O637    1.289   .     A
C564   O636    1.289   .     A
C565   C596    1.385   .     A
C565   C594    1.385   .     A
C566   C595    1.397   .     A
C566   C405    1.515   1_565 S
C568   C887    1.166   .     S
C569   C574    1.381   .     A
C569   C580    1.399   .     A
C569   H597    1.083   .     S
C570   C575    1.381   .     A
C570   C581    1.399   .     A
C570   H608    1.083   .     S
C571   H619    1.083   .     S
C571   C581    1.399   .     A
C571   C576    1.381   .     A
C572   O632    1.300   .     A
C572   O633    1.300   .     A
C572   C579    1.438   .     S
C573   H623    1.083   .     S
C573   C580    1.399   .     A
C573   C577    1.381   .     A
C574   C578    1.399   .     A
C574   H624    1.084   .     S
C575   C579    1.399   .     A
C575   H625    1.083   .     S
C576   H626    1.084   .     S
C576   C579    1.399   .     A
C577   H627    1.083   .     S
C577   C578    1.399   .     A
C581   C500    1.445   1_655 S
C582   H604    1.102   .     S
C582   C584    1.529   .     S
C582   H605    1.110   .     S
C582   C583    1.513   .     S
C583   N629    1.407   .     A
C583   C594    1.422   .     A
C584   H602    1.103   .     S
C584   H601    1.111   .     S
C584   H603    1.110   .     S
C585   C591    1.509   .     S
C585   H610    1.089   .     S
C585   C586    1.522   .     S
C585   H611    1.112   .     S
C586   H609    1.111   .     S
C586   H607    1.111   .     S
C586   H606    1.109   .     S
C587   C592    1.513   .     S
C587   H616    1.110   .     S
C587   H615    1.102   .     S
C587   C588    1.529   .     S
C588   H614    1.110   .     S
C588   H613    1.103   .     S
C588   H612    1.111   .     S
C589   C593    1.509   .     S
C589   H621    1.089   .     S
C589   C590    1.522   .     S
C589   H622    1.112   .     S
C590   H617    1.109   .     S
C590   H620    1.110   .     S
C590   H618    1.111   .     S
C591   N630    1.387   .     A
C591   C595    1.416   .     A
C592   C596    1.422   .     A
C592   N629    1.407   .     A
C593   N630    1.387   .     A
C594   H628    1.083   .     S
C595   H598    1.083   .     S
C596   H599    1.083   .     S
N629   Zn640   2.040   .     S
N630   Zn639   2.040   .     S
O631   Zn639   2.001   .     S
O632   Zn640   2.001   .     S
O633   Zn639   2.001   .     S
O634   Zn640   2.001   .     S
O635   Zn639   1.948   .     S
O636   Zn640   1.948   .     S
O637   Zn639   1.948   .     S
O638   Zn640   1.948   .     S
C641   C658    1.439   .     S
C641   O711    1.300   .     A
C641   O714    1.301   .     A
C642   C646    1.397   .     A
C642   C673    1.416   .     A
C642   H680    1.083   .     S
C643   C647    1.367   .     S
C643   O715    1.289   .     A
C643   O718    1.289   .     A
C644   C648    1.367   .     S
C644   O717    1.289   .     A
C644   O716    1.289   .     A
C645   C676    1.385   .     A
C645   C674    1.385   .     A
C645   C806    1.515   1_545 S
C646   C675    1.397   .     A
C646   C805    1.515   .     S
C648   C7      1.166   1_556 S
C649   C654    1.381   .     A
C649   C660    1.399   .     A
C649   H677    1.083   .     S
C650   C655    1.381   .     A
C650   C661    1.399   .     A
C650   H688    1.083   .     S
C651   H699    1.083   .     S
C651   C661    1.399   .     A
C651   C656    1.381   .     A
C652   O712    1.300   .     A
C652   O713    1.300   .     A
C652   C659    1.438   .     S
C653   H703    1.083   .     S
C653   C660    1.399   .     A
C653   C657    1.381   .     A
C654   C658    1.399   .     A
C654   H704    1.084   .     S
C655   C659    1.399   .     A
C655   H705    1.083   .     S
C656   H706    1.084   .     S
C656   C659    1.399   .     A
C657   H707    1.083   .     S
C657   C658    1.399   .     A
C660   C741    1.445   1_455 S
C661   C740    1.445   .     S
C662   H684    1.102   .     S
C662   C664    1.529   .     S
C662   H685    1.110   .     S
C662   C663    1.513   .     S
C663   N709    1.407   .     A
C663   C674    1.422   .     A
C664   H682    1.103   .     S
C664   H681    1.111   .     S
C664   H683    1.110   .     S
C665   C671    1.509   .     S
C665   H690    1.089   .     S
C665   C666    1.522   .     S
C665   H691    1.112   .     S
C666   H689    1.111   .     S
C666   H687    1.111   .     S
C666   H686    1.109   .     S
C667   C672    1.513   .     S
C667   H696    1.110   .     S
C667   H695    1.102   .     S
C667   C668    1.529   .     S
C668   H694    1.110   .     S
C668   H693    1.103   .     S
C668   H692    1.111   .     S
C669   C673    1.509   .     S
C669   H701    1.089   .     S
C669   C670    1.522   .     S
C669   H702    1.112   .     S
C670   H697    1.109   .     S
C670   H700    1.110   .     S
C670   H698    1.111   .     S
C671   N710    1.387   .     A
C671   C675    1.416   .     A
C672   C676    1.422   .     A
C672   N709    1.407   .     A
C673   N710    1.387   .     A
C674   H708    1.083   .     S
C675   H678    1.083   .     S
C676   H679    1.083   .     S
N709   Zn720   2.040   .     S
N710   Zn719   2.040   .     S
O711   Zn719   2.001   .     S
O712   Zn720   2.001   .     S
O713   Zn719   2.001   .     S
O714   Zn720   2.001   .     S
O715   Zn719   1.948   .     S
O716   Zn720   1.948   .     S
O717   Zn719   1.948   .     S
O718   Zn720   1.948   .     S
C721   C738    1.439   .     S
C721   O791    1.300   .     A
C721   O794    1.301   .     A
C722   C726    1.397   .     A
C722   C753    1.416   .     A
C722   H760    1.083   .     S
C723   C727    1.367   .     S
C723   O795    1.289   .     A
C723   O798    1.289   .     A
C724   C728    1.367   .     S
C724   O797    1.289   .     A
C724   O796    1.289   .     A
C725   C756    1.385   .     A
C725   C754    1.385   .     A
C725   C886    1.515   1_545 S
C726   C755    1.397   .     A
C726   C885    1.515   .     S
C728   C87     1.166   1_556 S
C729   C734    1.381   .     A
C729   C740    1.399   .     A
C729   H757    1.083   .     S
C730   C735    1.381   .     A
C730   C741    1.399   .     A
C730   H768    1.083   .     S
C731   H779    1.083   .     S
C731   C741    1.399   .     A
C731   C736    1.381   .     A
C732   O792    1.300   .     A
C732   O793    1.300   .     A
C732   C739    1.438   .     S
C733   H783    1.083   .     S
C733   C740    1.399   .     A
C733   C737    1.381   .     A
C734   C738    1.399   .     A
C734   H784    1.084   .     S
C735   C739    1.399   .     A
C735   H785    1.083   .     S
C736   H786    1.084   .     S
C736   C739    1.399   .     A
C737   H787    1.083   .     S
C737   C738    1.399   .     A
C741   C660    1.445   1_655 S
C742   H764    1.102   .     S
C742   C744    1.529   .     S
C742   H765    1.110   .     S
C742   C743    1.513   .     S
C743   N789    1.407   .     A
C743   C754    1.422   .     A
C744   H762    1.103   .     S
C744   H761    1.111   .     S
C744   H763    1.110   .     S
C745   C751    1.509   .     S
C745   H770    1.089   .     S
C745   C746    1.522   .     S
C745   H771    1.112   .     S
C746   H769    1.111   .     S
C746   H767    1.111   .     S
C746   H766    1.109   .     S
C747   C752    1.513   .     S
C747   H776    1.110   .     S
C747   H775    1.102   .     S
C747   C748    1.529   .     S
C748   H774    1.110   .     S
C748   H773    1.103   .     S
C748   H772    1.111   .     S
C749   C753    1.509   .     S
C749   H781    1.089   .     S
C749   C750    1.522   .     S
C749   H782    1.112   .     S
C750   H777    1.109   .     S
C750   H780    1.110   .     S
C750   H778    1.111   .     S
C751   N790    1.387   .     A
C751   C755    1.416   .     A
C752   C756    1.422   .     A
C752   N789    1.407   .     A
C753   N790    1.387   .     A
C754   H788    1.083   .     S
C755   H758    1.083   .     S
C756   H759    1.083   .     S
N789   Zn800   2.040   .     S
N790   Zn799   2.040   .     S
O791   Zn799   2.001   .     S
O792   Zn800   2.001   .     S
O793   Zn799   2.001   .     S
O794   Zn800   2.001   .     S
O795   Zn799   1.948   .     S
O796   Zn800   1.948   .     S
O797   Zn799   1.948   .     S
O798   Zn800   1.948   .     S
C801   C818    1.439   .     S
C801   O871    1.300   .     A
C801   O874    1.301   .     A
C802   C806    1.397   .     A
C802   C833    1.416   .     A
C802   H840    1.083   .     S
C803   C807    1.367   .     S
C803   O875    1.289   .     A
C803   O878    1.289   .     A
C804   C808    1.367   .     S
C804   O877    1.289   .     A
C804   O876    1.289   .     A
C805   C836    1.385   .     A
C805   C834    1.385   .     A
C806   C835    1.397   .     A
C806   C645    1.515   1_565 S
C808   C167    1.166   1_556 S
C809   C814    1.381   .     A
C809   C820    1.399   .     A
C809   H837    1.083   .     S
C810   C815    1.381   .     A
C810   C821    1.399   .     A
C810   H848    1.083   .     S
C811   H859    1.083   .     S
C811   C821    1.399   .     A
C811   C816    1.381   .     A
C812   O872    1.300   .     A
C812   O873    1.300   .     A
C812   C819    1.438   .     S
C813   H863    1.083   .     S
C813   C820    1.399   .     A
C813   C817    1.381   .     A
C814   C818    1.399   .     A
C814   H864    1.084   .     S
C815   C819    1.399   .     A
C815   H865    1.083   .     S
C816   H866    1.084   .     S
C816   C819    1.399   .     A
C817   H867    1.083   .     S
C817   C818    1.399   .     A
C820   C901    1.445   1_455 S
C821   C900    1.445   .     S
C822   H844    1.102   .     S
C822   C824    1.529   .     S
C822   H845    1.110   .     S
C822   C823    1.513   .     S
C823   N869    1.407   .     A
C823   C834    1.422   .     A
C824   H842    1.103   .     S
C824   H841    1.111   .     S
C824   H843    1.110   .     S
C825   C831    1.509   .     S
C825   H850    1.089   .     S
C825   C826    1.522   .     S
C825   H851    1.112   .     S
C826   H849    1.111   .     S
C826   H847    1.111   .     S
C826   H846    1.109   .     S
C827   C832    1.513   .     S
C827   H856    1.110   .     S
C827   H855    1.102   .     S
C827   C828    1.529   .     S
C828   H854    1.110   .     S
C828   H853    1.103   .     S
C828   H852    1.111   .     S
C829   C833    1.509   .     S
C829   H861    1.089   .     S
C829   C830    1.522   .     S
C829   H862    1.112   .     S
C830   H857    1.109   .     S
C830   H860    1.110   .     S
C830   H858    1.111   .     S
C831   N870    1.387   .     A
C831   C835    1.416   .     A
C832   C836    1.422   .     A
C832   N869    1.407   .     A
C833   N870    1.387   .     A
C834   H868    1.083   .     S
C835   H838    1.083   .     S
C836   H839    1.083   .     S
N869   Zn880   2.040   .     S
N870   Zn879   2.040   .     S
O871   Zn879   2.001   .     S
O872   Zn880   2.001   .     S
O873   Zn879   2.001   .     S
O874   Zn880   2.001   .     S
O875   Zn879   1.948   .     S
O876   Zn880   1.948   .     S
O877   Zn879   1.948   .     S
O878   Zn880   1.948   .     S
C881   C898    1.439   .     S
C881   O951    1.300   .     A
C881   O954    1.301   .     A
C882   C886    1.397   .     A
C882   C913    1.416   .     A
C882   H920    1.083   .     S
C883   C887    1.367   .     S
C883   O955    1.289   .     A
C883   O958    1.289   .     A
C884   C888    1.367   .     S
C884   O957    1.289   .     A
C884   O956    1.289   .     A
C885   C916    1.385   .     A
C885   C914    1.385   .     A
C886   C915    1.397   .     A
C886   C725    1.515   1_565 S
C888   C247    1.166   1_556 S
C889   C894    1.381   .     A
C889   C900    1.399   .     A
C889   H917    1.083   .     S
C890   C895    1.381   .     A
C890   C901    1.399   .     A
C890   H928    1.083   .     S
C891   H939    1.083   .     S
C891   C901    1.399   .     A
C891   C896    1.381   .     A
C892   O952    1.300   .     A
C892   O953    1.300   .     A
C892   C899    1.438   .     S
C893   H943    1.083   .     S
C893   C900    1.399   .     A
C893   C897    1.381   .     A
C894   C898    1.399   .     A
C894   H944    1.084   .     S
C895   C899    1.399   .     A
C895   H945    1.083   .     S
C896   H946    1.084   .     S
C896   C899    1.399   .     A
C897   H947    1.083   .     S
C897   C898    1.399   .     A
C901   C820    1.445   1_655 S
C902   H924    1.102   .     S
C902   C904    1.529   .     S
C902   H925    1.110   .     S
C902   C903    1.513   .     S
C903   N949    1.407   .     A
C903   C914    1.422   .     A
C904   H922    1.103   .     S
C904   H921    1.111   .     S
C904   H923    1.110   .     S
C905   C911    1.509   .     S
C905   H930    1.089   .     S
C905   C906    1.522   .     S
C905   H931    1.112   .     S
C906   H929    1.111   .     S
C906   H927    1.111   .     S
C906   H926    1.109   .     S
C907   C912    1.513   .     S
C907   H936    1.110   .     S
C907   H935    1.102   .     S
C907   C908    1.529   .     S
C908   H934    1.110   .     S
C908   H933    1.103   .     S
C908   H932    1.111   .     S
C909   C913    1.509   .     S
C909   H941    1.089   .     S
C909   C910    1.522   .     S
C909   H942    1.112   .     S
C910   H937    1.109   .     S
C910   H940    1.110   .     S
C910   H938    1.111   .     S
C911   N950    1.387   .     A
C911   C915    1.416   .     A
C912   C916    1.422   .     A
C912   N949    1.407   .     A
C913   N950    1.387   .     A
C914   H948    1.083   .     S
C915   H918    1.083   .     S
C916   H919    1.083   .     S
N949   Zn960   2.040   .     S
N950   Zn959   2.040   .     S
O951   Zn959   2.001   .     S
O952   Zn960   2.001   .     S
O953   Zn959   2.001   .     S
O954   Zn960   2.001   .     S
O955   Zn959   1.948   .     S
O956   Zn960   1.948   .     S
O957   Zn959   1.948   .     S
O958   Zn960   1.948   .     S
