data_str_m3_o1_o18_pcu_sym.117
_audit_creation_date              2020-01-03
_audit_creation_method            'Materials Studio'
_symmetry_space_group_name_H-M    'P1'
_symmetry_Int_Tables_number       1
_symmetry_cell_setting            triclinic
loop_
_symmetry_equiv_pos_as_xyz
  x,y,z
_cell_length_a                    29.5752
_cell_length_b                    32.2055
_cell_length_c                    31.0687
_cell_angle_alpha                 90.0288
_cell_angle_beta                  66.0191
_cell_angle_gamma                 90.3852
loop_
_atom_site_label
_atom_site_type_symbol
_atom_site_fract_x
_atom_site_fract_y
_atom_site_fract_z
_atom_site_U_iso_or_equiv
_atom_site_adp_type
_atom_site_occupancy
C1     C     0.16748   0.24666   0.24881   0.00000  Uiso   1.00
C2     C     0.16585   0.08667   0.25119   0.00000  Uiso   1.00
C3     C     0.11319   0.14547   0.05170   0.00000  Uiso   1.00
C4     C     0.22018   0.18772   0.44827   0.00000  Uiso   1.00
C5     C     0.07957   0.13623   0.03241   0.00000  Uiso   1.00
C6     C     0.25380   0.19697   0.46755   0.00000  Uiso   1.00
C7     C     0.21278   0.31339   0.22937   0.00000  Uiso   1.00
C8     C     0.12055   0.01994   0.27062   0.00000  Uiso   1.00
C9     C     0.21080   0.02257   0.23103   0.00000  Uiso   1.00
C10    C     0.12254   0.31077   0.26896   0.00000  Uiso   1.00
C11    C     0.16523   0.04253   0.25139   0.00000  Uiso   1.00
C12    C     0.16810   0.29081   0.24861   0.00000  Uiso   1.00
C13    C     0.32296   0.14308   0.21841   0.00000  Uiso   1.00
C14    C     0.01037   0.19026   0.28159   0.00000  Uiso   1.00
C15    C     0.03739   0.14308   0.21858   0.00000  Uiso   1.00
C16    C     0.29594   0.19025   0.28142   0.00000  Uiso   1.00
C17    C     0.13517   0.16599   0.33845   0.00000  Uiso   1.00
C18    C     0.19816   0.16734   0.16155   0.00000  Uiso   1.00
C19    C     0.11425   0.16256   0.39007   0.00000  Uiso   1.00
C20    C     0.21908   0.17075   0.10993   0.00000  Uiso   1.00
C21    C     0.05716   0.13361   0.46491   0.00000  Uiso   1.00
C22    C     0.27619   0.19965   0.03507   0.00000  Uiso   1.00
C23    C     0.06909   0.14228   0.41713   0.00000  Uiso   1.00
C24    C     0.26425   0.19101   0.08286   0.00000  Uiso   1.00
C25    C     0.14493   0.17583   0.41144   0.00000  Uiso   1.00
C26    C     0.18840   0.15746   0.08856   0.00000  Uiso   1.00
C27    C     0.13640   0.16431   0.45739   0.00000  Uiso   1.00
C28    C     0.19695   0.16893   0.04259   0.00000  Uiso   1.00
C29    C     0.09081   0.14444   0.48506   0.00000  Uiso   1.00
C30    C     0.24255   0.18879   0.01492   0.00000  Uiso   1.00
C31    C     0.17245   0.17166   0.47612   0.00000  Uiso   1.00
C32    C     0.16091   0.16156   0.02387   0.00000  Uiso   1.00
H33    H     0.04431   0.12300   0.05552   0.00000  Uiso   1.00
H34    H     0.28907   0.21018   0.44444   0.00000  Uiso   1.00
H35    H     0.15700   0.13859   0.10953   0.00000  Uiso   1.00
H36    H     0.17633   0.19471   0.39050   0.00000  Uiso   1.00
H37    H     0.09992   0.13983   0.08897   0.00000  Uiso   1.00
H38    H     0.23346   0.19333   0.41099   0.00000  Uiso   1.00
H39    H     0.24510   0.04004   0.21560   0.00000  Uiso   1.00
H40    H     0.08823   0.29330   0.28439   0.00000  Uiso   1.00
H41    H     0.06626   0.12420   0.19353   0.00000  Uiso   1.00
H42    H     0.26708   0.20913   0.30647   0.00000  Uiso   1.00
N43    N     0.04759   0.16668   0.25001   0.00000  Uiso   1.00
N44    N     0.28574   0.16666   0.24999   0.00000  Uiso   1.00
O45    O     0.12846   0.22775   0.25001   0.00000  Uiso   1.00
O46    O     0.20488   0.10558   0.25000   0.00000  Uiso   1.00
O47    O     0.20490   0.22774   0.25000   0.00000  Uiso   1.00
O48    O     0.12843   0.10559   0.25000   0.00000  Uiso   1.00
O49    O     0.10661   0.16667   0.31613   0.00000  Uiso   1.00
O50    O     0.22672   0.16666   0.18388   0.00000  Uiso   1.00
O51    O     0.18305   0.16666   0.31612   0.00000  Uiso   1.00
O52    O     0.15028   0.16667   0.18388   0.00000  Uiso   1.00
Zn53   Zn    0.11562   0.16667   0.25000   0.00000  Uiso   1.00
Zn54   Zn    0.21771   0.16666   0.25000   0.00000  Uiso   1.00
Br55   Br    0.30986   0.20800   0.10974   0.00000  Uiso   1.00
Br56   Br    0.02348   0.12532   0.39024   0.00000  Uiso   1.00
Cl57   Cl    0.00120   0.10689   0.49834   0.00000  Uiso   1.00
Cl58   Cl    0.33215   0.22636   0.00162   0.00000  Uiso   1.00
Br59   Br    0.27756   0.28952   0.19873   0.00000  Uiso   1.00
Br60   Br    0.05578   0.04381   0.30126   0.00000  Uiso   1.00
Cl61   Cl    0.31250   0.11230   0.17677   0.00000  Uiso   1.00
Cl62   Cl    0.02083   0.22103   0.32323   0.00000  Uiso   1.00
C63    C     0.50081   0.24666   0.24881   0.00000  Uiso   1.00
C64    C     0.49919   0.08667   0.25119   0.00000  Uiso   1.00
C65    C     0.44652   0.14547   0.05170   0.00000  Uiso   1.00
C66    C     0.55351   0.18772   0.44827   0.00000  Uiso   1.00
C67    C     0.41291   0.13623   0.03241   0.00000  Uiso   1.00
C68    C     0.58713   0.19697   0.46755   0.00000  Uiso   1.00
C69    C     0.54611   0.31339   0.22937   0.00000  Uiso   1.00
C70    C     0.45389   0.01994   0.27062   0.00000  Uiso   1.00
C71    C     0.54413   0.02257   0.23103   0.00000  Uiso   1.00
C72    C     0.45587   0.31077   0.26896   0.00000  Uiso   1.00
C73    C     0.49857   0.04253   0.25139   0.00000  Uiso   1.00
C74    C     0.50143   0.29081   0.24861   0.00000  Uiso   1.00
C75    C     0.65629   0.14308   0.21841   0.00000  Uiso   1.00
C76    C     0.34371   0.19026   0.28159   0.00000  Uiso   1.00
C77    C     0.37072   0.14308   0.21858   0.00000  Uiso   1.00
C78    C     0.62928   0.19025   0.28142   0.00000  Uiso   1.00
C79    C     0.46851   0.16599   0.33845   0.00000  Uiso   1.00
C80    C     0.53149   0.16734   0.16155   0.00000  Uiso   1.00
C81    C     0.44758   0.16256   0.39007   0.00000  Uiso   1.00
C82    C     0.55242   0.17075   0.10993   0.00000  Uiso   1.00
C83    C     0.39050   0.13361   0.46491   0.00000  Uiso   1.00
C84    C     0.60952   0.19965   0.03507   0.00000  Uiso   1.00
C85    C     0.40242   0.14228   0.41713   0.00000  Uiso   1.00
C86    C     0.59758   0.19101   0.08286   0.00000  Uiso   1.00
C87    C     0.47826   0.17583   0.41144   0.00000  Uiso   1.00
C88    C     0.52174   0.15746   0.08856   0.00000  Uiso   1.00
C89    C     0.46973   0.16431   0.45739   0.00000  Uiso   1.00
C90    C     0.53029   0.16893   0.04259   0.00000  Uiso   1.00
C91    C     0.42414   0.14444   0.48506   0.00000  Uiso   1.00
C92    C     0.57588   0.18879   0.01492   0.00000  Uiso   1.00
C93    C     0.50578   0.17166   0.47612   0.00000  Uiso   1.00
C94    C     0.49424   0.16156   0.02387   0.00000  Uiso   1.00
H95    H     0.37764   0.12300   0.05552   0.00000  Uiso   1.00
H96    H     0.62241   0.21018   0.44444   0.00000  Uiso   1.00
H97    H     0.49033   0.13859   0.10953   0.00000  Uiso   1.00
H98    H     0.50966   0.19471   0.39050   0.00000  Uiso   1.00
H99    H     0.43325   0.13983   0.08897   0.00000  Uiso   1.00
H100   H     0.56679   0.19333   0.41099   0.00000  Uiso   1.00
H101   H     0.57844   0.04004   0.21560   0.00000  Uiso   1.00
H102   H     0.42156   0.29330   0.28439   0.00000  Uiso   1.00
H103   H     0.39959   0.12420   0.19353   0.00000  Uiso   1.00
H104   H     0.60041   0.20913   0.30647   0.00000  Uiso   1.00
N105   N     0.38093   0.16668   0.25001   0.00000  Uiso   1.00
N106   N     0.61907   0.16666   0.24999   0.00000  Uiso   1.00
O107   O     0.46179   0.22775   0.25001   0.00000  Uiso   1.00
O108   O     0.53821   0.10558   0.25000   0.00000  Uiso   1.00
O109   O     0.53823   0.22774   0.25000   0.00000  Uiso   1.00
O110   O     0.46177   0.10559   0.25000   0.00000  Uiso   1.00
O111   O     0.43994   0.16667   0.31613   0.00000  Uiso   1.00
O112   O     0.56006   0.16666   0.18388   0.00000  Uiso   1.00
O113   O     0.51639   0.16666   0.31612   0.00000  Uiso   1.00
O114   O     0.48361   0.16667   0.18388   0.00000  Uiso   1.00
Zn115  Zn    0.44896   0.16667   0.25000   0.00000  Uiso   1.00
Zn116  Zn    0.55104   0.16666   0.25000   0.00000  Uiso   1.00
Br117  Br    0.64319   0.20800   0.10974   0.00000  Uiso   1.00
Br118  Br    0.35681   0.12532   0.39024   0.00000  Uiso   1.00
Cl119  Cl    0.33454   0.10689   0.49834   0.00000  Uiso   1.00
Cl120  Cl    0.66548   0.22636   0.00162   0.00000  Uiso   1.00
Br121  Br    0.61089   0.28952   0.19873   0.00000  Uiso   1.00
Br122  Br    0.38911   0.04381   0.30126   0.00000  Uiso   1.00
Cl123  Cl    0.64584   0.11230   0.17677   0.00000  Uiso   1.00
Cl124  Cl    0.35416   0.22103   0.32323   0.00000  Uiso   1.00
C125   C     0.83415   0.24666   0.24881   0.00000  Uiso   1.00
C126   C     0.83252   0.08667   0.25119   0.00000  Uiso   1.00
C127   C     0.77986   0.14547   0.05170   0.00000  Uiso   1.00
C128   C     0.88685   0.18772   0.44827   0.00000  Uiso   1.00
C129   C     0.74624   0.13623   0.03241   0.00000  Uiso   1.00
C130   C     0.92046   0.19697   0.46755   0.00000  Uiso   1.00
C131   C     0.87945   0.31339   0.22937   0.00000  Uiso   1.00
C132   C     0.78722   0.01994   0.27062   0.00000  Uiso   1.00
C133   C     0.87746   0.02257   0.23103   0.00000  Uiso   1.00
C134   C     0.78920   0.31077   0.26896   0.00000  Uiso   1.00
C135   C     0.83190   0.04253   0.25139   0.00000  Uiso   1.00
C136   C     0.83477   0.29081   0.24861   0.00000  Uiso   1.00
C137   C     0.98963   0.14308   0.21841   0.00000  Uiso   1.00
C138   C     0.67704   0.19026   0.28159   0.00000  Uiso   1.00
C139   C     0.70406   0.14308   0.21858   0.00000  Uiso   1.00
C140   C     0.96261   0.19025   0.28142   0.00000  Uiso   1.00
C141   C     0.80184   0.16599   0.33845   0.00000  Uiso   1.00
C142   C     0.86483   0.16734   0.16155   0.00000  Uiso   1.00
C143   C     0.78092   0.16256   0.39007   0.00000  Uiso   1.00
C144   C     0.88575   0.17075   0.10993   0.00000  Uiso   1.00
C145   C     0.72383   0.13361   0.46491   0.00000  Uiso   1.00
C146   C     0.94285   0.19965   0.03507   0.00000  Uiso   1.00
C147   C     0.73576   0.14228   0.41713   0.00000  Uiso   1.00
C148   C     0.93092   0.19101   0.08286   0.00000  Uiso   1.00
C149   C     0.81160   0.17583   0.41144   0.00000  Uiso   1.00
C150   C     0.85507   0.15746   0.08856   0.00000  Uiso   1.00
C151   C     0.80307   0.16431   0.45739   0.00000  Uiso   1.00
C152   C     0.86362   0.16893   0.04259   0.00000  Uiso   1.00
C153   C     0.75747   0.14444   0.48506   0.00000  Uiso   1.00
C154   C     0.90922   0.18879   0.01492   0.00000  Uiso   1.00
C155   C     0.83912   0.17166   0.47612   0.00000  Uiso   1.00
C156   C     0.82758   0.16156   0.02387   0.00000  Uiso   1.00
H157   H     0.71097   0.12300   0.05552   0.00000  Uiso   1.00
H158   H     0.95574   0.21018   0.44444   0.00000  Uiso   1.00
H159   H     0.82367   0.13859   0.10953   0.00000  Uiso   1.00
H160   H     0.84299   0.19471   0.39050   0.00000  Uiso   1.00
H161   H     0.76658   0.13983   0.08897   0.00000  Uiso   1.00
H162   H     0.90013   0.19333   0.41099   0.00000  Uiso   1.00
H163   H     0.91177   0.04004   0.21560   0.00000  Uiso   1.00
H164   H     0.75490   0.29330   0.28439   0.00000  Uiso   1.00
H165   H     0.73292   0.12420   0.19353   0.00000  Uiso   1.00
H166   H     0.93374   0.20913   0.30647   0.00000  Uiso   1.00
N167   N     0.71426   0.16668   0.25001   0.00000  Uiso   1.00
N168   N     0.95241   0.16666   0.24999   0.00000  Uiso   1.00
O169   O     0.79512   0.22775   0.25001   0.00000  Uiso   1.00
O170   O     0.87154   0.10558   0.25000   0.00000  Uiso   1.00
O171   O     0.87157   0.22774   0.25000   0.00000  Uiso   1.00
O172   O     0.79510   0.10559   0.25000   0.00000  Uiso   1.00
O173   O     0.77328   0.16667   0.31613   0.00000  Uiso   1.00
O174   O     0.89339   0.16666   0.18388   0.00000  Uiso   1.00
O175   O     0.84972   0.16666   0.31612   0.00000  Uiso   1.00
O176   O     0.81695   0.16667   0.18388   0.00000  Uiso   1.00
Zn177  Zn    0.78229   0.16667   0.25000   0.00000  Uiso   1.00
Zn178  Zn    0.88438   0.16666   0.25000   0.00000  Uiso   1.00
Br179  Br    0.97652   0.20800   0.10974   0.00000  Uiso   1.00
Br180  Br    0.69015   0.12532   0.39024   0.00000  Uiso   1.00
Cl181  Cl    0.66787   0.10689   0.49834   0.00000  Uiso   1.00
Cl182  Cl    0.99882   0.22636   0.00162   0.00000  Uiso   1.00
Br183  Br    0.94422   0.28952   0.19873   0.00000  Uiso   1.00
Br184  Br    0.72244   0.04381   0.30126   0.00000  Uiso   1.00
Cl185  Cl    0.97917   0.11230   0.17677   0.00000  Uiso   1.00
Cl186  Cl    0.68750   0.22103   0.32323   0.00000  Uiso   1.00
C187   C     0.16748   0.58000   0.24881   0.00000  Uiso   1.00
C188   C     0.16585   0.42000   0.25119   0.00000  Uiso   1.00
C189   C     0.11319   0.47880   0.05170   0.00000  Uiso   1.00
C190   C     0.22018   0.52105   0.44827   0.00000  Uiso   1.00
C191   C     0.07957   0.46957   0.03241   0.00000  Uiso   1.00
C192   C     0.25380   0.53030   0.46755   0.00000  Uiso   1.00
C193   C     0.21278   0.64673   0.22937   0.00000  Uiso   1.00
C194   C     0.12055   0.35327   0.27062   0.00000  Uiso   1.00
C195   C     0.21080   0.35590   0.23103   0.00000  Uiso   1.00
C196   C     0.12254   0.64410   0.26896   0.00000  Uiso   1.00
C197   C     0.16523   0.37586   0.25139   0.00000  Uiso   1.00
C198   C     0.16810   0.62414   0.24861   0.00000  Uiso   1.00
C199   C     0.32296   0.47641   0.21841   0.00000  Uiso   1.00
C200   C     0.01037   0.52359   0.28159   0.00000  Uiso   1.00
C201   C     0.03739   0.47642   0.21858   0.00000  Uiso   1.00
C202   C     0.29594   0.52358   0.28142   0.00000  Uiso   1.00
C203   C     0.13517   0.49932   0.33845   0.00000  Uiso   1.00
C204   C     0.19816   0.50068   0.16155   0.00000  Uiso   1.00
C205   C     0.11425   0.49589   0.39007   0.00000  Uiso   1.00
C206   C     0.21908   0.50408   0.10993   0.00000  Uiso   1.00
C207   C     0.05716   0.46694   0.46491   0.00000  Uiso   1.00
C208   C     0.27619   0.53298   0.03507   0.00000  Uiso   1.00
C209   C     0.06909   0.47561   0.41713   0.00000  Uiso   1.00
C210   C     0.26425   0.52435   0.08286   0.00000  Uiso   1.00
C211   C     0.14493   0.50916   0.41144   0.00000  Uiso   1.00
C212   C     0.18840   0.49079   0.08856   0.00000  Uiso   1.00
C213   C     0.13640   0.49764   0.45739   0.00000  Uiso   1.00
C214   C     0.19695   0.50227   0.04259   0.00000  Uiso   1.00
C215   C     0.09081   0.47777   0.48506   0.00000  Uiso   1.00
C216   C     0.24255   0.52213   0.01492   0.00000  Uiso   1.00
C217   C     0.17245   0.50499   0.47612   0.00000  Uiso   1.00
C218   C     0.16091   0.49490   0.02387   0.00000  Uiso   1.00
H219   H     0.04431   0.45634   0.05552   0.00000  Uiso   1.00
H220   H     0.28907   0.54351   0.44444   0.00000  Uiso   1.00
H221   H     0.15700   0.47193   0.10953   0.00000  Uiso   1.00
H222   H     0.17633   0.52805   0.39050   0.00000  Uiso   1.00
H223   H     0.09992   0.47316   0.08897   0.00000  Uiso   1.00
H224   H     0.23346   0.52666   0.41099   0.00000  Uiso   1.00
H225   H     0.24510   0.37337   0.21560   0.00000  Uiso   1.00
H226   H     0.08823   0.62663   0.28439   0.00000  Uiso   1.00
H227   H     0.06626   0.45754   0.19353   0.00000  Uiso   1.00
H228   H     0.26708   0.54246   0.30647   0.00000  Uiso   1.00
N229   N     0.04759   0.50001   0.25001   0.00000  Uiso   1.00
N230   N     0.28574   0.49999   0.24999   0.00000  Uiso   1.00
O231   O     0.12846   0.56108   0.25001   0.00000  Uiso   1.00
O232   O     0.20488   0.43892   0.25000   0.00000  Uiso   1.00
O233   O     0.20490   0.56107   0.25000   0.00000  Uiso   1.00
O234   O     0.12843   0.43893   0.25000   0.00000  Uiso   1.00
O235   O     0.10661   0.50001   0.31613   0.00000  Uiso   1.00
O236   O     0.22672   0.49999   0.18388   0.00000  Uiso   1.00
O237   O     0.18305   0.50000   0.31612   0.00000  Uiso   1.00
O238   O     0.15028   0.50000   0.18388   0.00000  Uiso   1.00
Zn239  Zn    0.11562   0.50001   0.25000   0.00000  Uiso   1.00
Zn240  Zn    0.21771   0.49999   0.25000   0.00000  Uiso   1.00
Br241  Br    0.30986   0.54133   0.10974   0.00000  Uiso   1.00
Br242  Br    0.02348   0.45865   0.39024   0.00000  Uiso   1.00
Cl243  Cl    0.00120   0.44022   0.49834   0.00000  Uiso   1.00
Cl244  Cl    0.33215   0.55969   0.00162   0.00000  Uiso   1.00
Br245  Br    0.27756   0.62285   0.19873   0.00000  Uiso   1.00
Br246  Br    0.05578   0.37715   0.30126   0.00000  Uiso   1.00
Cl247  Cl    0.31250   0.44564   0.17677   0.00000  Uiso   1.00
Cl248  Cl    0.02083   0.55436   0.32323   0.00000  Uiso   1.00
C249   C     0.50081   0.58000   0.24881   0.00000  Uiso   1.00
C250   C     0.49919   0.42000   0.25119   0.00000  Uiso   1.00
C251   C     0.44652   0.47880   0.05170   0.00000  Uiso   1.00
C252   C     0.55351   0.52105   0.44827   0.00000  Uiso   1.00
C253   C     0.41291   0.46957   0.03241   0.00000  Uiso   1.00
C254   C     0.58713   0.53030   0.46755   0.00000  Uiso   1.00
C255   C     0.54611   0.64673   0.22937   0.00000  Uiso   1.00
C256   C     0.45389   0.35327   0.27062   0.00000  Uiso   1.00
C257   C     0.54413   0.35590   0.23103   0.00000  Uiso   1.00
C258   C     0.45587   0.64410   0.26896   0.00000  Uiso   1.00
C259   C     0.49857   0.37586   0.25139   0.00000  Uiso   1.00
C260   C     0.50143   0.62414   0.24861   0.00000  Uiso   1.00
C261   C     0.65629   0.47641   0.21841   0.00000  Uiso   1.00
C262   C     0.34371   0.52359   0.28159   0.00000  Uiso   1.00
C263   C     0.37072   0.47642   0.21858   0.00000  Uiso   1.00
C264   C     0.62928   0.52358   0.28142   0.00000  Uiso   1.00
C265   C     0.46851   0.49932   0.33845   0.00000  Uiso   1.00
C266   C     0.53149   0.50068   0.16155   0.00000  Uiso   1.00
C267   C     0.44758   0.49589   0.39007   0.00000  Uiso   1.00
C268   C     0.55242   0.50408   0.10993   0.00000  Uiso   1.00
C269   C     0.39050   0.46694   0.46491   0.00000  Uiso   1.00
C270   C     0.60952   0.53298   0.03507   0.00000  Uiso   1.00
C271   C     0.40242   0.47561   0.41713   0.00000  Uiso   1.00
C272   C     0.59758   0.52435   0.08286   0.00000  Uiso   1.00
C273   C     0.47826   0.50916   0.41144   0.00000  Uiso   1.00
C274   C     0.52174   0.49079   0.08856   0.00000  Uiso   1.00
C275   C     0.46973   0.49764   0.45739   0.00000  Uiso   1.00
C276   C     0.53029   0.50227   0.04259   0.00000  Uiso   1.00
C277   C     0.42414   0.47777   0.48506   0.00000  Uiso   1.00
C278   C     0.57588   0.52213   0.01492   0.00000  Uiso   1.00
C279   C     0.50578   0.50499   0.47612   0.00000  Uiso   1.00
C280   C     0.49424   0.49490   0.02387   0.00000  Uiso   1.00
H281   H     0.37764   0.45634   0.05552   0.00000  Uiso   1.00
H282   H     0.62241   0.54351   0.44444   0.00000  Uiso   1.00
H283   H     0.49033   0.47193   0.10953   0.00000  Uiso   1.00
H284   H     0.50966   0.52805   0.39050   0.00000  Uiso   1.00
H285   H     0.43325   0.47316   0.08897   0.00000  Uiso   1.00
H286   H     0.56679   0.52666   0.41099   0.00000  Uiso   1.00
H287   H     0.57844   0.37337   0.21560   0.00000  Uiso   1.00
H288   H     0.42156   0.62663   0.28439   0.00000  Uiso   1.00
H289   H     0.39959   0.45754   0.19353   0.00000  Uiso   1.00
H290   H     0.60041   0.54246   0.30647   0.00000  Uiso   1.00
N291   N     0.38093   0.50001   0.25001   0.00000  Uiso   1.00
N292   N     0.61907   0.49999   0.24999   0.00000  Uiso   1.00
O293   O     0.46179   0.56108   0.25001   0.00000  Uiso   1.00
O294   O     0.53821   0.43892   0.25000   0.00000  Uiso   1.00
O295   O     0.53823   0.56107   0.25000   0.00000  Uiso   1.00
O296   O     0.46177   0.43893   0.25000   0.00000  Uiso   1.00
O297   O     0.43994   0.50001   0.31613   0.00000  Uiso   1.00
O298   O     0.56006   0.49999   0.18388   0.00000  Uiso   1.00
O299   O     0.51639   0.50000   0.31612   0.00000  Uiso   1.00
O300   O     0.48361   0.50000   0.18388   0.00000  Uiso   1.00
Zn301  Zn    0.44896   0.50001   0.25000   0.00000  Uiso   1.00
Zn302  Zn    0.55104   0.49999   0.25000   0.00000  Uiso   1.00
Br303  Br    0.64319   0.54133   0.10974   0.00000  Uiso   1.00
Br304  Br    0.35681   0.45865   0.39024   0.00000  Uiso   1.00
Cl305  Cl    0.33454   0.44022   0.49834   0.00000  Uiso   1.00
Cl306  Cl    0.66548   0.55969   0.00162   0.00000  Uiso   1.00
Br307  Br    0.61089   0.62285   0.19873   0.00000  Uiso   1.00
Br308  Br    0.38911   0.37715   0.30126   0.00000  Uiso   1.00
Cl309  Cl    0.64584   0.44564   0.17677   0.00000  Uiso   1.00
Cl310  Cl    0.35416   0.55436   0.32323   0.00000  Uiso   1.00
C311   C     0.83415   0.58000   0.24881   0.00000  Uiso   1.00
C312   C     0.83252   0.42000   0.25119   0.00000  Uiso   1.00
C313   C     0.77986   0.47880   0.05170   0.00000  Uiso   1.00
C314   C     0.88685   0.52105   0.44827   0.00000  Uiso   1.00
C315   C     0.74624   0.46957   0.03241   0.00000  Uiso   1.00
C316   C     0.92046   0.53030   0.46755   0.00000  Uiso   1.00
C317   C     0.87945   0.64673   0.22937   0.00000  Uiso   1.00
C318   C     0.78722   0.35327   0.27062   0.00000  Uiso   1.00
C319   C     0.87746   0.35590   0.23103   0.00000  Uiso   1.00
C320   C     0.78920   0.64410   0.26896   0.00000  Uiso   1.00
C321   C     0.83190   0.37586   0.25139   0.00000  Uiso   1.00
C322   C     0.83477   0.62414   0.24861   0.00000  Uiso   1.00
C323   C     0.98963   0.47641   0.21841   0.00000  Uiso   1.00
C324   C     0.67704   0.52359   0.28159   0.00000  Uiso   1.00
C325   C     0.70406   0.47642   0.21858   0.00000  Uiso   1.00
C326   C     0.96261   0.52358   0.28142   0.00000  Uiso   1.00
C327   C     0.80184   0.49932   0.33845   0.00000  Uiso   1.00
C328   C     0.86483   0.50068   0.16155   0.00000  Uiso   1.00
C329   C     0.78092   0.49589   0.39007   0.00000  Uiso   1.00
C330   C     0.88575   0.50408   0.10993   0.00000  Uiso   1.00
C331   C     0.72383   0.46694   0.46491   0.00000  Uiso   1.00
C332   C     0.94285   0.53298   0.03507   0.00000  Uiso   1.00
C333   C     0.73576   0.47561   0.41713   0.00000  Uiso   1.00
C334   C     0.93092   0.52435   0.08286   0.00000  Uiso   1.00
C335   C     0.81160   0.50916   0.41144   0.00000  Uiso   1.00
C336   C     0.85507   0.49079   0.08856   0.00000  Uiso   1.00
C337   C     0.80307   0.49764   0.45739   0.00000  Uiso   1.00
C338   C     0.86362   0.50227   0.04259   0.00000  Uiso   1.00
C339   C     0.75747   0.47777   0.48506   0.00000  Uiso   1.00
C340   C     0.90922   0.52213   0.01492   0.00000  Uiso   1.00
C341   C     0.83912   0.50499   0.47612   0.00000  Uiso   1.00
C342   C     0.82758   0.49490   0.02387   0.00000  Uiso   1.00
H343   H     0.71097   0.45634   0.05552   0.00000  Uiso   1.00
H344   H     0.95574   0.54351   0.44444   0.00000  Uiso   1.00
H345   H     0.82367   0.47193   0.10953   0.00000  Uiso   1.00
H346   H     0.84299   0.52805   0.39050   0.00000  Uiso   1.00
H347   H     0.76658   0.47316   0.08897   0.00000  Uiso   1.00
H348   H     0.90013   0.52666   0.41099   0.00000  Uiso   1.00
H349   H     0.91177   0.37337   0.21560   0.00000  Uiso   1.00
H350   H     0.75490   0.62663   0.28439   0.00000  Uiso   1.00
H351   H     0.73292   0.45754   0.19353   0.00000  Uiso   1.00
H352   H     0.93374   0.54246   0.30647   0.00000  Uiso   1.00
N353   N     0.71426   0.50001   0.25001   0.00000  Uiso   1.00
N354   N     0.95241   0.49999   0.24999   0.00000  Uiso   1.00
O355   O     0.79512   0.56108   0.25001   0.00000  Uiso   1.00
O356   O     0.87154   0.43892   0.25000   0.00000  Uiso   1.00
O357   O     0.87157   0.56107   0.25000   0.00000  Uiso   1.00
O358   O     0.79510   0.43893   0.25000   0.00000  Uiso   1.00
O359   O     0.77328   0.50001   0.31613   0.00000  Uiso   1.00
O360   O     0.89339   0.49999   0.18388   0.00000  Uiso   1.00
O361   O     0.84972   0.50000   0.31612   0.00000  Uiso   1.00
O362   O     0.81695   0.50000   0.18388   0.00000  Uiso   1.00
Zn363  Zn    0.78229   0.50001   0.25000   0.00000  Uiso   1.00
Zn364  Zn    0.88438   0.49999   0.25000   0.00000  Uiso   1.00
Br365  Br    0.97652   0.54133   0.10974   0.00000  Uiso   1.00
Br366  Br    0.69015   0.45865   0.39024   0.00000  Uiso   1.00
Cl367  Cl    0.66787   0.44022   0.49834   0.00000  Uiso   1.00
Cl368  Cl    0.99882   0.55969   0.00162   0.00000  Uiso   1.00
Br369  Br    0.94422   0.62285   0.19873   0.00000  Uiso   1.00
Br370  Br    0.72244   0.37715   0.30126   0.00000  Uiso   1.00
Cl371  Cl    0.97917   0.44564   0.17677   0.00000  Uiso   1.00
Cl372  Cl    0.68750   0.55436   0.32323   0.00000  Uiso   1.00
C373   C     0.16748   0.91333   0.24881   0.00000  Uiso   1.00
C374   C     0.16585   0.75334   0.25119   0.00000  Uiso   1.00
C375   C     0.11319   0.81214   0.05170   0.00000  Uiso   1.00
C376   C     0.22018   0.85439   0.44827   0.00000  Uiso   1.00
C377   C     0.07957   0.80290   0.03241   0.00000  Uiso   1.00
C378   C     0.25380   0.86363   0.46755   0.00000  Uiso   1.00
C379   C     0.21278   0.98006   0.22937   0.00000  Uiso   1.00
C380   C     0.12055   0.68661   0.27062   0.00000  Uiso   1.00
C381   C     0.21080   0.68923   0.23103   0.00000  Uiso   1.00
C382   C     0.12254   0.97743   0.26896   0.00000  Uiso   1.00
C383   C     0.16523   0.70919   0.25139   0.00000  Uiso   1.00
C384   C     0.16810   0.95747   0.24861   0.00000  Uiso   1.00
C385   C     0.32296   0.80974   0.21841   0.00000  Uiso   1.00
C386   C     0.01037   0.85692   0.28159   0.00000  Uiso   1.00
C387   C     0.03739   0.80975   0.21858   0.00000  Uiso   1.00
C388   C     0.29594   0.85692   0.28142   0.00000  Uiso   1.00
C389   C     0.13517   0.83265   0.33845   0.00000  Uiso   1.00
C390   C     0.19816   0.83401   0.16155   0.00000  Uiso   1.00
C391   C     0.11425   0.82922   0.39007   0.00000  Uiso   1.00
C392   C     0.21908   0.83741   0.10993   0.00000  Uiso   1.00
C393   C     0.05716   0.80027   0.46491   0.00000  Uiso   1.00
C394   C     0.27619   0.86632   0.03507   0.00000  Uiso   1.00
C395   C     0.06909   0.80894   0.41713   0.00000  Uiso   1.00
C396   C     0.26425   0.85768   0.08286   0.00000  Uiso   1.00
C397   C     0.14493   0.84250   0.41144   0.00000  Uiso   1.00
C398   C     0.18840   0.82412   0.08856   0.00000  Uiso   1.00
C399   C     0.13640   0.83098   0.45739   0.00000  Uiso   1.00
C400   C     0.19695   0.83560   0.04259   0.00000  Uiso   1.00
C401   C     0.09081   0.81111   0.48506   0.00000  Uiso   1.00
C402   C     0.24255   0.85546   0.01492   0.00000  Uiso   1.00
C403   C     0.17245   0.83832   0.47612   0.00000  Uiso   1.00
C404   C     0.16091   0.82823   0.02387   0.00000  Uiso   1.00
H405   H     0.04431   0.78967   0.05552   0.00000  Uiso   1.00
H406   H     0.28907   0.87684   0.44444   0.00000  Uiso   1.00
H407   H     0.15700   0.80526   0.10953   0.00000  Uiso   1.00
H408   H     0.17633   0.86138   0.39050   0.00000  Uiso   1.00
H409   H     0.09992   0.80650   0.08897   0.00000  Uiso   1.00
H410   H     0.23346   0.86000   0.41099   0.00000  Uiso   1.00
H411   H     0.24510   0.70670   0.21560   0.00000  Uiso   1.00
H412   H     0.08823   0.95996   0.28439   0.00000  Uiso   1.00
H413   H     0.06626   0.79087   0.19353   0.00000  Uiso   1.00
H414   H     0.26708   0.87580   0.30647   0.00000  Uiso   1.00
N415   N     0.04759   0.83334   0.25001   0.00000  Uiso   1.00
N416   N     0.28574   0.83332   0.24999   0.00000  Uiso   1.00
O417   O     0.12846   0.89442   0.25001   0.00000  Uiso   1.00
O418   O     0.20488   0.77225   0.25000   0.00000  Uiso   1.00
O419   O     0.20490   0.89441   0.25000   0.00000  Uiso   1.00
O420   O     0.12843   0.77226   0.25000   0.00000  Uiso   1.00
O421   O     0.10661   0.83334   0.31613   0.00000  Uiso   1.00
O422   O     0.22672   0.83333   0.18388   0.00000  Uiso   1.00
O423   O     0.18305   0.83333   0.31612   0.00000  Uiso   1.00
O424   O     0.15028   0.83334   0.18388   0.00000  Uiso   1.00
Zn425  Zn    0.11562   0.83334   0.25000   0.00000  Uiso   1.00
Zn426  Zn    0.21771   0.83333   0.25000   0.00000  Uiso   1.00
Br427  Br    0.30986   0.87467   0.10974   0.00000  Uiso   1.00
Br428  Br    0.02348   0.79198   0.39024   0.00000  Uiso   1.00
Cl429  Cl    0.00120   0.77355   0.49834   0.00000  Uiso   1.00
Cl430  Cl    0.33215   0.89303   0.00162   0.00000  Uiso   1.00
Br431  Br    0.27756   0.95618   0.19873   0.00000  Uiso   1.00
Br432  Br    0.05578   0.71048   0.30126   0.00000  Uiso   1.00
Cl433  Cl    0.31250   0.77897   0.17677   0.00000  Uiso   1.00
Cl434  Cl    0.02083   0.88770   0.32323   0.00000  Uiso   1.00
C435   C     0.50081   0.91333   0.24881   0.00000  Uiso   1.00
C436   C     0.49919   0.75334   0.25119   0.00000  Uiso   1.00
C437   C     0.44652   0.81214   0.05170   0.00000  Uiso   1.00
C438   C     0.55351   0.85439   0.44827   0.00000  Uiso   1.00
C439   C     0.41291   0.80290   0.03241   0.00000  Uiso   1.00
C440   C     0.58713   0.86363   0.46755   0.00000  Uiso   1.00
C441   C     0.54611   0.98006   0.22937   0.00000  Uiso   1.00
C442   C     0.45389   0.68661   0.27062   0.00000  Uiso   1.00
C443   C     0.54413   0.68923   0.23103   0.00000  Uiso   1.00
C444   C     0.45587   0.97743   0.26896   0.00000  Uiso   1.00
C445   C     0.49857   0.70919   0.25139   0.00000  Uiso   1.00
C446   C     0.50143   0.95747   0.24861   0.00000  Uiso   1.00
C447   C     0.65629   0.80974   0.21841   0.00000  Uiso   1.00
C448   C     0.34371   0.85692   0.28159   0.00000  Uiso   1.00
C449   C     0.37072   0.80975   0.21858   0.00000  Uiso   1.00
C450   C     0.62928   0.85692   0.28142   0.00000  Uiso   1.00
C451   C     0.46851   0.83265   0.33845   0.00000  Uiso   1.00
C452   C     0.53149   0.83401   0.16155   0.00000  Uiso   1.00
C453   C     0.44758   0.82922   0.39007   0.00000  Uiso   1.00
C454   C     0.55242   0.83741   0.10993   0.00000  Uiso   1.00
C455   C     0.39050   0.80027   0.46491   0.00000  Uiso   1.00
C456   C     0.60952   0.86632   0.03507   0.00000  Uiso   1.00
C457   C     0.40242   0.80894   0.41713   0.00000  Uiso   1.00
C458   C     0.59758   0.85768   0.08286   0.00000  Uiso   1.00
C459   C     0.47826   0.84250   0.41144   0.00000  Uiso   1.00
C460   C     0.52174   0.82412   0.08856   0.00000  Uiso   1.00
C461   C     0.46973   0.83098   0.45739   0.00000  Uiso   1.00
C462   C     0.53029   0.83560   0.04259   0.00000  Uiso   1.00
C463   C     0.42414   0.81111   0.48506   0.00000  Uiso   1.00
C464   C     0.57588   0.85546   0.01492   0.00000  Uiso   1.00
C465   C     0.50578   0.83832   0.47612   0.00000  Uiso   1.00
C466   C     0.49424   0.82823   0.02387   0.00000  Uiso   1.00
H467   H     0.37764   0.78967   0.05552   0.00000  Uiso   1.00
H468   H     0.62241   0.87684   0.44444   0.00000  Uiso   1.00
H469   H     0.49033   0.80526   0.10953   0.00000  Uiso   1.00
H470   H     0.50966   0.86138   0.39050   0.00000  Uiso   1.00
H471   H     0.43325   0.80650   0.08897   0.00000  Uiso   1.00
H472   H     0.56679   0.86000   0.41099   0.00000  Uiso   1.00
H473   H     0.57844   0.70670   0.21560   0.00000  Uiso   1.00
H474   H     0.42156   0.95996   0.28439   0.00000  Uiso   1.00
H475   H     0.39959   0.79087   0.19353   0.00000  Uiso   1.00
H476   H     0.60041   0.87580   0.30647   0.00000  Uiso   1.00
N477   N     0.38093   0.83334   0.25001   0.00000  Uiso   1.00
N478   N     0.61907   0.83332   0.24999   0.00000  Uiso   1.00
O479   O     0.46179   0.89442   0.25001   0.00000  Uiso   1.00
O480   O     0.53821   0.77225   0.25000   0.00000  Uiso   1.00
O481   O     0.53823   0.89441   0.25000   0.00000  Uiso   1.00
O482   O     0.46177   0.77226   0.25000   0.00000  Uiso   1.00
O483   O     0.43994   0.83334   0.31613   0.00000  Uiso   1.00
O484   O     0.56006   0.83333   0.18388   0.00000  Uiso   1.00
O485   O     0.51639   0.83333   0.31612   0.00000  Uiso   1.00
O486   O     0.48361   0.83334   0.18388   0.00000  Uiso   1.00
Zn487  Zn    0.44896   0.83334   0.25000   0.00000  Uiso   1.00
Zn488  Zn    0.55104   0.83333   0.25000   0.00000  Uiso   1.00
Br489  Br    0.64319   0.87467   0.10974   0.00000  Uiso   1.00
Br490  Br    0.35681   0.79198   0.39024   0.00000  Uiso   1.00
Cl491  Cl    0.33454   0.77355   0.49834   0.00000  Uiso   1.00
Cl492  Cl    0.66548   0.89303   0.00162   0.00000  Uiso   1.00
Br493  Br    0.61089   0.95618   0.19873   0.00000  Uiso   1.00
Br494  Br    0.38911   0.71048   0.30126   0.00000  Uiso   1.00
Cl495  Cl    0.64584   0.77897   0.17677   0.00000  Uiso   1.00
Cl496  Cl    0.35416   0.88770   0.32323   0.00000  Uiso   1.00
C497   C     0.83415   0.91333   0.24881   0.00000  Uiso   1.00
C498   C     0.83252   0.75334   0.25119   0.00000  Uiso   1.00
C499   C     0.77986   0.81214   0.05170   0.00000  Uiso   1.00
C500   C     0.88685   0.85439   0.44827   0.00000  Uiso   1.00
C501   C     0.74624   0.80290   0.03241   0.00000  Uiso   1.00
C502   C     0.92046   0.86363   0.46755   0.00000  Uiso   1.00
C503   C     0.87945   0.98006   0.22937   0.00000  Uiso   1.00
C504   C     0.78722   0.68661   0.27062   0.00000  Uiso   1.00
C505   C     0.87746   0.68923   0.23103   0.00000  Uiso   1.00
C506   C     0.78920   0.97743   0.26896   0.00000  Uiso   1.00
C507   C     0.83190   0.70919   0.25139   0.00000  Uiso   1.00
C508   C     0.83477   0.95747   0.24861   0.00000  Uiso   1.00
C509   C     0.98963   0.80974   0.21841   0.00000  Uiso   1.00
C510   C     0.67704   0.85692   0.28159   0.00000  Uiso   1.00
C511   C     0.70406   0.80975   0.21858   0.00000  Uiso   1.00
C512   C     0.96261   0.85692   0.28142   0.00000  Uiso   1.00
C513   C     0.80184   0.83265   0.33845   0.00000  Uiso   1.00
C514   C     0.86483   0.83401   0.16155   0.00000  Uiso   1.00
C515   C     0.78092   0.82922   0.39007   0.00000  Uiso   1.00
C516   C     0.88575   0.83741   0.10993   0.00000  Uiso   1.00
C517   C     0.72383   0.80027   0.46491   0.00000  Uiso   1.00
C518   C     0.94285   0.86632   0.03507   0.00000  Uiso   1.00
C519   C     0.73576   0.80894   0.41713   0.00000  Uiso   1.00
C520   C     0.93092   0.85768   0.08286   0.00000  Uiso   1.00
C521   C     0.81160   0.84250   0.41144   0.00000  Uiso   1.00
C522   C     0.85507   0.82412   0.08856   0.00000  Uiso   1.00
C523   C     0.80307   0.83098   0.45739   0.00000  Uiso   1.00
C524   C     0.86362   0.83560   0.04259   0.00000  Uiso   1.00
C525   C     0.75747   0.81111   0.48506   0.00000  Uiso   1.00
C526   C     0.90922   0.85546   0.01492   0.00000  Uiso   1.00
C527   C     0.83912   0.83832   0.47612   0.00000  Uiso   1.00
C528   C     0.82758   0.82823   0.02387   0.00000  Uiso   1.00
H529   H     0.71097   0.78967   0.05552   0.00000  Uiso   1.00
H530   H     0.95574   0.87684   0.44444   0.00000  Uiso   1.00
H531   H     0.82367   0.80526   0.10953   0.00000  Uiso   1.00
H532   H     0.84299   0.86138   0.39050   0.00000  Uiso   1.00
H533   H     0.76658   0.80650   0.08897   0.00000  Uiso   1.00
H534   H     0.90013   0.86000   0.41099   0.00000  Uiso   1.00
H535   H     0.91177   0.70670   0.21560   0.00000  Uiso   1.00
H536   H     0.75490   0.95996   0.28439   0.00000  Uiso   1.00
H537   H     0.73292   0.79087   0.19353   0.00000  Uiso   1.00
H538   H     0.93374   0.87580   0.30647   0.00000  Uiso   1.00
N539   N     0.71426   0.83334   0.25001   0.00000  Uiso   1.00
N540   N     0.95241   0.83332   0.24999   0.00000  Uiso   1.00
O541   O     0.79512   0.89442   0.25001   0.00000  Uiso   1.00
O542   O     0.87154   0.77225   0.25000   0.00000  Uiso   1.00
O543   O     0.87157   0.89441   0.25000   0.00000  Uiso   1.00
O544   O     0.79510   0.77226   0.25000   0.00000  Uiso   1.00
O545   O     0.77328   0.83334   0.31613   0.00000  Uiso   1.00
O546   O     0.89339   0.83333   0.18388   0.00000  Uiso   1.00
O547   O     0.84972   0.83333   0.31612   0.00000  Uiso   1.00
O548   O     0.81695   0.83334   0.18388   0.00000  Uiso   1.00
Zn549  Zn    0.78229   0.83334   0.25000   0.00000  Uiso   1.00
Zn550  Zn    0.88438   0.83333   0.25000   0.00000  Uiso   1.00
Br551  Br    0.97652   0.87467   0.10974   0.00000  Uiso   1.00
Br552  Br    0.69015   0.79198   0.39024   0.00000  Uiso   1.00
Cl553  Cl    0.66787   0.77355   0.49834   0.00000  Uiso   1.00
Cl554  Cl    0.99882   0.89303   0.00162   0.00000  Uiso   1.00
Br555  Br    0.94422   0.95618   0.19873   0.00000  Uiso   1.00
Br556  Br    0.72244   0.71048   0.30126   0.00000  Uiso   1.00
Cl557  Cl    0.97917   0.77897   0.17677   0.00000  Uiso   1.00
Cl558  Cl    0.68750   0.88770   0.32323   0.00000  Uiso   1.00
C559   C     0.16748   0.24666   0.74881   0.00000  Uiso   1.00
C560   C     0.16585   0.08667   0.75119   0.00000  Uiso   1.00
C561   C     0.11319   0.14547   0.55170   0.00000  Uiso   1.00
C562   C     0.22018   0.18772   0.94827   0.00000  Uiso   1.00
C563   C     0.07957   0.13623   0.53241   0.00000  Uiso   1.00
C564   C     0.25380   0.19697   0.96755   0.00000  Uiso   1.00
C565   C     0.21278   0.31339   0.72937   0.00000  Uiso   1.00
C566   C     0.12055   0.01994   0.77062   0.00000  Uiso   1.00
C567   C     0.21080   0.02257   0.73103   0.00000  Uiso   1.00
C568   C     0.12254   0.31077   0.76896   0.00000  Uiso   1.00
C569   C     0.16523   0.04253   0.75139   0.00000  Uiso   1.00
C570   C     0.16810   0.29081   0.74861   0.00000  Uiso   1.00
C571   C     0.32296   0.14308   0.71841   0.00000  Uiso   1.00
C572   C     0.01037   0.19026   0.78159   0.00000  Uiso   1.00
C573   C     0.03739   0.14308   0.71858   0.00000  Uiso   1.00
C574   C     0.29594   0.19025   0.78142   0.00000  Uiso   1.00
C575   C     0.13517   0.16599   0.83845   0.00000  Uiso   1.00
C576   C     0.19816   0.16734   0.66155   0.00000  Uiso   1.00
C577   C     0.11425   0.16256   0.89007   0.00000  Uiso   1.00
C578   C     0.21908   0.17075   0.60993   0.00000  Uiso   1.00
C579   C     0.05716   0.13361   0.96491   0.00000  Uiso   1.00
C580   C     0.27619   0.19965   0.53507   0.00000  Uiso   1.00
C581   C     0.06909   0.14228   0.91713   0.00000  Uiso   1.00
C582   C     0.26425   0.19101   0.58286   0.00000  Uiso   1.00
C583   C     0.14493   0.17583   0.91144   0.00000  Uiso   1.00
C584   C     0.18840   0.15746   0.58856   0.00000  Uiso   1.00
C585   C     0.13640   0.16431   0.95739   0.00000  Uiso   1.00
C586   C     0.19695   0.16893   0.54259   0.00000  Uiso   1.00
C587   C     0.09081   0.14444   0.98506   0.00000  Uiso   1.00
C588   C     0.24255   0.18879   0.51492   0.00000  Uiso   1.00
C589   C     0.17245   0.17166   0.97612   0.00000  Uiso   1.00
C590   C     0.16091   0.16156   0.52387   0.00000  Uiso   1.00
H591   H     0.04431   0.12300   0.55552   0.00000  Uiso   1.00
H592   H     0.28907   0.21018   0.94444   0.00000  Uiso   1.00
H593   H     0.15700   0.13859   0.60953   0.00000  Uiso   1.00
H594   H     0.17633   0.19471   0.89050   0.00000  Uiso   1.00
H595   H     0.09992   0.13983   0.58897   0.00000  Uiso   1.00
H596   H     0.23346   0.19333   0.91099   0.00000  Uiso   1.00
H597   H     0.24510   0.04004   0.71560   0.00000  Uiso   1.00
H598   H     0.08823   0.29330   0.78439   0.00000  Uiso   1.00
H599   H     0.06626   0.12420   0.69353   0.00000  Uiso   1.00
H600   H     0.26708   0.20913   0.80647   0.00000  Uiso   1.00
N601   N     0.04759   0.16668   0.75001   0.00000  Uiso   1.00
N602   N     0.28574   0.16666   0.74999   0.00000  Uiso   1.00
O603   O     0.12846   0.22775   0.75001   0.00000  Uiso   1.00
O604   O     0.20488   0.10558   0.75000   0.00000  Uiso   1.00
O605   O     0.20490   0.22774   0.75000   0.00000  Uiso   1.00
O606   O     0.12843   0.10559   0.75000   0.00000  Uiso   1.00
O607   O     0.10661   0.16667   0.81613   0.00000  Uiso   1.00
O608   O     0.22672   0.16666   0.68388   0.00000  Uiso   1.00
O609   O     0.18305   0.16666   0.81612   0.00000  Uiso   1.00
O610   O     0.15028   0.16667   0.68388   0.00000  Uiso   1.00
Zn611  Zn    0.11562   0.16667   0.75000   0.00000  Uiso   1.00
Zn612  Zn    0.21771   0.16666   0.75000   0.00000  Uiso   1.00
Br613  Br    0.30986   0.20800   0.60974   0.00000  Uiso   1.00
Br614  Br    0.02348   0.12532   0.89024   0.00000  Uiso   1.00
Cl615  Cl    0.00120   0.10689   0.99834   0.00000  Uiso   1.00
Cl616  Cl    0.33215   0.22636   0.50162   0.00000  Uiso   1.00
Br617  Br    0.27756   0.28952   0.69873   0.00000  Uiso   1.00
Br618  Br    0.05578   0.04381   0.80126   0.00000  Uiso   1.00
Cl619  Cl    0.31250   0.11230   0.67677   0.00000  Uiso   1.00
Cl620  Cl    0.02083   0.22103   0.82323   0.00000  Uiso   1.00
C621   C     0.50081   0.24666   0.74881   0.00000  Uiso   1.00
C622   C     0.49919   0.08667   0.75119   0.00000  Uiso   1.00
C623   C     0.44652   0.14547   0.55170   0.00000  Uiso   1.00
C624   C     0.55351   0.18772   0.94827   0.00000  Uiso   1.00
C625   C     0.41291   0.13623   0.53241   0.00000  Uiso   1.00
C626   C     0.58713   0.19697   0.96755   0.00000  Uiso   1.00
C627   C     0.54611   0.31339   0.72937   0.00000  Uiso   1.00
C628   C     0.45389   0.01994   0.77062   0.00000  Uiso   1.00
C629   C     0.54413   0.02257   0.73103   0.00000  Uiso   1.00
C630   C     0.45587   0.31077   0.76896   0.00000  Uiso   1.00
C631   C     0.49857   0.04253   0.75139   0.00000  Uiso   1.00
C632   C     0.50143   0.29081   0.74861   0.00000  Uiso   1.00
C633   C     0.65629   0.14308   0.71841   0.00000  Uiso   1.00
C634   C     0.34371   0.19026   0.78159   0.00000  Uiso   1.00
C635   C     0.37072   0.14308   0.71858   0.00000  Uiso   1.00
C636   C     0.62928   0.19025   0.78142   0.00000  Uiso   1.00
C637   C     0.46851   0.16599   0.83845   0.00000  Uiso   1.00
C638   C     0.53149   0.16734   0.66155   0.00000  Uiso   1.00
C639   C     0.44758   0.16256   0.89007   0.00000  Uiso   1.00
C640   C     0.55242   0.17075   0.60993   0.00000  Uiso   1.00
C641   C     0.39050   0.13361   0.96491   0.00000  Uiso   1.00
C642   C     0.60952   0.19965   0.53507   0.00000  Uiso   1.00
C643   C     0.40242   0.14228   0.91713   0.00000  Uiso   1.00
C644   C     0.59758   0.19101   0.58286   0.00000  Uiso   1.00
C645   C     0.47826   0.17583   0.91144   0.00000  Uiso   1.00
C646   C     0.52174   0.15746   0.58856   0.00000  Uiso   1.00
C647   C     0.46973   0.16431   0.95739   0.00000  Uiso   1.00
C648   C     0.53029   0.16893   0.54259   0.00000  Uiso   1.00
C649   C     0.42414   0.14444   0.98506   0.00000  Uiso   1.00
C650   C     0.57588   0.18879   0.51492   0.00000  Uiso   1.00
C651   C     0.50578   0.17166   0.97612   0.00000  Uiso   1.00
C652   C     0.49424   0.16156   0.52387   0.00000  Uiso   1.00
H653   H     0.37764   0.12300   0.55552   0.00000  Uiso   1.00
H654   H     0.62241   0.21018   0.94444   0.00000  Uiso   1.00
H655   H     0.49033   0.13859   0.60953   0.00000  Uiso   1.00
H656   H     0.50966   0.19471   0.89050   0.00000  Uiso   1.00
H657   H     0.43325   0.13983   0.58897   0.00000  Uiso   1.00
H658   H     0.56679   0.19333   0.91099   0.00000  Uiso   1.00
H659   H     0.57844   0.04004   0.71560   0.00000  Uiso   1.00
H660   H     0.42156   0.29330   0.78439   0.00000  Uiso   1.00
H661   H     0.39959   0.12420   0.69353   0.00000  Uiso   1.00
H662   H     0.60041   0.20913   0.80647   0.00000  Uiso   1.00
N663   N     0.38093   0.16668   0.75001   0.00000  Uiso   1.00
N664   N     0.61907   0.16666   0.74999   0.00000  Uiso   1.00
O665   O     0.46179   0.22775   0.75001   0.00000  Uiso   1.00
O666   O     0.53821   0.10558   0.75000   0.00000  Uiso   1.00
O667   O     0.53823   0.22774   0.75000   0.00000  Uiso   1.00
O668   O     0.46177   0.10559   0.75000   0.00000  Uiso   1.00
O669   O     0.43994   0.16667   0.81613   0.00000  Uiso   1.00
O670   O     0.56006   0.16666   0.68388   0.00000  Uiso   1.00
O671   O     0.51639   0.16666   0.81612   0.00000  Uiso   1.00
O672   O     0.48361   0.16667   0.68388   0.00000  Uiso   1.00
Zn673  Zn    0.44896   0.16667   0.75000   0.00000  Uiso   1.00
Zn674  Zn    0.55104   0.16666   0.75000   0.00000  Uiso   1.00
Br675  Br    0.64319   0.20800   0.60974   0.00000  Uiso   1.00
Br676  Br    0.35681   0.12532   0.89024   0.00000  Uiso   1.00
Cl677  Cl    0.33454   0.10689   0.99834   0.00000  Uiso   1.00
Cl678  Cl    0.66548   0.22636   0.50162   0.00000  Uiso   1.00
Br679  Br    0.61089   0.28952   0.69873   0.00000  Uiso   1.00
Br680  Br    0.38911   0.04381   0.80126   0.00000  Uiso   1.00
Cl681  Cl    0.64584   0.11230   0.67677   0.00000  Uiso   1.00
Cl682  Cl    0.35416   0.22103   0.82323   0.00000  Uiso   1.00
C683   C     0.83415   0.24666   0.74881   0.00000  Uiso   1.00
C684   C     0.83252   0.08667   0.75119   0.00000  Uiso   1.00
C685   C     0.77986   0.14547   0.55170   0.00000  Uiso   1.00
C686   C     0.88685   0.18772   0.94827   0.00000  Uiso   1.00
C687   C     0.74624   0.13623   0.53241   0.00000  Uiso   1.00
C688   C     0.92046   0.19697   0.96755   0.00000  Uiso   1.00
C689   C     0.87945   0.31339   0.72937   0.00000  Uiso   1.00
C690   C     0.78722   0.01994   0.77062   0.00000  Uiso   1.00
C691   C     0.87746   0.02257   0.73103   0.00000  Uiso   1.00
C692   C     0.78920   0.31077   0.76896   0.00000  Uiso   1.00
C693   C     0.83190   0.04253   0.75139   0.00000  Uiso   1.00
C694   C     0.83477   0.29081   0.74861   0.00000  Uiso   1.00
C695   C     0.98963   0.14308   0.71841   0.00000  Uiso   1.00
C696   C     0.67704   0.19026   0.78159   0.00000  Uiso   1.00
C697   C     0.70406   0.14308   0.71858   0.00000  Uiso   1.00
C698   C     0.96261   0.19025   0.78142   0.00000  Uiso   1.00
C699   C     0.80184   0.16599   0.83845   0.00000  Uiso   1.00
C700   C     0.86483   0.16734   0.66155   0.00000  Uiso   1.00
C701   C     0.78092   0.16256   0.89007   0.00000  Uiso   1.00
C702   C     0.88575   0.17075   0.60993   0.00000  Uiso   1.00
C703   C     0.72383   0.13361   0.96491   0.00000  Uiso   1.00
C704   C     0.94285   0.19965   0.53507   0.00000  Uiso   1.00
C705   C     0.73576   0.14228   0.91713   0.00000  Uiso   1.00
C706   C     0.93092   0.19101   0.58286   0.00000  Uiso   1.00
C707   C     0.81160   0.17583   0.91144   0.00000  Uiso   1.00
C708   C     0.85507   0.15746   0.58856   0.00000  Uiso   1.00
C709   C     0.80307   0.16431   0.95739   0.00000  Uiso   1.00
C710   C     0.86362   0.16893   0.54259   0.00000  Uiso   1.00
C711   C     0.75747   0.14444   0.98506   0.00000  Uiso   1.00
C712   C     0.90922   0.18879   0.51492   0.00000  Uiso   1.00
C713   C     0.83912   0.17166   0.97612   0.00000  Uiso   1.00
C714   C     0.82758   0.16156   0.52387   0.00000  Uiso   1.00
H715   H     0.71097   0.12300   0.55552   0.00000  Uiso   1.00
H716   H     0.95574   0.21018   0.94444   0.00000  Uiso   1.00
H717   H     0.82367   0.13859   0.60953   0.00000  Uiso   1.00
H718   H     0.84299   0.19471   0.89050   0.00000  Uiso   1.00
H719   H     0.76658   0.13983   0.58897   0.00000  Uiso   1.00
H720   H     0.90013   0.19333   0.91099   0.00000  Uiso   1.00
H721   H     0.91177   0.04004   0.71560   0.00000  Uiso   1.00
H722   H     0.75490   0.29330   0.78439   0.00000  Uiso   1.00
H723   H     0.73292   0.12420   0.69353   0.00000  Uiso   1.00
H724   H     0.93374   0.20913   0.80647   0.00000  Uiso   1.00
N725   N     0.71426   0.16668   0.75001   0.00000  Uiso   1.00
N726   N     0.95241   0.16666   0.74999   0.00000  Uiso   1.00
O727   O     0.79512   0.22775   0.75001   0.00000  Uiso   1.00
O728   O     0.87154   0.10558   0.75000   0.00000  Uiso   1.00
O729   O     0.87157   0.22774   0.75000   0.00000  Uiso   1.00
O730   O     0.79510   0.10559   0.75000   0.00000  Uiso   1.00
O731   O     0.77328   0.16667   0.81613   0.00000  Uiso   1.00
O732   O     0.89339   0.16666   0.68388   0.00000  Uiso   1.00
O733   O     0.84972   0.16666   0.81612   0.00000  Uiso   1.00
O734   O     0.81695   0.16667   0.68388   0.00000  Uiso   1.00
Zn735  Zn    0.78229   0.16667   0.75000   0.00000  Uiso   1.00
Zn736  Zn    0.88438   0.16666   0.75000   0.00000  Uiso   1.00
Br737  Br    0.97652   0.20800   0.60974   0.00000  Uiso   1.00
Br738  Br    0.69015   0.12532   0.89024   0.00000  Uiso   1.00
Cl739  Cl    0.66787   0.10689   0.99834   0.00000  Uiso   1.00
Cl740  Cl    0.99882   0.22636   0.50162   0.00000  Uiso   1.00
Br741  Br    0.94422   0.28952   0.69873   0.00000  Uiso   1.00
Br742  Br    0.72244   0.04381   0.80126   0.00000  Uiso   1.00
Cl743  Cl    0.97917   0.11230   0.67677   0.00000  Uiso   1.00
Cl744  Cl    0.68750   0.22103   0.82323   0.00000  Uiso   1.00
C745   C     0.16748   0.58000   0.74881   0.00000  Uiso   1.00
C746   C     0.16585   0.42000   0.75119   0.00000  Uiso   1.00
C747   C     0.11319   0.47880   0.55170   0.00000  Uiso   1.00
C748   C     0.22018   0.52105   0.94827   0.00000  Uiso   1.00
C749   C     0.07957   0.46957   0.53241   0.00000  Uiso   1.00
C750   C     0.25380   0.53030   0.96755   0.00000  Uiso   1.00
C751   C     0.21278   0.64673   0.72937   0.00000  Uiso   1.00
C752   C     0.12055   0.35327   0.77062   0.00000  Uiso   1.00
C753   C     0.21080   0.35590   0.73103   0.00000  Uiso   1.00
C754   C     0.12254   0.64410   0.76896   0.00000  Uiso   1.00
C755   C     0.16523   0.37586   0.75139   0.00000  Uiso   1.00
C756   C     0.16810   0.62414   0.74861   0.00000  Uiso   1.00
C757   C     0.32296   0.47641   0.71841   0.00000  Uiso   1.00
C758   C     0.01037   0.52359   0.78159   0.00000  Uiso   1.00
C759   C     0.03739   0.47642   0.71858   0.00000  Uiso   1.00
C760   C     0.29594   0.52358   0.78142   0.00000  Uiso   1.00
C761   C     0.13517   0.49932   0.83845   0.00000  Uiso   1.00
C762   C     0.19816   0.50068   0.66155   0.00000  Uiso   1.00
C763   C     0.11425   0.49589   0.89007   0.00000  Uiso   1.00
C764   C     0.21908   0.50408   0.60993   0.00000  Uiso   1.00
C765   C     0.05716   0.46694   0.96491   0.00000  Uiso   1.00
C766   C     0.27619   0.53298   0.53507   0.00000  Uiso   1.00
C767   C     0.06909   0.47561   0.91713   0.00000  Uiso   1.00
C768   C     0.26425   0.52435   0.58286   0.00000  Uiso   1.00
C769   C     0.14493   0.50916   0.91144   0.00000  Uiso   1.00
C770   C     0.18840   0.49079   0.58856   0.00000  Uiso   1.00
C771   C     0.13640   0.49764   0.95739   0.00000  Uiso   1.00
C772   C     0.19695   0.50227   0.54259   0.00000  Uiso   1.00
C773   C     0.09081   0.47777   0.98506   0.00000  Uiso   1.00
C774   C     0.24255   0.52213   0.51492   0.00000  Uiso   1.00
C775   C     0.17245   0.50499   0.97612   0.00000  Uiso   1.00
C776   C     0.16091   0.49490   0.52387   0.00000  Uiso   1.00
H777   H     0.04431   0.45634   0.55552   0.00000  Uiso   1.00
H778   H     0.28907   0.54351   0.94444   0.00000  Uiso   1.00
H779   H     0.15700   0.47193   0.60953   0.00000  Uiso   1.00
H780   H     0.17633   0.52805   0.89050   0.00000  Uiso   1.00
H781   H     0.09992   0.47316   0.58897   0.00000  Uiso   1.00
H782   H     0.23346   0.52666   0.91099   0.00000  Uiso   1.00
H783   H     0.24510   0.37337   0.71560   0.00000  Uiso   1.00
H784   H     0.08823   0.62663   0.78439   0.00000  Uiso   1.00
H785   H     0.06626   0.45754   0.69353   0.00000  Uiso   1.00
H786   H     0.26708   0.54246   0.80647   0.00000  Uiso   1.00
N787   N     0.04759   0.50001   0.75001   0.00000  Uiso   1.00
N788   N     0.28574   0.49999   0.74999   0.00000  Uiso   1.00
O789   O     0.12846   0.56108   0.75001   0.00000  Uiso   1.00
O790   O     0.20488   0.43892   0.75000   0.00000  Uiso   1.00
O791   O     0.20490   0.56107   0.75000   0.00000  Uiso   1.00
O792   O     0.12843   0.43893   0.75000   0.00000  Uiso   1.00
O793   O     0.10661   0.50001   0.81613   0.00000  Uiso   1.00
O794   O     0.22672   0.49999   0.68388   0.00000  Uiso   1.00
O795   O     0.18305   0.50000   0.81612   0.00000  Uiso   1.00
O796   O     0.15028   0.50000   0.68388   0.00000  Uiso   1.00
Zn797  Zn    0.11562   0.50001   0.75000   0.00000  Uiso   1.00
Zn798  Zn    0.21771   0.49999   0.75000   0.00000  Uiso   1.00
Br799  Br    0.30986   0.54133   0.60974   0.00000  Uiso   1.00
Br800  Br    0.02348   0.45865   0.89024   0.00000  Uiso   1.00
Cl801  Cl    0.00120   0.44022   0.99834   0.00000  Uiso   1.00
Cl802  Cl    0.33215   0.55969   0.50162   0.00000  Uiso   1.00
Br803  Br    0.27756   0.62285   0.69873   0.00000  Uiso   1.00
Br804  Br    0.05578   0.37715   0.80126   0.00000  Uiso   1.00
Cl805  Cl    0.31250   0.44564   0.67677   0.00000  Uiso   1.00
Cl806  Cl    0.02083   0.55436   0.82323   0.00000  Uiso   1.00
C807   C     0.50081   0.58000   0.74881   0.00000  Uiso   1.00
C808   C     0.49919   0.42000   0.75119   0.00000  Uiso   1.00
C809   C     0.44652   0.47880   0.55170   0.00000  Uiso   1.00
C810   C     0.55351   0.52105   0.94827   0.00000  Uiso   1.00
C811   C     0.41291   0.46957   0.53241   0.00000  Uiso   1.00
C812   C     0.58713   0.53030   0.96755   0.00000  Uiso   1.00
C813   C     0.54611   0.64673   0.72937   0.00000  Uiso   1.00
C814   C     0.45389   0.35327   0.77062   0.00000  Uiso   1.00
C815   C     0.54413   0.35590   0.73103   0.00000  Uiso   1.00
C816   C     0.45587   0.64410   0.76896   0.00000  Uiso   1.00
C817   C     0.49857   0.37586   0.75139   0.00000  Uiso   1.00
C818   C     0.50143   0.62414   0.74861   0.00000  Uiso   1.00
C819   C     0.65629   0.47641   0.71841   0.00000  Uiso   1.00
C820   C     0.34371   0.52359   0.78159   0.00000  Uiso   1.00
C821   C     0.37072   0.47642   0.71858   0.00000  Uiso   1.00
C822   C     0.62928   0.52358   0.78142   0.00000  Uiso   1.00
C823   C     0.46851   0.49932   0.83845   0.00000  Uiso   1.00
C824   C     0.53149   0.50068   0.66155   0.00000  Uiso   1.00
C825   C     0.44758   0.49589   0.89007   0.00000  Uiso   1.00
C826   C     0.55242   0.50408   0.60993   0.00000  Uiso   1.00
C827   C     0.39050   0.46694   0.96491   0.00000  Uiso   1.00
C828   C     0.60952   0.53298   0.53507   0.00000  Uiso   1.00
C829   C     0.40242   0.47561   0.91713   0.00000  Uiso   1.00
C830   C     0.59758   0.52435   0.58286   0.00000  Uiso   1.00
C831   C     0.47826   0.50916   0.91144   0.00000  Uiso   1.00
C832   C     0.52174   0.49079   0.58856   0.00000  Uiso   1.00
C833   C     0.46973   0.49764   0.95739   0.00000  Uiso   1.00
C834   C     0.53029   0.50227   0.54259   0.00000  Uiso   1.00
C835   C     0.42414   0.47777   0.98506   0.00000  Uiso   1.00
C836   C     0.57588   0.52213   0.51492   0.00000  Uiso   1.00
C837   C     0.50578   0.50499   0.97612   0.00000  Uiso   1.00
C838   C     0.49424   0.49490   0.52387   0.00000  Uiso   1.00
H839   H     0.37764   0.45634   0.55552   0.00000  Uiso   1.00
H840   H     0.62241   0.54351   0.94444   0.00000  Uiso   1.00
H841   H     0.49033   0.47193   0.60953   0.00000  Uiso   1.00
H842   H     0.50966   0.52805   0.89050   0.00000  Uiso   1.00
H843   H     0.43325   0.47316   0.58897   0.00000  Uiso   1.00
H844   H     0.56679   0.52666   0.91099   0.00000  Uiso   1.00
H845   H     0.57844   0.37337   0.71560   0.00000  Uiso   1.00
H846   H     0.42156   0.62663   0.78439   0.00000  Uiso   1.00
H847   H     0.39959   0.45754   0.69353   0.00000  Uiso   1.00
H848   H     0.60041   0.54246   0.80647   0.00000  Uiso   1.00
N849   N     0.38093   0.50001   0.75001   0.00000  Uiso   1.00
N850   N     0.61907   0.49999   0.74999   0.00000  Uiso   1.00
O851   O     0.46179   0.56108   0.75001   0.00000  Uiso   1.00
O852   O     0.53821   0.43892   0.75000   0.00000  Uiso   1.00
O853   O     0.53823   0.56107   0.75000   0.00000  Uiso   1.00
O854   O     0.46177   0.43893   0.75000   0.00000  Uiso   1.00
O855   O     0.43994   0.50001   0.81613   0.00000  Uiso   1.00
O856   O     0.56006   0.49999   0.68388   0.00000  Uiso   1.00
O857   O     0.51639   0.50000   0.81612   0.00000  Uiso   1.00
O858   O     0.48361   0.50000   0.68388   0.00000  Uiso   1.00
Zn859  Zn    0.44896   0.50001   0.75000   0.00000  Uiso   1.00
Zn860  Zn    0.55104   0.49999   0.75000   0.00000  Uiso   1.00
Br861  Br    0.64319   0.54133   0.60974   0.00000  Uiso   1.00
Br862  Br    0.35681   0.45865   0.89024   0.00000  Uiso   1.00
Cl863  Cl    0.33454   0.44022   0.99834   0.00000  Uiso   1.00
Cl864  Cl    0.66548   0.55969   0.50162   0.00000  Uiso   1.00
Br865  Br    0.61089   0.62285   0.69873   0.00000  Uiso   1.00
Br866  Br    0.38911   0.37715   0.80126   0.00000  Uiso   1.00
Cl867  Cl    0.64584   0.44564   0.67677   0.00000  Uiso   1.00
Cl868  Cl    0.35416   0.55436   0.82323   0.00000  Uiso   1.00
C869   C     0.83415   0.58000   0.74881   0.00000  Uiso   1.00
C870   C     0.83252   0.42000   0.75119   0.00000  Uiso   1.00
C871   C     0.77986   0.47880   0.55170   0.00000  Uiso   1.00
C872   C     0.88685   0.52105   0.94827   0.00000  Uiso   1.00
C873   C     0.74624   0.46957   0.53241   0.00000  Uiso   1.00
C874   C     0.92046   0.53030   0.96755   0.00000  Uiso   1.00
C875   C     0.87945   0.64673   0.72937   0.00000  Uiso   1.00
C876   C     0.78722   0.35327   0.77062   0.00000  Uiso   1.00
C877   C     0.87746   0.35590   0.73103   0.00000  Uiso   1.00
C878   C     0.78920   0.64410   0.76896   0.00000  Uiso   1.00
C879   C     0.83190   0.37586   0.75139   0.00000  Uiso   1.00
C880   C     0.83477   0.62414   0.74861   0.00000  Uiso   1.00
C881   C     0.98963   0.47641   0.71841   0.00000  Uiso   1.00
C882   C     0.67704   0.52359   0.78159   0.00000  Uiso   1.00
C883   C     0.70406   0.47642   0.71858   0.00000  Uiso   1.00
C884   C     0.96261   0.52358   0.78142   0.00000  Uiso   1.00
C885   C     0.80184   0.49932   0.83845   0.00000  Uiso   1.00
C886   C     0.86483   0.50068   0.66155   0.00000  Uiso   1.00
C887   C     0.78092   0.49589   0.89007   0.00000  Uiso   1.00
C888   C     0.88575   0.50408   0.60993   0.00000  Uiso   1.00
C889   C     0.72383   0.46694   0.96491   0.00000  Uiso   1.00
C890   C     0.94285   0.53298   0.53507   0.00000  Uiso   1.00
C891   C     0.73576   0.47561   0.91713   0.00000  Uiso   1.00
C892   C     0.93092   0.52435   0.58286   0.00000  Uiso   1.00
C893   C     0.81160   0.50916   0.91144   0.00000  Uiso   1.00
C894   C     0.85507   0.49079   0.58856   0.00000  Uiso   1.00
C895   C     0.80307   0.49764   0.95739   0.00000  Uiso   1.00
C896   C     0.86362   0.50227   0.54259   0.00000  Uiso   1.00
C897   C     0.75747   0.47777   0.98506   0.00000  Uiso   1.00
C898   C     0.90922   0.52213   0.51492   0.00000  Uiso   1.00
C899   C     0.83912   0.50499   0.97612   0.00000  Uiso   1.00
C900   C     0.82758   0.49490   0.52387   0.00000  Uiso   1.00
H901   H     0.71097   0.45634   0.55552   0.00000  Uiso   1.00
H902   H     0.95574   0.54351   0.94444   0.00000  Uiso   1.00
H903   H     0.82367   0.47193   0.60953   0.00000  Uiso   1.00
H904   H     0.84299   0.52805   0.89050   0.00000  Uiso   1.00
H905   H     0.76658   0.47316   0.58897   0.00000  Uiso   1.00
H906   H     0.90013   0.52666   0.91099   0.00000  Uiso   1.00
H907   H     0.91177   0.37337   0.71560   0.00000  Uiso   1.00
H908   H     0.75490   0.62663   0.78439   0.00000  Uiso   1.00
H909   H     0.73292   0.45754   0.69353   0.00000  Uiso   1.00
H910   H     0.93374   0.54246   0.80647   0.00000  Uiso   1.00
N911   N     0.71426   0.50001   0.75001   0.00000  Uiso   1.00
N912   N     0.95241   0.49999   0.74999   0.00000  Uiso   1.00
O913   O     0.79512   0.56108   0.75001   0.00000  Uiso   1.00
O914   O     0.87154   0.43892   0.75000   0.00000  Uiso   1.00
O915   O     0.87157   0.56107   0.75000   0.00000  Uiso   1.00
O916   O     0.79510   0.43893   0.75000   0.00000  Uiso   1.00
O917   O     0.77328   0.50001   0.81613   0.00000  Uiso   1.00
O918   O     0.89339   0.49999   0.68388   0.00000  Uiso   1.00
O919   O     0.84972   0.50000   0.81612   0.00000  Uiso   1.00
O920   O     0.81695   0.50000   0.68388   0.00000  Uiso   1.00
Zn921  Zn    0.78229   0.50001   0.75000   0.00000  Uiso   1.00
Zn922  Zn    0.88438   0.49999   0.75000   0.00000  Uiso   1.00
Br923  Br    0.97652   0.54133   0.60974   0.00000  Uiso   1.00
Br924  Br    0.69015   0.45865   0.89024   0.00000  Uiso   1.00
Cl925  Cl    0.66787   0.44022   0.99834   0.00000  Uiso   1.00
Cl926  Cl    0.99882   0.55969   0.50162   0.00000  Uiso   1.00
Br927  Br    0.94422   0.62285   0.69873   0.00000  Uiso   1.00
Br928  Br    0.72244   0.37715   0.80126   0.00000  Uiso   1.00
Cl929  Cl    0.97917   0.44564   0.67677   0.00000  Uiso   1.00
Cl930  Cl    0.68750   0.55436   0.82323   0.00000  Uiso   1.00
C931   C     0.16748   0.91333   0.74881   0.00000  Uiso   1.00
C932   C     0.16585   0.75334   0.75119   0.00000  Uiso   1.00
C933   C     0.11319   0.81214   0.55170   0.00000  Uiso   1.00
C934   C     0.22018   0.85439   0.94827   0.00000  Uiso   1.00
C935   C     0.07957   0.80290   0.53241   0.00000  Uiso   1.00
C936   C     0.25380   0.86363   0.96755   0.00000  Uiso   1.00
C937   C     0.21278   0.98006   0.72937   0.00000  Uiso   1.00
C938   C     0.12055   0.68661   0.77062   0.00000  Uiso   1.00
C939   C     0.21080   0.68923   0.73103   0.00000  Uiso   1.00
C940   C     0.12254   0.97743   0.76896   0.00000  Uiso   1.00
C941   C     0.16523   0.70919   0.75139   0.00000  Uiso   1.00
C942   C     0.16810   0.95747   0.74861   0.00000  Uiso   1.00
C943   C     0.32296   0.80974   0.71841   0.00000  Uiso   1.00
C944   C     0.01037   0.85692   0.78159   0.00000  Uiso   1.00
C945   C     0.03739   0.80975   0.71858   0.00000  Uiso   1.00
C946   C     0.29594   0.85692   0.78142   0.00000  Uiso   1.00
C947   C     0.13517   0.83265   0.83845   0.00000  Uiso   1.00
C948   C     0.19816   0.83401   0.66155   0.00000  Uiso   1.00
C949   C     0.11425   0.82922   0.89007   0.00000  Uiso   1.00
C950   C     0.21908   0.83741   0.60993   0.00000  Uiso   1.00
C951   C     0.05716   0.80027   0.96491   0.00000  Uiso   1.00
C952   C     0.27619   0.86632   0.53507   0.00000  Uiso   1.00
C953   C     0.06909   0.80894   0.91713   0.00000  Uiso   1.00
C954   C     0.26425   0.85768   0.58286   0.00000  Uiso   1.00
C955   C     0.14493   0.84250   0.91144   0.00000  Uiso   1.00
C956   C     0.18840   0.82412   0.58856   0.00000  Uiso   1.00
C957   C     0.13640   0.83098   0.95739   0.00000  Uiso   1.00
C958   C     0.19695   0.83560   0.54259   0.00000  Uiso   1.00
C959   C     0.09081   0.81111   0.98506   0.00000  Uiso   1.00
C960   C     0.24255   0.85546   0.51492   0.00000  Uiso   1.00
C961   C     0.17245   0.83832   0.97612   0.00000  Uiso   1.00
C962   C     0.16091   0.82823   0.52387   0.00000  Uiso   1.00
H963   H     0.04431   0.78967   0.55552   0.00000  Uiso   1.00
H964   H     0.28907   0.87684   0.94444   0.00000  Uiso   1.00
H965   H     0.15700   0.80526   0.60953   0.00000  Uiso   1.00
H966   H     0.17633   0.86138   0.89050   0.00000  Uiso   1.00
H967   H     0.09992   0.80650   0.58897   0.00000  Uiso   1.00
H968   H     0.23346   0.86000   0.91099   0.00000  Uiso   1.00
H969   H     0.24510   0.70670   0.71560   0.00000  Uiso   1.00
H970   H     0.08823   0.95996   0.78439   0.00000  Uiso   1.00
H971   H     0.06626   0.79087   0.69353   0.00000  Uiso   1.00
H972   H     0.26708   0.87580   0.80647   0.00000  Uiso   1.00
N973   N     0.04759   0.83334   0.75001   0.00000  Uiso   1.00
N974   N     0.28574   0.83332   0.74999   0.00000  Uiso   1.00
O975   O     0.12846   0.89442   0.75001   0.00000  Uiso   1.00
O976   O     0.20488   0.77225   0.75000   0.00000  Uiso   1.00
O977   O     0.20490   0.89441   0.75000   0.00000  Uiso   1.00
O978   O     0.12843   0.77226   0.75000   0.00000  Uiso   1.00
O979   O     0.10661   0.83334   0.81613   0.00000  Uiso   1.00
O980   O     0.22672   0.83333   0.68388   0.00000  Uiso   1.00
O981   O     0.18305   0.83333   0.81612   0.00000  Uiso   1.00
O982   O     0.15028   0.83334   0.68388   0.00000  Uiso   1.00
Zn983  Zn    0.11562   0.83334   0.75000   0.00000  Uiso   1.00
Zn984  Zn    0.21771   0.83333   0.75000   0.00000  Uiso   1.00
Br985  Br    0.30986   0.87467   0.60974   0.00000  Uiso   1.00
Br986  Br    0.02348   0.79198   0.89024   0.00000  Uiso   1.00
Cl987  Cl    0.00120   0.77355   0.99834   0.00000  Uiso   1.00
Cl988  Cl    0.33215   0.89303   0.50162   0.00000  Uiso   1.00
Br989  Br    0.27756   0.95618   0.69873   0.00000  Uiso   1.00
Br990  Br    0.05578   0.71048   0.80126   0.00000  Uiso   1.00
Cl991  Cl    0.31250   0.77897   0.67677   0.00000  Uiso   1.00
Cl992  Cl    0.02083   0.88770   0.82323   0.00000  Uiso   1.00
C993   C     0.50081   0.91333   0.74881   0.00000  Uiso   1.00
C994   C     0.49919   0.75334   0.75119   0.00000  Uiso   1.00
C995   C     0.44652   0.81214   0.55170   0.00000  Uiso   1.00
C996   C     0.55351   0.85439   0.94827   0.00000  Uiso   1.00
C997   C     0.41291   0.80290   0.53241   0.00000  Uiso   1.00
C998   C     0.58713   0.86363   0.96755   0.00000  Uiso   1.00
C999   C     0.54611   0.98006   0.72937   0.00000  Uiso   1.00
C1000  C     0.45389   0.68661   0.77062   0.00000  Uiso   1.00
C1001  C     0.54413   0.68923   0.73103   0.00000  Uiso   1.00
C1002  C     0.45587   0.97743   0.76896   0.00000  Uiso   1.00
C1003  C     0.49857   0.70919   0.75139   0.00000  Uiso   1.00
C1004  C     0.50143   0.95747   0.74861   0.00000  Uiso   1.00
C1005  C     0.65629   0.80974   0.71841   0.00000  Uiso   1.00
C1006  C     0.34371   0.85692   0.78159   0.00000  Uiso   1.00
C1007  C     0.37072   0.80975   0.71858   0.00000  Uiso   1.00
C1008  C     0.62928   0.85692   0.78142   0.00000  Uiso   1.00
C1009  C     0.46851   0.83265   0.83845   0.00000  Uiso   1.00
C1010  C     0.53149   0.83401   0.66155   0.00000  Uiso   1.00
C1011  C     0.44758   0.82922   0.89007   0.00000  Uiso   1.00
C1012  C     0.55242   0.83741   0.60993   0.00000  Uiso   1.00
C1013  C     0.39050   0.80027   0.96491   0.00000  Uiso   1.00
C1014  C     0.60952   0.86632   0.53507   0.00000  Uiso   1.00
C1015  C     0.40242   0.80894   0.91713   0.00000  Uiso   1.00
C1016  C     0.59758   0.85768   0.58286   0.00000  Uiso   1.00
C1017  C     0.47826   0.84250   0.91144   0.00000  Uiso   1.00
C1018  C     0.52174   0.82412   0.58856   0.00000  Uiso   1.00
C1019  C     0.46973   0.83098   0.95739   0.00000  Uiso   1.00
C1020  C     0.53029   0.83560   0.54259   0.00000  Uiso   1.00
C1021  C     0.42414   0.81111   0.98506   0.00000  Uiso   1.00
C1022  C     0.57588   0.85546   0.51492   0.00000  Uiso   1.00
C1023  C     0.50578   0.83832   0.97612   0.00000  Uiso   1.00
C1024  C     0.49424   0.82823   0.52387   0.00000  Uiso   1.00
H1025  H     0.37764   0.78967   0.55552   0.00000  Uiso   1.00
H1026  H     0.62241   0.87684   0.94444   0.00000  Uiso   1.00
H1027  H     0.49033   0.80526   0.60953   0.00000  Uiso   1.00
H1028  H     0.50966   0.86138   0.89050   0.00000  Uiso   1.00
H1029  H     0.43325   0.80650   0.58897   0.00000  Uiso   1.00
H1030  H     0.56679   0.86000   0.91099   0.00000  Uiso   1.00
H1031  H     0.57844   0.70670   0.71560   0.00000  Uiso   1.00
H1032  H     0.42156   0.95996   0.78439   0.00000  Uiso   1.00
H1033  H     0.39959   0.79087   0.69353   0.00000  Uiso   1.00
H1034  H     0.60041   0.87580   0.80647   0.00000  Uiso   1.00
N1035  N     0.38093   0.83334   0.75001   0.00000  Uiso   1.00
N1036  N     0.61907   0.83332   0.74999   0.00000  Uiso   1.00
O1037  O     0.46179   0.89442   0.75001   0.00000  Uiso   1.00
O1038  O     0.53821   0.77225   0.75000   0.00000  Uiso   1.00
O1039  O     0.53823   0.89441   0.75000   0.00000  Uiso   1.00
O1040  O     0.46177   0.77226   0.75000   0.00000  Uiso   1.00
O1041  O     0.43994   0.83334   0.81613   0.00000  Uiso   1.00
O1042  O     0.56006   0.83333   0.68388   0.00000  Uiso   1.00
O1043  O     0.51639   0.83333   0.81612   0.00000  Uiso   1.00
O1044  O     0.48361   0.83334   0.68388   0.00000  Uiso   1.00
Zn1045 Zn    0.44896   0.83334   0.75000   0.00000  Uiso   1.00
Zn1046 Zn    0.55104   0.83333   0.75000   0.00000  Uiso   1.00
Br1047 Br    0.64319   0.87467   0.60974   0.00000  Uiso   1.00
Br1048 Br    0.35681   0.79198   0.89024   0.00000  Uiso   1.00
Cl1049 Cl    0.33454   0.77355   0.99834   0.00000  Uiso   1.00
Cl1050 Cl    0.66548   0.89303   0.50162   0.00000  Uiso   1.00
Br1051 Br    0.61089   0.95618   0.69873   0.00000  Uiso   1.00
Br1052 Br    0.38911   0.71048   0.80126   0.00000  Uiso   1.00
Cl1053 Cl    0.64584   0.77897   0.67677   0.00000  Uiso   1.00
Cl1054 Cl    0.35416   0.88770   0.82323   0.00000  Uiso   1.00
C1055  C     0.83415   0.91333   0.74881   0.00000  Uiso   1.00
C1056  C     0.83252   0.75334   0.75119   0.00000  Uiso   1.00
C1057  C     0.77986   0.81214   0.55170   0.00000  Uiso   1.00
C1058  C     0.88685   0.85439   0.94827   0.00000  Uiso   1.00
C1059  C     0.74624   0.80290   0.53241   0.00000  Uiso   1.00
C1060  C     0.92046   0.86363   0.96755   0.00000  Uiso   1.00
C1061  C     0.87945   0.98006   0.72937   0.00000  Uiso   1.00
C1062  C     0.78722   0.68661   0.77062   0.00000  Uiso   1.00
C1063  C     0.87746   0.68923   0.73103   0.00000  Uiso   1.00
C1064  C     0.78920   0.97743   0.76896   0.00000  Uiso   1.00
C1065  C     0.83190   0.70919   0.75139   0.00000  Uiso   1.00
C1066  C     0.83477   0.95747   0.74861   0.00000  Uiso   1.00
C1067  C     0.98963   0.80974   0.71841   0.00000  Uiso   1.00
C1068  C     0.67704   0.85692   0.78159   0.00000  Uiso   1.00
C1069  C     0.70406   0.80975   0.71858   0.00000  Uiso   1.00
C1070  C     0.96261   0.85692   0.78142   0.00000  Uiso   1.00
C1071  C     0.80184   0.83265   0.83845   0.00000  Uiso   1.00
C1072  C     0.86483   0.83401   0.66155   0.00000  Uiso   1.00
C1073  C     0.78092   0.82922   0.89007   0.00000  Uiso   1.00
C1074  C     0.88575   0.83741   0.60993   0.00000  Uiso   1.00
C1075  C     0.72383   0.80027   0.96491   0.00000  Uiso   1.00
C1076  C     0.94285   0.86632   0.53507   0.00000  Uiso   1.00
C1077  C     0.73576   0.80894   0.91713   0.00000  Uiso   1.00
C1078  C     0.93092   0.85768   0.58286   0.00000  Uiso   1.00
C1079  C     0.81160   0.84250   0.91144   0.00000  Uiso   1.00
C1080  C     0.85507   0.82412   0.58856   0.00000  Uiso   1.00
C1081  C     0.80307   0.83098   0.95739   0.00000  Uiso   1.00
C1082  C     0.86362   0.83560   0.54259   0.00000  Uiso   1.00
C1083  C     0.75747   0.81111   0.98506   0.00000  Uiso   1.00
C1084  C     0.90922   0.85546   0.51492   0.00000  Uiso   1.00
C1085  C     0.83912   0.83832   0.97612   0.00000  Uiso   1.00
C1086  C     0.82758   0.82823   0.52387   0.00000  Uiso   1.00
H1087  H     0.71097   0.78967   0.55552   0.00000  Uiso   1.00
H1088  H     0.95574   0.87684   0.94444   0.00000  Uiso   1.00
H1089  H     0.82367   0.80526   0.60953   0.00000  Uiso   1.00
H1090  H     0.84299   0.86138   0.89050   0.00000  Uiso   1.00
H1091  H     0.76658   0.80650   0.58897   0.00000  Uiso   1.00
H1092  H     0.90013   0.86000   0.91099   0.00000  Uiso   1.00
H1093  H     0.91177   0.70670   0.71560   0.00000  Uiso   1.00
H1094  H     0.75490   0.95996   0.78439   0.00000  Uiso   1.00
H1095  H     0.73292   0.79087   0.69353   0.00000  Uiso   1.00
H1096  H     0.93374   0.87580   0.80647   0.00000  Uiso   1.00
N1097  N     0.71426   0.83334   0.75001   0.00000  Uiso   1.00
N1098  N     0.95241   0.83332   0.74999   0.00000  Uiso   1.00
O1099  O     0.79512   0.89442   0.75001   0.00000  Uiso   1.00
O1100  O     0.87154   0.77225   0.75000   0.00000  Uiso   1.00
O1101  O     0.87157   0.89441   0.75000   0.00000  Uiso   1.00
O1102  O     0.79510   0.77226   0.75000   0.00000  Uiso   1.00
O1103  O     0.77328   0.83334   0.81613   0.00000  Uiso   1.00
O1104  O     0.89339   0.83333   0.68388   0.00000  Uiso   1.00
O1105  O     0.84972   0.83333   0.81612   0.00000  Uiso   1.00
O1106  O     0.81695   0.83334   0.68388   0.00000  Uiso   1.00
Zn1107 Zn    0.78229   0.83334   0.75000   0.00000  Uiso   1.00
Zn1108 Zn    0.88438   0.83333   0.75000   0.00000  Uiso   1.00
Br1109 Br    0.97652   0.87467   0.60974   0.00000  Uiso   1.00
Br1110 Br    0.69015   0.79198   0.89024   0.00000  Uiso   1.00
Cl1111 Cl    0.66787   0.77355   0.99834   0.00000  Uiso   1.00
Cl1112 Cl    0.99882   0.89303   0.50162   0.00000  Uiso   1.00
Br1113 Br    0.94422   0.95618   0.69873   0.00000  Uiso   1.00
Br1114 Br    0.72244   0.71048   0.80126   0.00000  Uiso   1.00
Cl1115 Cl    0.97917   0.77897   0.67677   0.00000  Uiso   1.00
Cl1116 Cl    0.68750   0.88770   0.82323   0.00000  Uiso   1.00
loop_
_geom_bond_atom_site_label_1
_geom_bond_atom_site_label_2
_geom_bond_distance
_geom_bond_site_symmetry_2
_ccdc_geom_bond_type
C1     O45     1.288   .     A
C1     C12     1.422   .     S
C1     O47     1.281   .     A
C2     O48     1.281   .     A
C2     C11     1.422   .     S
C2     O46     1.288   .     A
C3     C5      1.384   .     A
C3     C32     1.417   .     A
C3     H37     1.076   .     S
C4     H38     1.076   .     S
C4     C31     1.417   .     A
C4     C6      1.384   .     A
C5     H33     1.082   .     S
C5     C587    1.395   1_554 S
C6     H34     1.082   .     S
C6     C588    1.395   .     S
C7     Br59    1.925   .     S
C7     C12     1.406   .     A
C7     C195    1.371   .     S
C8     Br60    1.925   .     S
C8     C11     1.406   .     A
C8     C382    1.371   1_545 S
C9     C11     1.396   .     A
C9     H39     1.083   .     S
C9     C379    1.371   1_545 S
C10    C12     1.395   .     A
C10    H40     1.083   .     S
C10    C194    1.371   .     S
C13    Cl61    1.753   .     S
C13    N44     1.372   .     A
C13    C77     1.415   .     S
C14    Cl62    1.752   .     S
C14    N43     1.372   .     A
C14    C140    1.415   1_455 S
C15    N43     1.363   .     A
C15    H41     1.082   .     S
C15    C137    1.415   1_455 S
C16    H42     1.082   .     S
C16    N44     1.363   .     A
C16    C76     1.415   .     S
C17    O51     1.299   .     A
C17    O49     1.293   .     A
C17    C19     1.470   .     S
C18    O52     1.299   .     A
C18    C20     1.469   .     S
C18    O50     1.293   .     A
C19    C23     1.412   .     A
C19    C25     1.390   .     A
C20    C24     1.412   .     A
C20    C26     1.390   .     A
C21    Cl57    1.773   .     S
C21    C23     1.407   .     A
C21    C29     1.416   .     A
C22    Cl58    1.773   .     S
C22    C24     1.407   .     A
C22    C30     1.416   .     A
C23    Br56    1.929   .     S
C24    Br55    1.929   .     S
C25    C27     1.395   .     A
C25    H36     1.076   .     S
C26    C28     1.395   .     A
C26    H35     1.076   .     S
C27    C29     1.419   .     A
C27    C31     1.425   .     A
C28    C32     1.425   .     A
C28    C30     1.419   .     A
C29    C563    1.395   .     S
C30    C564    1.395   1_554 S
C31    C590    1.418   .     S
C32    C589    1.418   1_554 S
N43    Zn53    2.012   .     S
N44    Zn54    2.012   .     S
O45    Zn53    2.001   .     S
O46    Zn54    2.001   .     S
O47    Zn54    2.006   .     S
O48    Zn53    2.006   .     S
O49    Zn53    1.961   .     S
O50    Zn54    1.961   .     S
O51    Zn54    1.887   .     S
O52    Zn53    1.887   .     S
C63    O107    1.288   .     A
C63    C74     1.422   .     S
C63    O109    1.281   .     A
C64    O110    1.281   .     A
C64    C73     1.422   .     S
C64    O108    1.288   .     A
C65    C67     1.384   .     A
C65    C94     1.417   .     A
C65    H99     1.076   .     S
C66    H100    1.076   .     S
C66    C93     1.417   .     A
C66    C68     1.384   .     A
C67    H95     1.082   .     S
C67    C649    1.395   1_554 S
C68    H96     1.082   .     S
C68    C650    1.395   .     S
C69    Br121   1.925   .     S
C69    C74     1.406   .     A
C69    C257    1.371   .     S
C70    Br122   1.925   .     S
C70    C73     1.406   .     A
C70    C444    1.371   1_545 S
C71    C73     1.396   .     A
C71    H101    1.083   .     S
C71    C441    1.371   1_545 S
C72    C74     1.395   .     A
C72    H102    1.083   .     S
C72    C256    1.371   .     S
C75    Cl123   1.753   .     S
C75    N106    1.372   .     A
C75    C139    1.415   .     S
C76    Cl124   1.752   .     S
C76    N105    1.372   .     A
C77    N105    1.363   .     A
C77    H103    1.082   .     S
C78    H104    1.082   .     S
C78    N106    1.363   .     A
C78    C138    1.415   .     S
C79    O113    1.299   .     A
C79    O111    1.293   .     A
C79    C81     1.470   .     S
C80    O114    1.299   .     A
C80    C82     1.469   .     S
C80    O112    1.293   .     A
C81    C85     1.412   .     A
C81    C87     1.390   .     A
C82    C86     1.412   .     A
C82    C88     1.390   .     A
C83    Cl119   1.773   .     S
C83    C85     1.407   .     A
C83    C91     1.416   .     A
C84    Cl120   1.773   .     S
C84    C86     1.407   .     A
C84    C92     1.416   .     A
C85    Br118   1.929   .     S
C86    Br117   1.929   .     S
C87    C89     1.395   .     A
C87    H98     1.076   .     S
C88    C90     1.395   .     A
C88    H97     1.076   .     S
C89    C91     1.419   .     A
C89    C93     1.425   .     A
C90    C94     1.425   .     A
C90    C92     1.419   .     A
C91    C625    1.395   .     S
C92    C626    1.395   1_554 S
C93    C652    1.418   .     S
C94    C651    1.418   1_554 S
N105   Zn115   2.012   .     S
N106   Zn116   2.012   .     S
O107   Zn115   2.001   .     S
O108   Zn116   2.001   .     S
O109   Zn116   2.006   .     S
O110   Zn115   2.006   .     S
O111   Zn115   1.961   .     S
O112   Zn116   1.961   .     S
O113   Zn116   1.887   .     S
O114   Zn115   1.887   .     S
C125   O169    1.288   .     A
C125   C136    1.422   .     S
C125   O171    1.281   .     A
C126   O172    1.281   .     A
C126   C135    1.422   .     S
C126   O170    1.288   .     A
C127   C129    1.384   .     A
C127   C156    1.417   .     A
C127   H161    1.076   .     S
C128   H162    1.076   .     S
C128   C155    1.417   .     A
C128   C130    1.384   .     A
C129   H157    1.082   .     S
C129   C711    1.395   1_554 S
C130   H158    1.082   .     S
C130   C712    1.395   .     S
C131   Br183   1.925   .     S
C131   C136    1.406   .     A
C131   C319    1.371   .     S
C132   Br184   1.925   .     S
C132   C135    1.406   .     A
C132   C506    1.371   1_545 S
C133   C135    1.396   .     A
C133   H163    1.083   .     S
C133   C503    1.371   1_545 S
C134   C136    1.395   .     A
C134   H164    1.083   .     S
C134   C318    1.371   .     S
C137   Cl185   1.753   .     S
C137   N168    1.372   .     A
C137   C15     1.415   1_655 S
C138   Cl186   1.752   .     S
C138   N167    1.372   .     A
C139   N167    1.363   .     A
C139   H165    1.082   .     S
C140   H166    1.082   .     S
C140   N168    1.363   .     A
C140   C14     1.415   1_655 S
C141   O175    1.299   .     A
C141   O173    1.293   .     A
C141   C143    1.470   .     S
C142   O176    1.299   .     A
C142   C144    1.469   .     S
C142   O174    1.293   .     A
C143   C147    1.412   .     A
C143   C149    1.390   .     A
C144   C148    1.412   .     A
C144   C150    1.390   .     A
C145   Cl181   1.773   .     S
C145   C147    1.407   .     A
C145   C153    1.416   .     A
C146   Cl182   1.773   .     S
C146   C148    1.407   .     A
C146   C154    1.416   .     A
C147   Br180   1.929   .     S
C148   Br179   1.929   .     S
C149   C151    1.395   .     A
C149   H160    1.076   .     S
C150   C152    1.395   .     A
C150   H159    1.076   .     S
C151   C153    1.419   .     A
C151   C155    1.425   .     A
C152   C156    1.425   .     A
C152   C154    1.419   .     A
C153   C687    1.395   .     S
C154   C688    1.395   1_554 S
C155   C714    1.418   .     S
C156   C713    1.418   1_554 S
N167   Zn177   2.012   .     S
N168   Zn178   2.012   .     S
O169   Zn177   2.001   .     S
O170   Zn178   2.001   .     S
O171   Zn178   2.006   .     S
O172   Zn177   2.006   .     S
O173   Zn177   1.961   .     S
O174   Zn178   1.961   .     S
O175   Zn178   1.887   .     S
O176   Zn177   1.887   .     S
C187   O231    1.288   .     A
C187   C198    1.422   .     S
C187   O233    1.281   .     A
C188   O234    1.281   .     A
C188   C197    1.422   .     S
C188   O232    1.288   .     A
C189   C191    1.384   .     A
C189   C218    1.417   .     A
C189   H223    1.076   .     S
C190   H224    1.076   .     S
C190   C217    1.417   .     A
C190   C192    1.384   .     A
C191   H219    1.082   .     S
C191   C773    1.395   1_554 S
C192   H220    1.082   .     S
C192   C774    1.395   .     S
C193   Br245   1.925   .     S
C193   C198    1.406   .     A
C193   C381    1.371   .     S
C194   Br246   1.925   .     S
C194   C197    1.406   .     A
C195   C197    1.396   .     A
C195   H225    1.083   .     S
C196   C198    1.395   .     A
C196   H226    1.083   .     S
C196   C380    1.371   .     S
C199   Cl247   1.753   .     S
C199   N230    1.372   .     A
C199   C263    1.415   .     S
C200   Cl248   1.752   .     S
C200   N229    1.372   .     A
C200   C326    1.415   1_455 S
C201   N229    1.363   .     A
C201   H227    1.082   .     S
C201   C323    1.415   1_455 S
C202   H228    1.082   .     S
C202   N230    1.363   .     A
C202   C262    1.415   .     S
C203   O237    1.299   .     A
C203   O235    1.293   .     A
C203   C205    1.470   .     S
C204   O238    1.299   .     A
C204   C206    1.469   .     S
C204   O236    1.293   .     A
C205   C209    1.412   .     A
C205   C211    1.390   .     A
C206   C210    1.412   .     A
C206   C212    1.390   .     A
C207   Cl243   1.773   .     S
C207   C209    1.407   .     A
C207   C215    1.416   .     A
C208   Cl244   1.773   .     S
C208   C210    1.407   .     A
C208   C216    1.416   .     A
C209   Br242   1.929   .     S
C210   Br241   1.929   .     S
C211   C213    1.395   .     A
C211   H222    1.076   .     S
C212   C214    1.395   .     A
C212   H221    1.076   .     S
C213   C215    1.419   .     A
C213   C217    1.425   .     A
C214   C218    1.425   .     A
C214   C216    1.419   .     A
C215   C749    1.395   .     S
C216   C750    1.395   1_554 S
C217   C776    1.418   .     S
C218   C775    1.418   1_554 S
N229   Zn239   2.012   .     S
N230   Zn240   2.012   .     S
O231   Zn239   2.001   .     S
O232   Zn240   2.001   .     S
O233   Zn240   2.006   .     S
O234   Zn239   2.006   .     S
O235   Zn239   1.961   .     S
O236   Zn240   1.961   .     S
O237   Zn240   1.887   .     S
O238   Zn239   1.887   .     S
C249   O293    1.288   .     A
C249   C260    1.422   .     S
C249   O295    1.281   .     A
C250   O296    1.281   .     A
C250   C259    1.422   .     S
C250   O294    1.288   .     A
C251   C253    1.384   .     A
C251   C280    1.417   .     A
C251   H285    1.076   .     S
C252   H286    1.076   .     S
C252   C279    1.417   .     A
C252   C254    1.384   .     A
C253   H281    1.082   .     S
C253   C835    1.395   1_554 S
C254   H282    1.082   .     S
C254   C836    1.395   .     S
C255   Br307   1.925   .     S
C255   C260    1.406   .     A
C255   C443    1.371   .     S
C256   Br308   1.925   .     S
C256   C259    1.406   .     A
C257   C259    1.396   .     A
C257   H287    1.083   .     S
C258   C260    1.395   .     A
C258   H288    1.083   .     S
C258   C442    1.371   .     S
C261   Cl309   1.753   .     S
C261   N292    1.372   .     A
C261   C325    1.415   .     S
C262   Cl310   1.752   .     S
C262   N291    1.372   .     A
C263   N291    1.363   .     A
C263   H289    1.082   .     S
C264   H290    1.082   .     S
C264   N292    1.363   .     A
C264   C324    1.415   .     S
C265   O299    1.299   .     A
C265   O297    1.293   .     A
C265   C267    1.470   .     S
C266   O300    1.299   .     A
C266   C268    1.469   .     S
C266   O298    1.293   .     A
C267   C271    1.412   .     A
C267   C273    1.390   .     A
C268   C272    1.412   .     A
C268   C274    1.390   .     A
C269   Cl305   1.773   .     S
C269   C271    1.407   .     A
C269   C277    1.416   .     A
C270   Cl306   1.773   .     S
C270   C272    1.407   .     A
C270   C278    1.416   .     A
C271   Br304   1.929   .     S
C272   Br303   1.929   .     S
C273   C275    1.395   .     A
C273   H284    1.076   .     S
C274   C276    1.395   .     A
C274   H283    1.076   .     S
C275   C277    1.419   .     A
C275   C279    1.425   .     A
C276   C280    1.425   .     A
C276   C278    1.419   .     A
C277   C811    1.395   .     S
C278   C812    1.395   1_554 S
C279   C838    1.418   .     S
C280   C837    1.418   1_554 S
N291   Zn301   2.012   .     S
N292   Zn302   2.012   .     S
O293   Zn301   2.001   .     S
O294   Zn302   2.001   .     S
O295   Zn302   2.006   .     S
O296   Zn301   2.006   .     S
O297   Zn301   1.961   .     S
O298   Zn302   1.961   .     S
O299   Zn302   1.887   .     S
O300   Zn301   1.887   .     S
C311   O355    1.288   .     A
C311   C322    1.422   .     S
C311   O357    1.281   .     A
C312   O358    1.281   .     A
C312   C321    1.422   .     S
C312   O356    1.288   .     A
C313   C315    1.384   .     A
C313   C342    1.417   .     A
C313   H347    1.076   .     S
C314   H348    1.076   .     S
C314   C341    1.417   .     A
C314   C316    1.384   .     A
C315   H343    1.082   .     S
C315   C897    1.395   1_554 S
C316   H344    1.082   .     S
C316   C898    1.395   .     S
C317   Br369   1.925   .     S
C317   C322    1.406   .     A
C317   C505    1.371   .     S
C318   Br370   1.925   .     S
C318   C321    1.406   .     A
C319   C321    1.396   .     A
C319   H349    1.083   .     S
C320   C322    1.395   .     A
C320   H350    1.083   .     S
C320   C504    1.371   .     S
C323   Cl371   1.753   .     S
C323   N354    1.372   .     A
C323   C201    1.415   1_655 S
C324   Cl372   1.752   .     S
C324   N353    1.372   .     A
C325   N353    1.363   .     A
C325   H351    1.082   .     S
C326   H352    1.082   .     S
C326   N354    1.363   .     A
C326   C200    1.415   1_655 S
C327   O361    1.299   .     A
C327   O359    1.293   .     A
C327   C329    1.470   .     S
C328   O362    1.299   .     A
C328   C330    1.469   .     S
C328   O360    1.293   .     A
C329   C333    1.412   .     A
C329   C335    1.390   .     A
C330   C334    1.412   .     A
C330   C336    1.390   .     A
C331   Cl367   1.773   .     S
C331   C333    1.407   .     A
C331   C339    1.416   .     A
C332   Cl368   1.773   .     S
C332   C334    1.407   .     A
C332   C340    1.416   .     A
C333   Br366   1.929   .     S
C334   Br365   1.929   .     S
C335   C337    1.395   .     A
C335   H346    1.076   .     S
C336   C338    1.395   .     A
C336   H345    1.076   .     S
C337   C339    1.419   .     A
C337   C341    1.425   .     A
C338   C342    1.425   .     A
C338   C340    1.419   .     A
C339   C873    1.395   .     S
C340   C874    1.395   1_554 S
C341   C900    1.418   .     S
C342   C899    1.418   1_554 S
N353   Zn363   2.012   .     S
N354   Zn364   2.012   .     S
O355   Zn363   2.001   .     S
O356   Zn364   2.001   .     S
O357   Zn364   2.006   .     S
O358   Zn363   2.006   .     S
O359   Zn363   1.961   .     S
O360   Zn364   1.961   .     S
O361   Zn364   1.887   .     S
O362   Zn363   1.887   .     S
C373   O417    1.288   .     A
C373   C384    1.422   .     S
C373   O419    1.281   .     A
C374   O420    1.281   .     A
C374   C383    1.422   .     S
C374   O418    1.288   .     A
C375   C377    1.384   .     A
C375   C404    1.417   .     A
C375   H409    1.076   .     S
C376   H410    1.076   .     S
C376   C403    1.417   .     A
C376   C378    1.384   .     A
C377   H405    1.082   .     S
C377   C959    1.395   1_554 S
C378   H406    1.082   .     S
C378   C960    1.395   .     S
C379   Br431   1.925   .     S
C379   C384    1.406   .     A
C379   C9      1.371   1_565 S
C380   Br432   1.925   .     S
C380   C383    1.406   .     A
C381   C383    1.396   .     A
C381   H411    1.083   .     S
C382   C384    1.395   .     A
C382   H412    1.083   .     S
C382   C8      1.371   1_565 S
C385   Cl433   1.753   .     S
C385   N416    1.372   .     A
C385   C449    1.415   .     S
C386   Cl434   1.752   .     S
C386   N415    1.372   .     A
C386   C512    1.415   1_455 S
C387   N415    1.363   .     A
C387   H413    1.082   .     S
C387   C509    1.415   1_455 S
C388   H414    1.082   .     S
C388   N416    1.363   .     A
C388   C448    1.415   .     S
C389   O423    1.299   .     A
C389   O421    1.293   .     A
C389   C391    1.470   .     S
C390   O424    1.299   .     A
C390   C392    1.469   .     S
C390   O422    1.293   .     A
C391   C395    1.412   .     A
C391   C397    1.390   .     A
C392   C396    1.412   .     A
C392   C398    1.390   .     A
C393   Cl429   1.773   .     S
C393   C395    1.407   .     A
C393   C401    1.416   .     A
C394   Cl430   1.773   .     S
C394   C396    1.407   .     A
C394   C402    1.416   .     A
C395   Br428   1.929   .     S
C396   Br427   1.929   .     S
C397   C399    1.395   .     A
C397   H408    1.076   .     S
C398   C400    1.395   .     A
C398   H407    1.076   .     S
C399   C401    1.419   .     A
C399   C403    1.425   .     A
C400   C404    1.425   .     A
C400   C402    1.419   .     A
C401   C935    1.395   .     S
C402   C936    1.395   1_554 S
C403   C962    1.418   .     S
C404   C961    1.418   1_554 S
N415   Zn425   2.012   .     S
N416   Zn426   2.012   .     S
O417   Zn425   2.001   .     S
O418   Zn426   2.001   .     S
O419   Zn426   2.006   .     S
O420   Zn425   2.006   .     S
O421   Zn425   1.961   .     S
O422   Zn426   1.961   .     S
O423   Zn426   1.887   .     S
O424   Zn425   1.887   .     S
C435   O479    1.288   .     A
C435   C446    1.422   .     S
C435   O481    1.281   .     A
C436   O482    1.281   .     A
C436   C445    1.422   .     S
C436   O480    1.288   .     A
C437   C439    1.384   .     A
C437   C466    1.417   .     A
C437   H471    1.076   .     S
C438   H472    1.076   .     S
C438   C465    1.417   .     A
C438   C440    1.384   .     A
C439   H467    1.082   .     S
C439   C1021   1.395   1_554 S
C440   H468    1.082   .     S
C440   C1022   1.395   .     S
C441   Br493   1.925   .     S
C441   C446    1.406   .     A
C441   C71     1.371   1_565 S
C442   Br494   1.925   .     S
C442   C445    1.406   .     A
C443   C445    1.396   .     A
C443   H473    1.083   .     S
C444   C446    1.395   .     A
C444   H474    1.083   .     S
C444   C70     1.371   1_565 S
C447   Cl495   1.753   .     S
C447   N478    1.372   .     A
C447   C511    1.415   .     S
C448   Cl496   1.752   .     S
C448   N477    1.372   .     A
C449   N477    1.363   .     A
C449   H475    1.082   .     S
C450   H476    1.082   .     S
C450   N478    1.363   .     A
C450   C510    1.415   .     S
C451   O485    1.299   .     A
C451   O483    1.293   .     A
C451   C453    1.470   .     S
C452   O486    1.299   .     A
C452   C454    1.469   .     S
C452   O484    1.293   .     A
C453   C457    1.412   .     A
C453   C459    1.390   .     A
C454   C458    1.412   .     A
C454   C460    1.390   .     A
C455   Cl491   1.773   .     S
C455   C457    1.407   .     A
C455   C463    1.416   .     A
C456   Cl492   1.773   .     S
C456   C458    1.407   .     A
C456   C464    1.416   .     A
C457   Br490   1.929   .     S
C458   Br489   1.929   .     S
C459   C461    1.395   .     A
C459   H470    1.076   .     S
C460   C462    1.395   .     A
C460   H469    1.076   .     S
C461   C463    1.419   .     A
C461   C465    1.425   .     A
C462   C466    1.425   .     A
C462   C464    1.419   .     A
C463   C997    1.395   .     S
C464   C998    1.395   1_554 S
C465   C1024   1.418   .     S
C466   C1023   1.418   1_554 S
N477   Zn487   2.012   .     S
N478   Zn488   2.012   .     S
O479   Zn487   2.001   .     S
O480   Zn488   2.001   .     S
O481   Zn488   2.006   .     S
O482   Zn487   2.006   .     S
O483   Zn487   1.961   .     S
O484   Zn488   1.961   .     S
O485   Zn488   1.887   .     S
O486   Zn487   1.887   .     S
C497   O541    1.288   .     A
C497   C508    1.422   .     S
C497   O543    1.281   .     A
C498   O544    1.281   .     A
C498   C507    1.422   .     S
C498   O542    1.288   .     A
C499   C501    1.384   .     A
C499   C528    1.417   .     A
C499   H533    1.076   .     S
C500   H534    1.076   .     S
C500   C527    1.417   .     A
C500   C502    1.384   .     A
C501   H529    1.082   .     S
C501   C1083   1.395   1_554 S
C502   H530    1.082   .     S
C502   C1084   1.395   .     S
C503   Br555   1.925   .     S
C503   C508    1.406   .     A
C503   C133    1.371   1_565 S
C504   Br556   1.925   .     S
C504   C507    1.406   .     A
C505   C507    1.396   .     A
C505   H535    1.083   .     S
C506   C508    1.395   .     A
C506   H536    1.083   .     S
C506   C132    1.371   1_565 S
C509   Cl557   1.753   .     S
C509   N540    1.372   .     A
C509   C387    1.415   1_655 S
C510   Cl558   1.752   .     S
C510   N539    1.372   .     A
C511   N539    1.363   .     A
C511   H537    1.082   .     S
C512   H538    1.082   .     S
C512   N540    1.363   .     A
C512   C386    1.415   1_655 S
C513   O547    1.299   .     A
C513   O545    1.293   .     A
C513   C515    1.470   .     S
C514   O548    1.299   .     A
C514   C516    1.469   .     S
C514   O546    1.293   .     A
C515   C519    1.412   .     A
C515   C521    1.390   .     A
C516   C520    1.412   .     A
C516   C522    1.390   .     A
C517   Cl553   1.773   .     S
C517   C519    1.407   .     A
C517   C525    1.416   .     A
C518   Cl554   1.773   .     S
C518   C520    1.407   .     A
C518   C526    1.416   .     A
C519   Br552   1.929   .     S
C520   Br551   1.929   .     S
C521   C523    1.395   .     A
C521   H532    1.076   .     S
C522   C524    1.395   .     A
C522   H531    1.076   .     S
C523   C525    1.419   .     A
C523   C527    1.425   .     A
C524   C528    1.425   .     A
C524   C526    1.419   .     A
C525   C1059   1.395   .     S
C526   C1060   1.395   1_554 S
C527   C1086   1.418   .     S
C528   C1085   1.418   1_554 S
N539   Zn549   2.012   .     S
N540   Zn550   2.012   .     S
O541   Zn549   2.001   .     S
O542   Zn550   2.001   .     S
O543   Zn550   2.006   .     S
O544   Zn549   2.006   .     S
O545   Zn549   1.961   .     S
O546   Zn550   1.961   .     S
O547   Zn550   1.887   .     S
O548   Zn549   1.887   .     S
C559   O603    1.288   .     A
C559   C570    1.422   .     S
C559   O605    1.281   .     A
C560   O606    1.281   .     A
C560   C569    1.422   .     S
C560   O604    1.288   .     A
C561   C563    1.384   .     A
C561   C590    1.417   .     A
C561   H595    1.076   .     S
C562   H596    1.076   .     S
C562   C589    1.417   .     A
C562   C564    1.384   .     A
C563   H591    1.082   .     S
C564   H592    1.082   .     S
C564   C30     1.395   1_556 S
C565   Br617   1.925   .     S
C565   C570    1.406   .     A
C565   C753    1.371   .     S
C566   Br618   1.925   .     S
C566   C569    1.406   .     A
C566   C940    1.371   1_545 S
C567   C569    1.396   .     A
C567   H597    1.083   .     S
C567   C937    1.371   1_545 S
C568   C570    1.395   .     A
C568   H598    1.083   .     S
C568   C752    1.371   .     S
C571   Cl619   1.753   .     S
C571   N602    1.372   .     A
C571   C635    1.415   .     S
C572   Cl620   1.752   .     S
C572   N601    1.372   .     A
C572   C698    1.415   1_455 S
C573   N601    1.363   .     A
C573   H599    1.082   .     S
C573   C695    1.415   1_455 S
C574   H600    1.082   .     S
C574   N602    1.363   .     A
C574   C634    1.415   .     S
C575   O609    1.299   .     A
C575   O607    1.293   .     A
C575   C577    1.470   .     S
C576   O610    1.299   .     A
C576   C578    1.469   .     S
C576   O608    1.293   .     A
C577   C581    1.412   .     A
C577   C583    1.390   .     A
C578   C582    1.412   .     A
C578   C584    1.390   .     A
C579   Cl615   1.773   .     S
C579   C581    1.407   .     A
C579   C587    1.416   .     A
C580   Cl616   1.773   .     S
C580   C582    1.407   .     A
C580   C588    1.416   .     A
C581   Br614   1.929   .     S
C582   Br613   1.929   .     S
C583   C585    1.395   .     A
C583   H594    1.076   .     S
C584   C586    1.395   .     A
C584   H593    1.076   .     S
C585   C587    1.419   .     A
C585   C589    1.425   .     A
C586   C590    1.425   .     A
C586   C588    1.419   .     A
C587   C5      1.395   1_556 S
C589   C32     1.418   1_556 S
N601   Zn611   2.012   .     S
N602   Zn612   2.012   .     S
O603   Zn611   2.001   .     S
O604   Zn612   2.001   .     S
O605   Zn612   2.006   .     S
O606   Zn611   2.006   .     S
O607   Zn611   1.961   .     S
O608   Zn612   1.961   .     S
O609   Zn612   1.887   .     S
O610   Zn611   1.887   .     S
C621   O665    1.288   .     A
C621   C632    1.422   .     S
C621   O667    1.281   .     A
C622   O668    1.281   .     A
C622   C631    1.422   .     S
C622   O666    1.288   .     A
C623   C625    1.384   .     A
C623   C652    1.417   .     A
C623   H657    1.076   .     S
C624   H658    1.076   .     S
C624   C651    1.417   .     A
C624   C626    1.384   .     A
C625   H653    1.082   .     S
C626   H654    1.082   .     S
C626   C92     1.395   1_556 S
C627   Br679   1.925   .     S
C627   C632    1.406   .     A
C627   C815    1.371   .     S
C628   Br680   1.925   .     S
C628   C631    1.406   .     A
C628   C1002   1.371   1_545 S
C629   C631    1.396   .     A
C629   H659    1.083   .     S
C629   C999    1.371   1_545 S
C630   C632    1.395   .     A
C630   H660    1.083   .     S
C630   C814    1.371   .     S
C633   Cl681   1.753   .     S
C633   N664    1.372   .     A
C633   C697    1.415   .     S
C634   Cl682   1.752   .     S
C634   N663    1.372   .     A
C635   N663    1.363   .     A
C635   H661    1.082   .     S
C636   H662    1.082   .     S
C636   N664    1.363   .     A
C636   C696    1.415   .     S
C637   O671    1.299   .     A
C637   O669    1.293   .     A
C637   C639    1.470   .     S
C638   O672    1.299   .     A
C638   C640    1.469   .     S
C638   O670    1.293   .     A
C639   C643    1.412   .     A
C639   C645    1.390   .     A
C640   C644    1.412   .     A
C640   C646    1.390   .     A
C641   Cl677   1.773   .     S
C641   C643    1.407   .     A
C641   C649    1.416   .     A
C642   Cl678   1.773   .     S
C642   C644    1.407   .     A
C642   C650    1.416   .     A
C643   Br676   1.929   .     S
C644   Br675   1.929   .     S
C645   C647    1.395   .     A
C645   H656    1.076   .     S
C646   C648    1.395   .     A
C646   H655    1.076   .     S
C647   C649    1.419   .     A
C647   C651    1.425   .     A
C648   C652    1.425   .     A
C648   C650    1.419   .     A
C649   C67     1.395   1_556 S
C651   C94     1.418   1_556 S
N663   Zn673   2.012   .     S
N664   Zn674   2.012   .     S
O665   Zn673   2.001   .     S
O666   Zn674   2.001   .     S
O667   Zn674   2.006   .     S
O668   Zn673   2.006   .     S
O669   Zn673   1.961   .     S
O670   Zn674   1.961   .     S
O671   Zn674   1.887   .     S
O672   Zn673   1.887   .     S
C683   O727    1.288   .     A
C683   C694    1.422   .     S
C683   O729    1.281   .     A
C684   O730    1.281   .     A
C684   C693    1.422   .     S
C684   O728    1.288   .     A
C685   C687    1.384   .     A
C685   C714    1.417   .     A
C685   H719    1.076   .     S
C686   H720    1.076   .     S
C686   C713    1.417   .     A
C686   C688    1.384   .     A
C687   H715    1.082   .     S
C688   H716    1.082   .     S
C688   C154    1.395   1_556 S
C689   Br741   1.925   .     S
C689   C694    1.406   .     A
C689   C877    1.371   .     S
C690   Br742   1.925   .     S
C690   C693    1.406   .     A
C690   C1064   1.371   1_545 S
C691   C693    1.396   .     A
C691   H721    1.083   .     S
C691   C1061   1.371   1_545 S
C692   C694    1.395   .     A
C692   H722    1.083   .     S
C692   C876    1.371   .     S
C695   Cl743   1.753   .     S
C695   N726    1.372   .     A
C695   C573    1.415   1_655 S
C696   Cl744   1.752   .     S
C696   N725    1.372   .     A
C697   N725    1.363   .     A
C697   H723    1.082   .     S
C698   H724    1.082   .     S
C698   N726    1.363   .     A
C698   C572    1.415   1_655 S
C699   O733    1.299   .     A
C699   O731    1.293   .     A
C699   C701    1.470   .     S
C700   O734    1.299   .     A
C700   C702    1.469   .     S
C700   O732    1.293   .     A
C701   C705    1.412   .     A
C701   C707    1.390   .     A
C702   C706    1.412   .     A
C702   C708    1.390   .     A
C703   Cl739   1.773   .     S
C703   C705    1.407   .     A
C703   C711    1.416   .     A
C704   Cl740   1.773   .     S
C704   C706    1.407   .     A
C704   C712    1.416   .     A
C705   Br738   1.929   .     S
C706   Br737   1.929   .     S
C707   C709    1.395   .     A
C707   H718    1.076   .     S
C708   C710    1.395   .     A
C708   H717    1.076   .     S
C709   C711    1.419   .     A
C709   C713    1.425   .     A
C710   C714    1.425   .     A
C710   C712    1.419   .     A
C711   C129    1.395   1_556 S
C713   C156    1.418   1_556 S
N725   Zn735   2.012   .     S
N726   Zn736   2.012   .     S
O727   Zn735   2.001   .     S
O728   Zn736   2.001   .     S
O729   Zn736   2.006   .     S
O730   Zn735   2.006   .     S
O731   Zn735   1.961   .     S
O732   Zn736   1.961   .     S
O733   Zn736   1.887   .     S
O734   Zn735   1.887   .     S
C745   O789    1.288   .     A
C745   C756    1.422   .     S
C745   O791    1.281   .     A
C746   O792    1.281   .     A
C746   C755    1.422   .     S
C746   O790    1.288   .     A
C747   C749    1.384   .     A
C747   C776    1.417   .     A
C747   H781    1.076   .     S
C748   H782    1.076   .     S
C748   C775    1.417   .     A
C748   C750    1.384   .     A
C749   H777    1.082   .     S
C750   H778    1.082   .     S
C750   C216    1.395   1_556 S
C751   Br803   1.925   .     S
C751   C756    1.406   .     A
C751   C939    1.371   .     S
C752   Br804   1.925   .     S
C752   C755    1.406   .     A
C753   C755    1.396   .     A
C753   H783    1.083   .     S
C754   C756    1.395   .     A
C754   H784    1.083   .     S
C754   C938    1.371   .     S
C757   Cl805   1.753   .     S
C757   N788    1.372   .     A
C757   C821    1.415   .     S
C758   Cl806   1.752   .     S
C758   N787    1.372   .     A
C758   C884    1.415   1_455 S
C759   N787    1.363   .     A
C759   H785    1.082   .     S
C759   C881    1.415   1_455 S
C760   H786    1.082   .     S
C760   N788    1.363   .     A
C760   C820    1.415   .     S
C761   O795    1.299   .     A
C761   O793    1.293   .     A
C761   C763    1.470   .     S
C762   O796    1.299   .     A
C762   C764    1.469   .     S
C762   O794    1.293   .     A
C763   C767    1.412   .     A
C763   C769    1.390   .     A
C764   C768    1.412   .     A
C764   C770    1.390   .     A
C765   Cl801   1.773   .     S
C765   C767    1.407   .     A
C765   C773    1.416   .     A
C766   Cl802   1.773   .     S
C766   C768    1.407   .     A
C766   C774    1.416   .     A
C767   Br800   1.929   .     S
C768   Br799   1.929   .     S
C769   C771    1.395   .     A
C769   H780    1.076   .     S
C770   C772    1.395   .     A
C770   H779    1.076   .     S
C771   C773    1.419   .     A
C771   C775    1.425   .     A
C772   C776    1.425   .     A
C772   C774    1.419   .     A
C773   C191    1.395   1_556 S
C775   C218    1.418   1_556 S
N787   Zn797   2.012   .     S
N788   Zn798   2.012   .     S
O789   Zn797   2.001   .     S
O790   Zn798   2.001   .     S
O791   Zn798   2.006   .     S
O792   Zn797   2.006   .     S
O793   Zn797   1.961   .     S
O794   Zn798   1.961   .     S
O795   Zn798   1.887   .     S
O796   Zn797   1.887   .     S
C807   O851    1.288   .     A
C807   C818    1.422   .     S
C807   O853    1.281   .     A
C808   O854    1.281   .     A
C808   C817    1.422   .     S
C808   O852    1.288   .     A
C809   C811    1.384   .     A
C809   C838    1.417   .     A
C809   H843    1.076   .     S
C810   H844    1.076   .     S
C810   C837    1.417   .     A
C810   C812    1.384   .     A
C811   H839    1.082   .     S
C812   H840    1.082   .     S
C812   C278    1.395   1_556 S
C813   Br865   1.925   .     S
C813   C818    1.406   .     A
C813   C1001   1.371   .     S
C814   Br866   1.925   .     S
C814   C817    1.406   .     A
C815   C817    1.396   .     A
C815   H845    1.083   .     S
C816   C818    1.395   .     A
C816   H846    1.083   .     S
C816   C1000   1.371   .     S
C819   Cl867   1.753   .     S
C819   N850    1.372   .     A
C819   C883    1.415   .     S
C820   Cl868   1.752   .     S
C820   N849    1.372   .     A
C821   N849    1.363   .     A
C821   H847    1.082   .     S
C822   H848    1.082   .     S
C822   N850    1.363   .     A
C822   C882    1.415   .     S
C823   O857    1.299   .     A
C823   O855    1.293   .     A
C823   C825    1.470   .     S
C824   O858    1.299   .     A
C824   C826    1.469   .     S
C824   O856    1.293   .     A
C825   C829    1.412   .     A
C825   C831    1.390   .     A
C826   C830    1.412   .     A
C826   C832    1.390   .     A
C827   Cl863   1.773   .     S
C827   C829    1.407   .     A
C827   C835    1.416   .     A
C828   Cl864   1.773   .     S
C828   C830    1.407   .     A
C828   C836    1.416   .     A
C829   Br862   1.929   .     S
C830   Br861   1.929   .     S
C831   C833    1.395   .     A
C831   H842    1.076   .     S
C832   C834    1.395   .     A
C832   H841    1.076   .     S
C833   C835    1.419   .     A
C833   C837    1.425   .     A
C834   C838    1.425   .     A
C834   C836    1.419   .     A
C835   C253    1.395   1_556 S
C837   C280    1.418   1_556 S
N849   Zn859   2.012   .     S
N850   Zn860   2.012   .     S
O851   Zn859   2.001   .     S
O852   Zn860   2.001   .     S
O853   Zn860   2.006   .     S
O854   Zn859   2.006   .     S
O855   Zn859   1.961   .     S
O856   Zn860   1.961   .     S
O857   Zn860   1.887   .     S
O858   Zn859   1.887   .     S
C869   O913    1.288   .     A
C869   C880    1.422   .     S
C869   O915    1.281   .     A
C870   O916    1.281   .     A
C870   C879    1.422   .     S
C870   O914    1.288   .     A
C871   C873    1.384   .     A
C871   C900    1.417   .     A
C871   H905    1.076   .     S
C872   H906    1.076   .     S
C872   C899    1.417   .     A
C872   C874    1.384   .     A
C873   H901    1.082   .     S
C874   H902    1.082   .     S
C874   C340    1.395   1_556 S
C875   Br927   1.925   .     S
C875   C880    1.406   .     A
C875   C1063   1.371   .     S
C876   Br928   1.925   .     S
C876   C879    1.406   .     A
C877   C879    1.396   .     A
C877   H907    1.083   .     S
C878   C880    1.395   .     A
C878   H908    1.083   .     S
C878   C1062   1.371   .     S
C881   Cl929   1.753   .     S
C881   N912    1.372   .     A
C881   C759    1.415   1_655 S
C882   Cl930   1.752   .     S
C882   N911    1.372   .     A
C883   N911    1.363   .     A
C883   H909    1.082   .     S
C884   H910    1.082   .     S
C884   N912    1.363   .     A
C884   C758    1.415   1_655 S
C885   O919    1.299   .     A
C885   O917    1.293   .     A
C885   C887    1.470   .     S
C886   O920    1.299   .     A
C886   C888    1.469   .     S
C886   O918    1.293   .     A
C887   C891    1.412   .     A
C887   C893    1.390   .     A
C888   C892    1.412   .     A
C888   C894    1.390   .     A
C889   Cl925   1.773   .     S
C889   C891    1.407   .     A
C889   C897    1.416   .     A
C890   Cl926   1.773   .     S
C890   C892    1.407   .     A
C890   C898    1.416   .     A
C891   Br924   1.929   .     S
C892   Br923   1.929   .     S
C893   C895    1.395   .     A
C893   H904    1.076   .     S
C894   C896    1.395   .     A
C894   H903    1.076   .     S
C895   C897    1.419   .     A
C895   C899    1.425   .     A
C896   C900    1.425   .     A
C896   C898    1.419   .     A
C897   C315    1.395   1_556 S
C899   C342    1.418   1_556 S
N911   Zn921   2.012   .     S
N912   Zn922   2.012   .     S
O913   Zn921   2.001   .     S
O914   Zn922   2.001   .     S
O915   Zn922   2.006   .     S
O916   Zn921   2.006   .     S
O917   Zn921   1.961   .     S
O918   Zn922   1.961   .     S
O919   Zn922   1.887   .     S
O920   Zn921   1.887   .     S
C931   O975    1.288   .     A
C931   C942    1.422   .     S
C931   O977    1.281   .     A
C932   O978    1.281   .     A
C932   C941    1.422   .     S
C932   O976    1.288   .     A
C933   C935    1.384   .     A
C933   C962    1.417   .     A
C933   H967    1.076   .     S
C934   H968    1.076   .     S
C934   C961    1.417   .     A
C934   C936    1.384   .     A
C935   H963    1.082   .     S
C936   H964    1.082   .     S
C936   C402    1.395   1_556 S
C937   Br989   1.925   .     S
C937   C942    1.406   .     A
C937   C567    1.371   1_565 S
C938   Br990   1.925   .     S
C938   C941    1.406   .     A
C939   C941    1.396   .     A
C939   H969    1.083   .     S
C940   C942    1.395   .     A
C940   H970    1.083   .     S
C940   C566    1.371   1_565 S
C943   Cl991   1.753   .     S
C943   N974    1.372   .     A
C943   C1007   1.415   .     S
C944   Cl992   1.752   .     S
C944   N973    1.372   .     A
C944   C1070   1.415   1_455 S
C945   N973    1.363   .     A
C945   H971    1.082   .     S
C945   C1067   1.415   1_455 S
C946   H972    1.082   .     S
C946   N974    1.363   .     A
C946   C1006   1.415   .     S
C947   O981    1.299   .     A
C947   O979    1.293   .     A
C947   C949    1.470   .     S
C948   O982    1.299   .     A
C948   C950    1.469   .     S
C948   O980    1.293   .     A
C949   C953    1.412   .     A
C949   C955    1.390   .     A
C950   C954    1.412   .     A
C950   C956    1.390   .     A
C951   Cl987   1.773   .     S
C951   C953    1.407   .     A
C951   C959    1.416   .     A
C952   Cl988   1.773   .     S
C952   C954    1.407   .     A
C952   C960    1.416   .     A
C953   Br986   1.929   .     S
C954   Br985   1.929   .     S
C955   C957    1.395   .     A
C955   H966    1.076   .     S
C956   C958    1.395   .     A
C956   H965    1.076   .     S
C957   C959    1.419   .     A
C957   C961    1.425   .     A
C958   C962    1.425   .     A
C958   C960    1.419   .     A
C959   C377    1.395   1_556 S
C961   C404    1.418   1_556 S
N973   Zn983   2.012   .     S
N974   Zn984   2.012   .     S
O975   Zn983   2.001   .     S
O976   Zn984   2.001   .     S
O977   Zn984   2.006   .     S
O978   Zn983   2.006   .     S
O979   Zn983   1.961   .     S
O980   Zn984   1.961   .     S
O981   Zn984   1.887   .     S
O982   Zn983   1.887   .     S
C993   O1037   1.288   .     A
C993   C1004   1.422   .     S
C993   O1039   1.281   .     A
C994   O1040   1.281   .     A
C994   C1003   1.422   .     S
C994   O1038   1.288   .     A
C995   C997    1.384   .     A
C995   C1024   1.417   .     A
C995   H1029   1.076   .     S
C996   H1030   1.076   .     S
C996   C1023   1.417   .     A
C996   C998    1.384   .     A
C997   H1025   1.082   .     S
C998   H1026   1.082   .     S
C998   C464    1.395   1_556 S
C999   Br1051  1.925   .     S
C999   C1004   1.406   .     A
C999   C629    1.371   1_565 S
C1000  Br1052  1.925   .     S
C1000  C1003   1.406   .     A
C1001  C1003   1.396   .     A
C1001  H1031   1.083   .     S
C1002  C1004   1.395   .     A
C1002  H1032   1.083   .     S
C1002  C628    1.371   1_565 S
C1005  Cl1053  1.753   .     S
C1005  N1036   1.372   .     A
C1005  C1069   1.415   .     S
C1006  Cl1054  1.752   .     S
C1006  N1035   1.372   .     A
C1007  N1035   1.363   .     A
C1007  H1033   1.082   .     S
C1008  H1034   1.082   .     S
C1008  N1036   1.363   .     A
C1008  C1068   1.415   .     S
C1009  O1043   1.299   .     A
C1009  O1041   1.293   .     A
C1009  C1011   1.470   .     S
C1010  O1044   1.299   .     A
C1010  C1012   1.469   .     S
C1010  O1042   1.293   .     A
C1011  C1015   1.412   .     A
C1011  C1017   1.390   .     A
C1012  C1016   1.412   .     A
C1012  C1018   1.390   .     A
C1013  Cl1049  1.773   .     S
C1013  C1015   1.407   .     A
C1013  C1021   1.416   .     A
C1014  Cl1050  1.773   .     S
C1014  C1016   1.407   .     A
C1014  C1022   1.416   .     A
C1015  Br1048  1.929   .     S
C1016  Br1047  1.929   .     S
C1017  C1019   1.395   .     A
C1017  H1028   1.076   .     S
C1018  C1020   1.395   .     A
C1018  H1027   1.076   .     S
C1019  C1021   1.419   .     A
C1019  C1023   1.425   .     A
C1020  C1024   1.425   .     A
C1020  C1022   1.419   .     A
C1021  C439    1.395   1_556 S
C1023  C466    1.418   1_556 S
N1035  Zn1045  2.012   .     S
N1036  Zn1046  2.012   .     S
O1037  Zn1045  2.001   .     S
O1038  Zn1046  2.001   .     S
O1039  Zn1046  2.006   .     S
O1040  Zn1045  2.006   .     S
O1041  Zn1045  1.961   .     S
O1042  Zn1046  1.961   .     S
O1043  Zn1046  1.887   .     S
O1044  Zn1045  1.887   .     S
C1055  O1099   1.288   .     A
C1055  C1066   1.422   .     S
C1055  O1101   1.281   .     A
C1056  O1102   1.281   .     A
C1056  C1065   1.422   .     S
C1056  O1100   1.288   .     A
C1057  C1059   1.384   .     A
C1057  C1086   1.417   .     A
C1057  H1091   1.076   .     S
C1058  H1092   1.076   .     S
C1058  C1085   1.417   .     A
C1058  C1060   1.384   .     A
C1059  H1087   1.082   .     S
C1060  H1088   1.082   .     S
C1060  C526    1.395   1_556 S
C1061  Br1113  1.925   .     S
C1061  C1066   1.406   .     A
C1061  C691    1.371   1_565 S
C1062  Br1114  1.925   .     S
C1062  C1065   1.406   .     A
C1063  C1065   1.396   .     A
C1063  H1093   1.083   .     S
C1064  C1066   1.395   .     A
C1064  H1094   1.083   .     S
C1064  C690    1.371   1_565 S
C1067  Cl1115  1.753   .     S
C1067  N1098   1.372   .     A
C1067  C945    1.415   1_655 S
C1068  Cl1116  1.752   .     S
C1068  N1097   1.372   .     A
C1069  N1097   1.363   .     A
C1069  H1095   1.082   .     S
C1070  H1096   1.082   .     S
C1070  N1098   1.363   .     A
C1070  C944    1.415   1_655 S
C1071  O1105   1.299   .     A
C1071  O1103   1.293   .     A
C1071  C1073   1.470   .     S
C1072  O1106   1.299   .     A
C1072  C1074   1.469   .     S
C1072  O1104   1.293   .     A
C1073  C1077   1.412   .     A
C1073  C1079   1.390   .     A
C1074  C1078   1.412   .     A
C1074  C1080   1.390   .     A
C1075  Cl1111  1.773   .     S
C1075  C1077   1.407   .     A
C1075  C1083   1.416   .     A
C1076  Cl1112  1.773   .     S
C1076  C1078   1.407   .     A
C1076  C1084   1.416   .     A
C1077  Br1110  1.929   .     S
C1078  Br1109  1.929   .     S
C1079  C1081   1.395   .     A
C1079  H1090   1.076   .     S
C1080  C1082   1.395   .     A
C1080  H1089   1.076   .     S
C1081  C1083   1.419   .     A
C1081  C1085   1.425   .     A
C1082  C1086   1.425   .     A
C1082  C1084   1.419   .     A
C1083  C501    1.395   1_556 S
C1085  C528    1.418   1_556 S
N1097  Zn1107  2.012   .     S
N1098  Zn1108  2.012   .     S
O1099  Zn1107  2.001   .     S
O1100  Zn1108  2.001   .     S
O1101  Zn1108  2.006   .     S
O1102  Zn1107  2.006   .     S
O1103  Zn1107  1.961   .     S
O1104  Zn1108  1.961   .     S
O1105  Zn1108  1.887   .     S
O1106  Zn1107  1.887   .     S
