data_str_m3_o1_o10_pcu_sym.39
_audit_creation_date              2020-01-03
_audit_creation_method            'Materials Studio'
_symmetry_space_group_name_H-M    'P1'
_symmetry_Int_Tables_number       1
_symmetry_cell_setting            triclinic
loop_
_symmetry_equiv_pos_as_xyz
  x,y,z
_cell_length_a                    26.1234
_cell_length_b                    31.9336
_cell_length_c                    30.0841
_cell_angle_alpha                 90.8862
_cell_angle_beta                  99.1644
_cell_angle_gamma                 93.2688
loop_
_atom_site_label
_atom_site_type_symbol
_atom_site_fract_x
_atom_site_fract_y
_atom_site_fract_z
_atom_site_U_iso_or_equiv
_atom_site_adp_type
_atom_site_occupancy
C1     C     0.16701   0.08700   0.16662   0.00000  Uiso   1.00
C2     C     0.21344   0.02422   0.18076   0.00000  Uiso   1.00
C3     C     0.16698   0.29058   0.16635   0.00000  Uiso   1.00
C4     C     0.16635   0.04275   0.16698   0.00000  Uiso   1.00
C5     C     0.19771   0.19532   0.02859   0.00000  Uiso   1.00
C6     C     0.13562   0.13801   0.30474   0.00000  Uiso   1.00
C7     C     0.19693   0.19560   0.31428   0.00000  Uiso   1.00
C8     C     0.13641   0.13773   0.01905   0.00000  Uiso   1.00
C9     C     0.31996   0.13135   0.11024   0.00000  Uiso   1.00
C10    C     0.01338   0.20198   0.22309   0.00000  Uiso   1.00
C11    C     0.06716   0.03907   0.14690   0.00000  Uiso   1.00
C12    C     0.16632   0.24634   0.16671   0.00000  Uiso   1.00
C13    C     0.26617   0.29427   0.18643   0.00000  Uiso   1.00
C14    C     0.23409   0.22713   0.05723   0.00000  Uiso   1.00
C15    C     0.09924   0.10620   0.27610   0.00000  Uiso   1.00
C16    C     0.06735   0.16563   0.15492   0.00000  Uiso   1.00
C17    C     0.26599   0.16770   0.17841   0.00000  Uiso   1.00
C18    C     0.01235   0.15940   0.14992   0.00000  Uiso   1.00
C19    C     0.32099   0.17393   0.18341   0.00000  Uiso   1.00
C20    C     0.11895   0.01915   0.15475   0.00000  Uiso   1.00
C21    C     0.21438   0.31419   0.17859   0.00000  Uiso   1.00
C22    C     0.11989   0.30911   0.15258   0.00000  Uiso   1.00
H23    H     0.01518   0.11335   0.09617   0.00000  Uiso   1.00
H24    H     0.26300   0.25985   0.18074   0.00000  Uiso   1.00
H25    H     0.29079   0.30745   0.16261   0.00000  Uiso   1.00
H26    H     0.28622   0.30113   0.22133   0.00000  Uiso   1.00
H27    H     0.27431   0.22444   0.05037   0.00000  Uiso   1.00
H28    H     0.22164   0.25928   0.04968   0.00000  Uiso   1.00
H29    H     0.23684   0.22344   0.09330   0.00000  Uiso   1.00
H30    H     0.11169   0.07406   0.28366   0.00000  Uiso   1.00
H31    H     0.05903   0.10890   0.28297   0.00000  Uiso   1.00
H32    H     0.09650   0.10990   0.24003   0.00000  Uiso   1.00
H33    H     0.29212   0.10736   0.12063   0.00000  Uiso   1.00
H34    H     0.30039   0.15054   0.08288   0.00000  Uiso   1.00
H35    H     0.31815   0.21998   0.23716   0.00000  Uiso   1.00
H36    H     0.03294   0.18279   0.25046   0.00000  Uiso   1.00
H37    H     0.04121   0.22597   0.21270   0.00000  Uiso   1.00
H38    H     0.07034   0.07349   0.15259   0.00000  Uiso   1.00
H39    H     0.04712   0.03220   0.11200   0.00000  Uiso   1.00
H40    H     0.04255   0.02589   0.17072   0.00000  Uiso   1.00
I41    I     0.05070   0.27198   0.12531   0.00000  Uiso   1.00
I42    I     0.28264   0.06136   0.20802   0.00000  Uiso   1.00
I43    I     0.24306   0.24348   0.28863   0.00000  Uiso   1.00
I44    I     0.09028   0.08985   0.04471   0.00000  Uiso   1.00
N45    N     0.16665   0.16666   0.28573   0.00000  Uiso   1.00
N46    N     0.16668   0.16668   0.04760   0.00000  Uiso   1.00
O47    O     0.16666   0.10558   0.20487   0.00000  Uiso   1.00
O48    O     0.16667   0.22775   0.12846   0.00000  Uiso   1.00
O49    O     0.16666   0.10559   0.12843   0.00000  Uiso   1.00
O50    O     0.16667   0.22774   0.20490   0.00000  Uiso   1.00
O51    O     0.09058   0.16666   0.19595   0.00000  Uiso   1.00
O52    O     0.24275   0.16667   0.13739   0.00000  Uiso   1.00
O53    O     0.09058   0.16667   0.11950   0.00000  Uiso   1.00
O54    O     0.24275   0.16666   0.21383   0.00000  Uiso   1.00
Zn55   Zn    0.16667   0.16666   0.21771   0.00000  Uiso   1.00
Zn56   Zn    0.16667   0.16667   0.11563   0.00000  Uiso   1.00
C57    C     0.50034   0.08700   0.16662   0.00000  Uiso   1.00
C58    C     0.54678   0.02422   0.18076   0.00000  Uiso   1.00
C59    C     0.50032   0.29058   0.16635   0.00000  Uiso   1.00
C60    C     0.49968   0.04275   0.16698   0.00000  Uiso   1.00
C61    C     0.53105   0.19532   0.02859   0.00000  Uiso   1.00
C62    C     0.46895   0.13801   0.30474   0.00000  Uiso   1.00
C63    C     0.53026   0.19560   0.31428   0.00000  Uiso   1.00
C64    C     0.46974   0.13773   0.01905   0.00000  Uiso   1.00
C65    C     0.65329   0.13135   0.11024   0.00000  Uiso   1.00
C66    C     0.34671   0.20198   0.22309   0.00000  Uiso   1.00
C67    C     0.40049   0.03907   0.14690   0.00000  Uiso   1.00
C68    C     0.49966   0.24634   0.16671   0.00000  Uiso   1.00
C69    C     0.59951   0.29427   0.18643   0.00000  Uiso   1.00
C70    C     0.56743   0.22713   0.05723   0.00000  Uiso   1.00
C71    C     0.43257   0.10620   0.27610   0.00000  Uiso   1.00
C72    C     0.40068   0.16563   0.15492   0.00000  Uiso   1.00
C73    C     0.59932   0.16770   0.17841   0.00000  Uiso   1.00
C74    C     0.34568   0.15940   0.14992   0.00000  Uiso   1.00
C75    C     0.65432   0.17393   0.18341   0.00000  Uiso   1.00
C76    C     0.45228   0.01915   0.15475   0.00000  Uiso   1.00
C77    C     0.54772   0.31419   0.17859   0.00000  Uiso   1.00
C78    C     0.45322   0.30911   0.15258   0.00000  Uiso   1.00
H79    H     0.34851   0.11335   0.09617   0.00000  Uiso   1.00
H80    H     0.59633   0.25985   0.18074   0.00000  Uiso   1.00
H81    H     0.62412   0.30745   0.16261   0.00000  Uiso   1.00
H82    H     0.61955   0.30113   0.22133   0.00000  Uiso   1.00
H83    H     0.60764   0.22444   0.05037   0.00000  Uiso   1.00
H84    H     0.55497   0.25928   0.04968   0.00000  Uiso   1.00
H85    H     0.57017   0.22344   0.09330   0.00000  Uiso   1.00
H86    H     0.44503   0.07406   0.28366   0.00000  Uiso   1.00
H87    H     0.39236   0.10890   0.28297   0.00000  Uiso   1.00
H88    H     0.42983   0.10990   0.24003   0.00000  Uiso   1.00
H89    H     0.62546   0.10736   0.12063   0.00000  Uiso   1.00
H90    H     0.63372   0.15054   0.08288   0.00000  Uiso   1.00
H91    H     0.65149   0.21998   0.23716   0.00000  Uiso   1.00
H92    H     0.36628   0.18279   0.25046   0.00000  Uiso   1.00
H93    H     0.37454   0.22597   0.21270   0.00000  Uiso   1.00
H94    H     0.40367   0.07349   0.15259   0.00000  Uiso   1.00
H95    H     0.38045   0.03220   0.11200   0.00000  Uiso   1.00
H96    H     0.37588   0.02589   0.17072   0.00000  Uiso   1.00
I97    I     0.38403   0.27198   0.12531   0.00000  Uiso   1.00
I98    I     0.61597   0.06136   0.20802   0.00000  Uiso   1.00
I99    I     0.57639   0.24348   0.28863   0.00000  Uiso   1.00
I100   I     0.42361   0.08985   0.04471   0.00000  Uiso   1.00
N101   N     0.49999   0.16666   0.28573   0.00000  Uiso   1.00
N102   N     0.50001   0.16668   0.04760   0.00000  Uiso   1.00
O103   O     0.50000   0.10558   0.20487   0.00000  Uiso   1.00
O104   O     0.50000   0.22775   0.12846   0.00000  Uiso   1.00
O105   O     0.50000   0.10559   0.12843   0.00000  Uiso   1.00
O106   O     0.50000   0.22774   0.20490   0.00000  Uiso   1.00
O107   O     0.42392   0.16666   0.19595   0.00000  Uiso   1.00
O108   O     0.57608   0.16667   0.13739   0.00000  Uiso   1.00
O109   O     0.42392   0.16667   0.11950   0.00000  Uiso   1.00
O110   O     0.57608   0.16666   0.21383   0.00000  Uiso   1.00
Zn111  Zn    0.50000   0.16666   0.21771   0.00000  Uiso   1.00
Zn112  Zn    0.50000   0.16667   0.11563   0.00000  Uiso   1.00
C113   C     0.83368   0.08700   0.16662   0.00000  Uiso   1.00
C114   C     0.88011   0.02422   0.18076   0.00000  Uiso   1.00
C115   C     0.83365   0.29058   0.16635   0.00000  Uiso   1.00
C116   C     0.83302   0.04275   0.16698   0.00000  Uiso   1.00
C117   C     0.86438   0.19532   0.02859   0.00000  Uiso   1.00
C118   C     0.80229   0.13801   0.30474   0.00000  Uiso   1.00
C119   C     0.86359   0.19560   0.31428   0.00000  Uiso   1.00
C120   C     0.80307   0.13773   0.01905   0.00000  Uiso   1.00
C121   C     0.98662   0.13135   0.11024   0.00000  Uiso   1.00
C122   C     0.68004   0.20198   0.22309   0.00000  Uiso   1.00
C123   C     0.73383   0.03907   0.14690   0.00000  Uiso   1.00
C124   C     0.83299   0.24634   0.16671   0.00000  Uiso   1.00
C125   C     0.93284   0.29427   0.18643   0.00000  Uiso   1.00
C126   C     0.90076   0.22713   0.05723   0.00000  Uiso   1.00
C127   C     0.76591   0.10620   0.27610   0.00000  Uiso   1.00
C128   C     0.73401   0.16563   0.15492   0.00000  Uiso   1.00
C129   C     0.93265   0.16770   0.17841   0.00000  Uiso   1.00
C130   C     0.67901   0.15940   0.14992   0.00000  Uiso   1.00
C131   C     0.98765   0.17393   0.18341   0.00000  Uiso   1.00
C132   C     0.78562   0.01915   0.15475   0.00000  Uiso   1.00
C133   C     0.88105   0.31419   0.17859   0.00000  Uiso   1.00
C134   C     0.78656   0.30911   0.15258   0.00000  Uiso   1.00
H135   H     0.68185   0.11335   0.09617   0.00000  Uiso   1.00
H136   H     0.92966   0.25985   0.18074   0.00000  Uiso   1.00
H137   H     0.95745   0.30745   0.16261   0.00000  Uiso   1.00
H138   H     0.95288   0.30113   0.22133   0.00000  Uiso   1.00
H139   H     0.94097   0.22444   0.05037   0.00000  Uiso   1.00
H140   H     0.88831   0.25928   0.04968   0.00000  Uiso   1.00
H141   H     0.90350   0.22344   0.09330   0.00000  Uiso   1.00
H142   H     0.77836   0.07406   0.28366   0.00000  Uiso   1.00
H143   H     0.72569   0.10890   0.28297   0.00000  Uiso   1.00
H144   H     0.76316   0.10990   0.24003   0.00000  Uiso   1.00
H145   H     0.95879   0.10736   0.12063   0.00000  Uiso   1.00
H146   H     0.96706   0.15054   0.08288   0.00000  Uiso   1.00
H147   H     0.98482   0.21998   0.23716   0.00000  Uiso   1.00
H148   H     0.69961   0.18279   0.25046   0.00000  Uiso   1.00
H149   H     0.70788   0.22597   0.21270   0.00000  Uiso   1.00
H150   H     0.73700   0.07349   0.15259   0.00000  Uiso   1.00
H151   H     0.71378   0.03220   0.11200   0.00000  Uiso   1.00
H152   H     0.70921   0.02589   0.17072   0.00000  Uiso   1.00
I153   I     0.71736   0.27198   0.12531   0.00000  Uiso   1.00
I154   I     0.94930   0.06136   0.20802   0.00000  Uiso   1.00
I155   I     0.90972   0.24348   0.28863   0.00000  Uiso   1.00
I156   I     0.75694   0.08985   0.04471   0.00000  Uiso   1.00
N157   N     0.83332   0.16666   0.28573   0.00000  Uiso   1.00
N158   N     0.83335   0.16668   0.04760   0.00000  Uiso   1.00
O159   O     0.83333   0.10558   0.20487   0.00000  Uiso   1.00
O160   O     0.83334   0.22775   0.12846   0.00000  Uiso   1.00
O161   O     0.83333   0.10559   0.12843   0.00000  Uiso   1.00
O162   O     0.83334   0.22774   0.20490   0.00000  Uiso   1.00
O163   O     0.75725   0.16666   0.19595   0.00000  Uiso   1.00
O164   O     0.90942   0.16667   0.13739   0.00000  Uiso   1.00
O165   O     0.75725   0.16667   0.11950   0.00000  Uiso   1.00
O166   O     0.90942   0.16666   0.21383   0.00000  Uiso   1.00
Zn167  Zn    0.83333   0.16666   0.21771   0.00000  Uiso   1.00
Zn168  Zn    0.83333   0.16667   0.11563   0.00000  Uiso   1.00
C169   C     0.16701   0.42033   0.16662   0.00000  Uiso   1.00
C170   C     0.21344   0.35755   0.18076   0.00000  Uiso   1.00
C171   C     0.16698   0.62391   0.16635   0.00000  Uiso   1.00
C172   C     0.16635   0.37609   0.16698   0.00000  Uiso   1.00
C173   C     0.19771   0.52866   0.02859   0.00000  Uiso   1.00
C174   C     0.13562   0.47134   0.30474   0.00000  Uiso   1.00
C175   C     0.19693   0.52893   0.31428   0.00000  Uiso   1.00
C176   C     0.13641   0.47107   0.01905   0.00000  Uiso   1.00
C177   C     0.31996   0.46468   0.11024   0.00000  Uiso   1.00
C178   C     0.01338   0.53532   0.22309   0.00000  Uiso   1.00
C179   C     0.06716   0.37240   0.14690   0.00000  Uiso   1.00
C180   C     0.16632   0.57967   0.16671   0.00000  Uiso   1.00
C181   C     0.26617   0.62760   0.18643   0.00000  Uiso   1.00
C182   C     0.23409   0.56047   0.05723   0.00000  Uiso   1.00
C183   C     0.09924   0.43953   0.27610   0.00000  Uiso   1.00
C184   C     0.06735   0.49896   0.15492   0.00000  Uiso   1.00
C185   C     0.26599   0.50103   0.17841   0.00000  Uiso   1.00
C186   C     0.01235   0.49274   0.14992   0.00000  Uiso   1.00
C187   C     0.32099   0.50726   0.18341   0.00000  Uiso   1.00
C188   C     0.11895   0.35248   0.15475   0.00000  Uiso   1.00
C189   C     0.21438   0.64752   0.17859   0.00000  Uiso   1.00
C190   C     0.11989   0.64245   0.15258   0.00000  Uiso   1.00
H191   H     0.01518   0.44669   0.09617   0.00000  Uiso   1.00
H192   H     0.26300   0.59318   0.18074   0.00000  Uiso   1.00
H193   H     0.29079   0.64078   0.16261   0.00000  Uiso   1.00
H194   H     0.28622   0.63447   0.22133   0.00000  Uiso   1.00
H195   H     0.27431   0.55777   0.05037   0.00000  Uiso   1.00
H196   H     0.22164   0.59261   0.04968   0.00000  Uiso   1.00
H197   H     0.23684   0.55677   0.09330   0.00000  Uiso   1.00
H198   H     0.11169   0.40739   0.28366   0.00000  Uiso   1.00
H199   H     0.05903   0.44223   0.28297   0.00000  Uiso   1.00
H200   H     0.09650   0.44323   0.24003   0.00000  Uiso   1.00
H201   H     0.29212   0.44069   0.12063   0.00000  Uiso   1.00
H202   H     0.30039   0.48387   0.08288   0.00000  Uiso   1.00
H203   H     0.31815   0.55331   0.23716   0.00000  Uiso   1.00
H204   H     0.03294   0.51613   0.25046   0.00000  Uiso   1.00
H205   H     0.04121   0.55931   0.21270   0.00000  Uiso   1.00
H206   H     0.07034   0.40682   0.15259   0.00000  Uiso   1.00
H207   H     0.04712   0.36553   0.11200   0.00000  Uiso   1.00
H208   H     0.04255   0.35922   0.17072   0.00000  Uiso   1.00
I209   I     0.05070   0.60531   0.12531   0.00000  Uiso   1.00
I210   I     0.28264   0.39469   0.20802   0.00000  Uiso   1.00
I211   I     0.24306   0.57682   0.28863   0.00000  Uiso   1.00
I212   I     0.09028   0.42318   0.04471   0.00000  Uiso   1.00
N213   N     0.16665   0.49999   0.28573   0.00000  Uiso   1.00
N214   N     0.16668   0.50001   0.04760   0.00000  Uiso   1.00
O215   O     0.16666   0.43892   0.20487   0.00000  Uiso   1.00
O216   O     0.16667   0.56108   0.12846   0.00000  Uiso   1.00
O217   O     0.16666   0.43893   0.12843   0.00000  Uiso   1.00
O218   O     0.16667   0.56107   0.20490   0.00000  Uiso   1.00
O219   O     0.09058   0.50000   0.19595   0.00000  Uiso   1.00
O220   O     0.24275   0.50000   0.13739   0.00000  Uiso   1.00
O221   O     0.09058   0.50000   0.11950   0.00000  Uiso   1.00
O222   O     0.24275   0.50000   0.21383   0.00000  Uiso   1.00
Zn223  Zn    0.16667   0.49999   0.21771   0.00000  Uiso   1.00
Zn224  Zn    0.16667   0.50001   0.11563   0.00000  Uiso   1.00
C225   C     0.50034   0.42033   0.16662   0.00000  Uiso   1.00
C226   C     0.54678   0.35755   0.18076   0.00000  Uiso   1.00
C227   C     0.50032   0.62391   0.16635   0.00000  Uiso   1.00
C228   C     0.49968   0.37609   0.16698   0.00000  Uiso   1.00
C229   C     0.53105   0.52866   0.02859   0.00000  Uiso   1.00
C230   C     0.46895   0.47134   0.30474   0.00000  Uiso   1.00
C231   C     0.53026   0.52893   0.31428   0.00000  Uiso   1.00
C232   C     0.46974   0.47107   0.01905   0.00000  Uiso   1.00
C233   C     0.65329   0.46468   0.11024   0.00000  Uiso   1.00
C234   C     0.34671   0.53532   0.22309   0.00000  Uiso   1.00
C235   C     0.40049   0.37240   0.14690   0.00000  Uiso   1.00
C236   C     0.49966   0.57967   0.16671   0.00000  Uiso   1.00
C237   C     0.59951   0.62760   0.18643   0.00000  Uiso   1.00
C238   C     0.56743   0.56047   0.05723   0.00000  Uiso   1.00
C239   C     0.43257   0.43953   0.27610   0.00000  Uiso   1.00
C240   C     0.40068   0.49896   0.15492   0.00000  Uiso   1.00
C241   C     0.59932   0.50103   0.17841   0.00000  Uiso   1.00
C242   C     0.34568   0.49274   0.14992   0.00000  Uiso   1.00
C243   C     0.65432   0.50726   0.18341   0.00000  Uiso   1.00
C244   C     0.45228   0.35248   0.15475   0.00000  Uiso   1.00
C245   C     0.54772   0.64752   0.17859   0.00000  Uiso   1.00
C246   C     0.45322   0.64245   0.15258   0.00000  Uiso   1.00
H247   H     0.34851   0.44669   0.09617   0.00000  Uiso   1.00
H248   H     0.59633   0.59318   0.18074   0.00000  Uiso   1.00
H249   H     0.62412   0.64078   0.16261   0.00000  Uiso   1.00
H250   H     0.61955   0.63447   0.22133   0.00000  Uiso   1.00
H251   H     0.60764   0.55777   0.05037   0.00000  Uiso   1.00
H252   H     0.55497   0.59261   0.04968   0.00000  Uiso   1.00
H253   H     0.57017   0.55677   0.09330   0.00000  Uiso   1.00
H254   H     0.44503   0.40739   0.28366   0.00000  Uiso   1.00
H255   H     0.39236   0.44223   0.28297   0.00000  Uiso   1.00
H256   H     0.42983   0.44323   0.24003   0.00000  Uiso   1.00
H257   H     0.62546   0.44069   0.12063   0.00000  Uiso   1.00
H258   H     0.63372   0.48387   0.08288   0.00000  Uiso   1.00
H259   H     0.65149   0.55331   0.23716   0.00000  Uiso   1.00
H260   H     0.36628   0.51613   0.25046   0.00000  Uiso   1.00
H261   H     0.37454   0.55931   0.21270   0.00000  Uiso   1.00
H262   H     0.40367   0.40682   0.15259   0.00000  Uiso   1.00
H263   H     0.38045   0.36553   0.11200   0.00000  Uiso   1.00
H264   H     0.37588   0.35922   0.17072   0.00000  Uiso   1.00
I265   I     0.38403   0.60531   0.12531   0.00000  Uiso   1.00
I266   I     0.61597   0.39469   0.20802   0.00000  Uiso   1.00
I267   I     0.57639   0.57682   0.28863   0.00000  Uiso   1.00
I268   I     0.42361   0.42318   0.04471   0.00000  Uiso   1.00
N269   N     0.49999   0.49999   0.28573   0.00000  Uiso   1.00
N270   N     0.50001   0.50001   0.04760   0.00000  Uiso   1.00
O271   O     0.50000   0.43892   0.20487   0.00000  Uiso   1.00
O272   O     0.50000   0.56108   0.12846   0.00000  Uiso   1.00
O273   O     0.50000   0.43893   0.12843   0.00000  Uiso   1.00
O274   O     0.50000   0.56107   0.20490   0.00000  Uiso   1.00
O275   O     0.42392   0.50000   0.19595   0.00000  Uiso   1.00
O276   O     0.57608   0.50000   0.13739   0.00000  Uiso   1.00
O277   O     0.42392   0.50000   0.11950   0.00000  Uiso   1.00
O278   O     0.57608   0.50000   0.21383   0.00000  Uiso   1.00
Zn279  Zn    0.50000   0.49999   0.21771   0.00000  Uiso   1.00
Zn280  Zn    0.50000   0.50001   0.11563   0.00000  Uiso   1.00
C281   C     0.83368   0.42033   0.16662   0.00000  Uiso   1.00
C282   C     0.88011   0.35755   0.18076   0.00000  Uiso   1.00
C283   C     0.83365   0.62391   0.16635   0.00000  Uiso   1.00
C284   C     0.83302   0.37609   0.16698   0.00000  Uiso   1.00
C285   C     0.86438   0.52866   0.02859   0.00000  Uiso   1.00
C286   C     0.80229   0.47134   0.30474   0.00000  Uiso   1.00
C287   C     0.86359   0.52893   0.31428   0.00000  Uiso   1.00
C288   C     0.80307   0.47107   0.01905   0.00000  Uiso   1.00
C289   C     0.98662   0.46468   0.11024   0.00000  Uiso   1.00
C290   C     0.68004   0.53532   0.22309   0.00000  Uiso   1.00
C291   C     0.73383   0.37240   0.14690   0.00000  Uiso   1.00
C292   C     0.83299   0.57967   0.16671   0.00000  Uiso   1.00
C293   C     0.93284   0.62760   0.18643   0.00000  Uiso   1.00
C294   C     0.90076   0.56047   0.05723   0.00000  Uiso   1.00
C295   C     0.76591   0.43953   0.27610   0.00000  Uiso   1.00
C296   C     0.73401   0.49896   0.15492   0.00000  Uiso   1.00
C297   C     0.93265   0.50103   0.17841   0.00000  Uiso   1.00
C298   C     0.67901   0.49274   0.14992   0.00000  Uiso   1.00
C299   C     0.98765   0.50726   0.18341   0.00000  Uiso   1.00
C300   C     0.78562   0.35248   0.15475   0.00000  Uiso   1.00
C301   C     0.88105   0.64752   0.17859   0.00000  Uiso   1.00
C302   C     0.78656   0.64245   0.15258   0.00000  Uiso   1.00
H303   H     0.68185   0.44669   0.09617   0.00000  Uiso   1.00
H304   H     0.92966   0.59318   0.18074   0.00000  Uiso   1.00
H305   H     0.95745   0.64078   0.16261   0.00000  Uiso   1.00
H306   H     0.95288   0.63447   0.22133   0.00000  Uiso   1.00
H307   H     0.94097   0.55777   0.05037   0.00000  Uiso   1.00
H308   H     0.88831   0.59261   0.04968   0.00000  Uiso   1.00
H309   H     0.90350   0.55677   0.09330   0.00000  Uiso   1.00
H310   H     0.77836   0.40739   0.28366   0.00000  Uiso   1.00
H311   H     0.72569   0.44223   0.28297   0.00000  Uiso   1.00
H312   H     0.76316   0.44323   0.24003   0.00000  Uiso   1.00
H313   H     0.95879   0.44069   0.12063   0.00000  Uiso   1.00
H314   H     0.96706   0.48387   0.08288   0.00000  Uiso   1.00
H315   H     0.98482   0.55331   0.23716   0.00000  Uiso   1.00
H316   H     0.69961   0.51613   0.25046   0.00000  Uiso   1.00
H317   H     0.70788   0.55931   0.21270   0.00000  Uiso   1.00
H318   H     0.73700   0.40682   0.15259   0.00000  Uiso   1.00
H319   H     0.71378   0.36553   0.11200   0.00000  Uiso   1.00
H320   H     0.70921   0.35922   0.17072   0.00000  Uiso   1.00
I321   I     0.71736   0.60531   0.12531   0.00000  Uiso   1.00
I322   I     0.94930   0.39469   0.20802   0.00000  Uiso   1.00
I323   I     0.90972   0.57682   0.28863   0.00000  Uiso   1.00
I324   I     0.75694   0.42318   0.04471   0.00000  Uiso   1.00
N325   N     0.83332   0.49999   0.28573   0.00000  Uiso   1.00
N326   N     0.83335   0.50001   0.04760   0.00000  Uiso   1.00
O327   O     0.83333   0.43892   0.20487   0.00000  Uiso   1.00
O328   O     0.83334   0.56108   0.12846   0.00000  Uiso   1.00
O329   O     0.83333   0.43893   0.12843   0.00000  Uiso   1.00
O330   O     0.83334   0.56107   0.20490   0.00000  Uiso   1.00
O331   O     0.75725   0.50000   0.19595   0.00000  Uiso   1.00
O332   O     0.90942   0.50000   0.13739   0.00000  Uiso   1.00
O333   O     0.75725   0.50000   0.11950   0.00000  Uiso   1.00
O334   O     0.90942   0.50000   0.21383   0.00000  Uiso   1.00
Zn335  Zn    0.83333   0.49999   0.21771   0.00000  Uiso   1.00
Zn336  Zn    0.83333   0.50001   0.11563   0.00000  Uiso   1.00
C337   C     0.16701   0.75366   0.16662   0.00000  Uiso   1.00
C338   C     0.21344   0.69089   0.18076   0.00000  Uiso   1.00
C339   C     0.16698   0.95725   0.16635   0.00000  Uiso   1.00
C340   C     0.16635   0.70942   0.16698   0.00000  Uiso   1.00
C341   C     0.19771   0.86199   0.02859   0.00000  Uiso   1.00
C342   C     0.13562   0.80468   0.30474   0.00000  Uiso   1.00
C343   C     0.19693   0.86227   0.31428   0.00000  Uiso   1.00
C344   C     0.13641   0.80440   0.01905   0.00000  Uiso   1.00
C345   C     0.31996   0.79802   0.11024   0.00000  Uiso   1.00
C346   C     0.01338   0.86865   0.22309   0.00000  Uiso   1.00
C347   C     0.06716   0.70573   0.14690   0.00000  Uiso   1.00
C348   C     0.16632   0.91300   0.16671   0.00000  Uiso   1.00
C349   C     0.26617   0.96093   0.18643   0.00000  Uiso   1.00
C350   C     0.23409   0.89380   0.05723   0.00000  Uiso   1.00
C351   C     0.09924   0.77287   0.27610   0.00000  Uiso   1.00
C352   C     0.06735   0.83230   0.15492   0.00000  Uiso   1.00
C353   C     0.26599   0.83437   0.17841   0.00000  Uiso   1.00
C354   C     0.01235   0.82607   0.14992   0.00000  Uiso   1.00
C355   C     0.32099   0.84060   0.18341   0.00000  Uiso   1.00
C356   C     0.11895   0.68581   0.15475   0.00000  Uiso   1.00
C357   C     0.21438   0.98085   0.17859   0.00000  Uiso   1.00
C358   C     0.11989   0.97578   0.15258   0.00000  Uiso   1.00
H359   H     0.01518   0.78002   0.09617   0.00000  Uiso   1.00
H360   H     0.26300   0.92651   0.18074   0.00000  Uiso   1.00
H361   H     0.29079   0.97411   0.16261   0.00000  Uiso   1.00
H362   H     0.28622   0.96780   0.22133   0.00000  Uiso   1.00
H363   H     0.27431   0.89110   0.05037   0.00000  Uiso   1.00
H364   H     0.22164   0.92594   0.04968   0.00000  Uiso   1.00
H365   H     0.23684   0.89010   0.09330   0.00000  Uiso   1.00
H366   H     0.11169   0.74072   0.28366   0.00000  Uiso   1.00
H367   H     0.05903   0.77556   0.28297   0.00000  Uiso   1.00
H368   H     0.09650   0.77656   0.24003   0.00000  Uiso   1.00
H369   H     0.29212   0.77402   0.12063   0.00000  Uiso   1.00
H370   H     0.30039   0.81721   0.08288   0.00000  Uiso   1.00
H371   H     0.31815   0.88665   0.23716   0.00000  Uiso   1.00
H372   H     0.03294   0.84946   0.25046   0.00000  Uiso   1.00
H373   H     0.04121   0.89264   0.21270   0.00000  Uiso   1.00
H374   H     0.07034   0.74015   0.15259   0.00000  Uiso   1.00
H375   H     0.04712   0.69887   0.11200   0.00000  Uiso   1.00
H376   H     0.04255   0.69255   0.17072   0.00000  Uiso   1.00
I377   I     0.05070   0.93864   0.12531   0.00000  Uiso   1.00
I378   I     0.28264   0.72802   0.20802   0.00000  Uiso   1.00
I379   I     0.24306   0.91015   0.28863   0.00000  Uiso   1.00
I380   I     0.09028   0.75652   0.04471   0.00000  Uiso   1.00
N381   N     0.16665   0.83332   0.28573   0.00000  Uiso   1.00
N382   N     0.16668   0.83334   0.04760   0.00000  Uiso   1.00
O383   O     0.16666   0.77225   0.20487   0.00000  Uiso   1.00
O384   O     0.16667   0.89442   0.12846   0.00000  Uiso   1.00
O385   O     0.16666   0.77226   0.12843   0.00000  Uiso   1.00
O386   O     0.16667   0.89441   0.20490   0.00000  Uiso   1.00
O387   O     0.09058   0.83333   0.19595   0.00000  Uiso   1.00
O388   O     0.24275   0.83334   0.13739   0.00000  Uiso   1.00
O389   O     0.09058   0.83334   0.11950   0.00000  Uiso   1.00
O390   O     0.24275   0.83333   0.21383   0.00000  Uiso   1.00
Zn391  Zn    0.16667   0.83333   0.21771   0.00000  Uiso   1.00
Zn392  Zn    0.16667   0.83334   0.11563   0.00000  Uiso   1.00
C393   C     0.50034   0.75366   0.16662   0.00000  Uiso   1.00
C394   C     0.54678   0.69089   0.18076   0.00000  Uiso   1.00
C395   C     0.50032   0.95725   0.16635   0.00000  Uiso   1.00
C396   C     0.49968   0.70942   0.16698   0.00000  Uiso   1.00
C397   C     0.53105   0.86199   0.02859   0.00000  Uiso   1.00
C398   C     0.46895   0.80468   0.30474   0.00000  Uiso   1.00
C399   C     0.53026   0.86227   0.31428   0.00000  Uiso   1.00
C400   C     0.46974   0.80440   0.01905   0.00000  Uiso   1.00
C401   C     0.65329   0.79802   0.11024   0.00000  Uiso   1.00
C402   C     0.34671   0.86865   0.22309   0.00000  Uiso   1.00
C403   C     0.40049   0.70573   0.14690   0.00000  Uiso   1.00
C404   C     0.49966   0.91300   0.16671   0.00000  Uiso   1.00
C405   C     0.59951   0.96093   0.18643   0.00000  Uiso   1.00
C406   C     0.56743   0.89380   0.05723   0.00000  Uiso   1.00
C407   C     0.43257   0.77287   0.27610   0.00000  Uiso   1.00
C408   C     0.40068   0.83230   0.15492   0.00000  Uiso   1.00
C409   C     0.59932   0.83437   0.17841   0.00000  Uiso   1.00
C410   C     0.34568   0.82607   0.14992   0.00000  Uiso   1.00
C411   C     0.65432   0.84060   0.18341   0.00000  Uiso   1.00
C412   C     0.45228   0.68581   0.15475   0.00000  Uiso   1.00
C413   C     0.54772   0.98085   0.17859   0.00000  Uiso   1.00
C414   C     0.45322   0.97578   0.15258   0.00000  Uiso   1.00
H415   H     0.34851   0.78002   0.09617   0.00000  Uiso   1.00
H416   H     0.59633   0.92651   0.18074   0.00000  Uiso   1.00
H417   H     0.62412   0.97411   0.16261   0.00000  Uiso   1.00
H418   H     0.61955   0.96780   0.22133   0.00000  Uiso   1.00
H419   H     0.60764   0.89110   0.05037   0.00000  Uiso   1.00
H420   H     0.55497   0.92594   0.04968   0.00000  Uiso   1.00
H421   H     0.57017   0.89010   0.09330   0.00000  Uiso   1.00
H422   H     0.44503   0.74072   0.28366   0.00000  Uiso   1.00
H423   H     0.39236   0.77556   0.28297   0.00000  Uiso   1.00
H424   H     0.42983   0.77656   0.24003   0.00000  Uiso   1.00
H425   H     0.62546   0.77402   0.12063   0.00000  Uiso   1.00
H426   H     0.63372   0.81721   0.08288   0.00000  Uiso   1.00
H427   H     0.65149   0.88665   0.23716   0.00000  Uiso   1.00
H428   H     0.36628   0.84946   0.25046   0.00000  Uiso   1.00
H429   H     0.37454   0.89264   0.21270   0.00000  Uiso   1.00
H430   H     0.40367   0.74015   0.15259   0.00000  Uiso   1.00
H431   H     0.38045   0.69887   0.11200   0.00000  Uiso   1.00
H432   H     0.37588   0.69255   0.17072   0.00000  Uiso   1.00
I433   I     0.38403   0.93864   0.12531   0.00000  Uiso   1.00
I434   I     0.61597   0.72802   0.20802   0.00000  Uiso   1.00
I435   I     0.57639   0.91015   0.28863   0.00000  Uiso   1.00
I436   I     0.42361   0.75652   0.04471   0.00000  Uiso   1.00
N437   N     0.49999   0.83332   0.28573   0.00000  Uiso   1.00
N438   N     0.50001   0.83334   0.04760   0.00000  Uiso   1.00
O439   O     0.50000   0.77225   0.20487   0.00000  Uiso   1.00
O440   O     0.50000   0.89442   0.12846   0.00000  Uiso   1.00
O441   O     0.50000   0.77226   0.12843   0.00000  Uiso   1.00
O442   O     0.50000   0.89441   0.20490   0.00000  Uiso   1.00
O443   O     0.42392   0.83333   0.19595   0.00000  Uiso   1.00
O444   O     0.57608   0.83334   0.13739   0.00000  Uiso   1.00
O445   O     0.42392   0.83334   0.11950   0.00000  Uiso   1.00
O446   O     0.57608   0.83333   0.21383   0.00000  Uiso   1.00
Zn447  Zn    0.50000   0.83333   0.21771   0.00000  Uiso   1.00
Zn448  Zn    0.50000   0.83334   0.11563   0.00000  Uiso   1.00
C449   C     0.83368   0.75366   0.16662   0.00000  Uiso   1.00
C450   C     0.88011   0.69089   0.18076   0.00000  Uiso   1.00
C451   C     0.83365   0.95725   0.16635   0.00000  Uiso   1.00
C452   C     0.83302   0.70942   0.16698   0.00000  Uiso   1.00
C453   C     0.86438   0.86199   0.02859   0.00000  Uiso   1.00
C454   C     0.80229   0.80468   0.30474   0.00000  Uiso   1.00
C455   C     0.86359   0.86227   0.31428   0.00000  Uiso   1.00
C456   C     0.80307   0.80440   0.01905   0.00000  Uiso   1.00
C457   C     0.98662   0.79802   0.11024   0.00000  Uiso   1.00
C458   C     0.68004   0.86865   0.22309   0.00000  Uiso   1.00
C459   C     0.73383   0.70573   0.14690   0.00000  Uiso   1.00
C460   C     0.83299   0.91300   0.16671   0.00000  Uiso   1.00
C461   C     0.93284   0.96093   0.18643   0.00000  Uiso   1.00
C462   C     0.90076   0.89380   0.05723   0.00000  Uiso   1.00
C463   C     0.76591   0.77287   0.27610   0.00000  Uiso   1.00
C464   C     0.73401   0.83230   0.15492   0.00000  Uiso   1.00
C465   C     0.93265   0.83437   0.17841   0.00000  Uiso   1.00
C466   C     0.67901   0.82607   0.14992   0.00000  Uiso   1.00
C467   C     0.98765   0.84060   0.18341   0.00000  Uiso   1.00
C468   C     0.78562   0.68581   0.15475   0.00000  Uiso   1.00
C469   C     0.88105   0.98085   0.17859   0.00000  Uiso   1.00
C470   C     0.78656   0.97578   0.15258   0.00000  Uiso   1.00
H471   H     0.68185   0.78002   0.09617   0.00000  Uiso   1.00
H472   H     0.92966   0.92651   0.18074   0.00000  Uiso   1.00
H473   H     0.95745   0.97411   0.16261   0.00000  Uiso   1.00
H474   H     0.95288   0.96780   0.22133   0.00000  Uiso   1.00
H475   H     0.94097   0.89110   0.05037   0.00000  Uiso   1.00
H476   H     0.88831   0.92594   0.04968   0.00000  Uiso   1.00
H477   H     0.90350   0.89010   0.09330   0.00000  Uiso   1.00
H478   H     0.77836   0.74072   0.28366   0.00000  Uiso   1.00
H479   H     0.72569   0.77556   0.28297   0.00000  Uiso   1.00
H480   H     0.76316   0.77656   0.24003   0.00000  Uiso   1.00
H481   H     0.95879   0.77402   0.12063   0.00000  Uiso   1.00
H482   H     0.96706   0.81721   0.08288   0.00000  Uiso   1.00
H483   H     0.98482   0.88665   0.23716   0.00000  Uiso   1.00
H484   H     0.69961   0.84946   0.25046   0.00000  Uiso   1.00
H485   H     0.70788   0.89264   0.21270   0.00000  Uiso   1.00
H486   H     0.73700   0.74015   0.15259   0.00000  Uiso   1.00
H487   H     0.71378   0.69887   0.11200   0.00000  Uiso   1.00
H488   H     0.70921   0.69255   0.17072   0.00000  Uiso   1.00
I489   I     0.71736   0.93864   0.12531   0.00000  Uiso   1.00
I490   I     0.94930   0.72802   0.20802   0.00000  Uiso   1.00
I491   I     0.90972   0.91015   0.28863   0.00000  Uiso   1.00
I492   I     0.75694   0.75652   0.04471   0.00000  Uiso   1.00
N493   N     0.83332   0.83332   0.28573   0.00000  Uiso   1.00
N494   N     0.83335   0.83334   0.04760   0.00000  Uiso   1.00
O495   O     0.83333   0.77225   0.20487   0.00000  Uiso   1.00
O496   O     0.83334   0.89442   0.12846   0.00000  Uiso   1.00
O497   O     0.83333   0.77226   0.12843   0.00000  Uiso   1.00
O498   O     0.83334   0.89441   0.20490   0.00000  Uiso   1.00
O499   O     0.75725   0.83333   0.19595   0.00000  Uiso   1.00
O500   O     0.90942   0.83334   0.13739   0.00000  Uiso   1.00
O501   O     0.75725   0.83334   0.11950   0.00000  Uiso   1.00
O502   O     0.90942   0.83333   0.21383   0.00000  Uiso   1.00
Zn503  Zn    0.83333   0.83333   0.21771   0.00000  Uiso   1.00
Zn504  Zn    0.83333   0.83334   0.11563   0.00000  Uiso   1.00
C505   C     0.16701   0.08700   0.49996   0.00000  Uiso   1.00
C506   C     0.21344   0.02422   0.51409   0.00000  Uiso   1.00
C507   C     0.16698   0.29058   0.49969   0.00000  Uiso   1.00
C508   C     0.16635   0.04275   0.50031   0.00000  Uiso   1.00
C509   C     0.19771   0.19532   0.36193   0.00000  Uiso   1.00
C510   C     0.13562   0.13801   0.63807   0.00000  Uiso   1.00
C511   C     0.19693   0.19560   0.64762   0.00000  Uiso   1.00
C512   C     0.13641   0.13773   0.35238   0.00000  Uiso   1.00
C513   C     0.31996   0.13135   0.44358   0.00000  Uiso   1.00
C514   C     0.01338   0.20198   0.55642   0.00000  Uiso   1.00
C515   C     0.06716   0.03907   0.48023   0.00000  Uiso   1.00
C516   C     0.16632   0.24634   0.50005   0.00000  Uiso   1.00
C517   C     0.26617   0.29427   0.51977   0.00000  Uiso   1.00
C518   C     0.23409   0.22713   0.39056   0.00000  Uiso   1.00
C519   C     0.09924   0.10620   0.60944   0.00000  Uiso   1.00
C520   C     0.06735   0.16563   0.48826   0.00000  Uiso   1.00
C521   C     0.26599   0.16770   0.51174   0.00000  Uiso   1.00
C522   C     0.01235   0.15940   0.48326   0.00000  Uiso   1.00
C523   C     0.32099   0.17393   0.51674   0.00000  Uiso   1.00
C524   C     0.11895   0.01915   0.48808   0.00000  Uiso   1.00
C525   C     0.21438   0.31419   0.51192   0.00000  Uiso   1.00
C526   C     0.11989   0.30911   0.48591   0.00000  Uiso   1.00
H527   H     0.01518   0.11335   0.42951   0.00000  Uiso   1.00
H528   H     0.26300   0.25985   0.51408   0.00000  Uiso   1.00
H529   H     0.29079   0.30745   0.49595   0.00000  Uiso   1.00
H530   H     0.28622   0.30113   0.55467   0.00000  Uiso   1.00
H531   H     0.27431   0.22444   0.38370   0.00000  Uiso   1.00
H532   H     0.22164   0.25928   0.38301   0.00000  Uiso   1.00
H533   H     0.23684   0.22344   0.42663   0.00000  Uiso   1.00
H534   H     0.11169   0.07406   0.61699   0.00000  Uiso   1.00
H535   H     0.05903   0.10890   0.61630   0.00000  Uiso   1.00
H536   H     0.09650   0.10990   0.57337   0.00000  Uiso   1.00
H537   H     0.29212   0.10736   0.45397   0.00000  Uiso   1.00
H538   H     0.30039   0.15054   0.41621   0.00000  Uiso   1.00
H539   H     0.31815   0.21998   0.57049   0.00000  Uiso   1.00
H540   H     0.03294   0.18279   0.58379   0.00000  Uiso   1.00
H541   H     0.04121   0.22597   0.54603   0.00000  Uiso   1.00
H542   H     0.07034   0.07349   0.48592   0.00000  Uiso   1.00
H543   H     0.04712   0.03220   0.44533   0.00000  Uiso   1.00
H544   H     0.04255   0.02589   0.50405   0.00000  Uiso   1.00
I545   I     0.05070   0.27198   0.45865   0.00000  Uiso   1.00
I546   I     0.28264   0.06136   0.54135   0.00000  Uiso   1.00
I547   I     0.24306   0.24348   0.62196   0.00000  Uiso   1.00
I548   I     0.09028   0.08985   0.37804   0.00000  Uiso   1.00
N549   N     0.16665   0.16666   0.61907   0.00000  Uiso   1.00
N550   N     0.16668   0.16668   0.38093   0.00000  Uiso   1.00
O551   O     0.16666   0.10558   0.53821   0.00000  Uiso   1.00
O552   O     0.16667   0.22775   0.46179   0.00000  Uiso   1.00
O553   O     0.16666   0.10559   0.46176   0.00000  Uiso   1.00
O554   O     0.16667   0.22774   0.53824   0.00000  Uiso   1.00
O555   O     0.09058   0.16666   0.52928   0.00000  Uiso   1.00
O556   O     0.24275   0.16667   0.47072   0.00000  Uiso   1.00
O557   O     0.09058   0.16667   0.45284   0.00000  Uiso   1.00
O558   O     0.24275   0.16666   0.54716   0.00000  Uiso   1.00
Zn559  Zn    0.16667   0.16666   0.55104   0.00000  Uiso   1.00
Zn560  Zn    0.16667   0.16667   0.44896   0.00000  Uiso   1.00
C561   C     0.50034   0.08700   0.49996   0.00000  Uiso   1.00
C562   C     0.54678   0.02422   0.51409   0.00000  Uiso   1.00
C563   C     0.50032   0.29058   0.49969   0.00000  Uiso   1.00
C564   C     0.49968   0.04275   0.50031   0.00000  Uiso   1.00
C565   C     0.53105   0.19532   0.36193   0.00000  Uiso   1.00
C566   C     0.46895   0.13801   0.63807   0.00000  Uiso   1.00
C567   C     0.53026   0.19560   0.64762   0.00000  Uiso   1.00
C568   C     0.46974   0.13773   0.35238   0.00000  Uiso   1.00
C569   C     0.65329   0.13135   0.44358   0.00000  Uiso   1.00
C570   C     0.34671   0.20198   0.55642   0.00000  Uiso   1.00
C571   C     0.40049   0.03907   0.48023   0.00000  Uiso   1.00
C572   C     0.49966   0.24634   0.50005   0.00000  Uiso   1.00
C573   C     0.59951   0.29427   0.51977   0.00000  Uiso   1.00
C574   C     0.56743   0.22713   0.39056   0.00000  Uiso   1.00
C575   C     0.43257   0.10620   0.60944   0.00000  Uiso   1.00
C576   C     0.40068   0.16563   0.48826   0.00000  Uiso   1.00
C577   C     0.59932   0.16770   0.51174   0.00000  Uiso   1.00
C578   C     0.34568   0.15940   0.48326   0.00000  Uiso   1.00
C579   C     0.65432   0.17393   0.51674   0.00000  Uiso   1.00
C580   C     0.45228   0.01915   0.48808   0.00000  Uiso   1.00
C581   C     0.54772   0.31419   0.51192   0.00000  Uiso   1.00
C582   C     0.45322   0.30911   0.48591   0.00000  Uiso   1.00
H583   H     0.34851   0.11335   0.42951   0.00000  Uiso   1.00
H584   H     0.59633   0.25985   0.51408   0.00000  Uiso   1.00
H585   H     0.62412   0.30745   0.49595   0.00000  Uiso   1.00
H586   H     0.61955   0.30113   0.55467   0.00000  Uiso   1.00
H587   H     0.60764   0.22444   0.38370   0.00000  Uiso   1.00
H588   H     0.55497   0.25928   0.38301   0.00000  Uiso   1.00
H589   H     0.57017   0.22344   0.42663   0.00000  Uiso   1.00
H590   H     0.44503   0.07406   0.61699   0.00000  Uiso   1.00
H591   H     0.39236   0.10890   0.61630   0.00000  Uiso   1.00
H592   H     0.42983   0.10990   0.57337   0.00000  Uiso   1.00
H593   H     0.62546   0.10736   0.45397   0.00000  Uiso   1.00
H594   H     0.63372   0.15054   0.41621   0.00000  Uiso   1.00
H595   H     0.65149   0.21998   0.57049   0.00000  Uiso   1.00
H596   H     0.36628   0.18279   0.58379   0.00000  Uiso   1.00
H597   H     0.37454   0.22597   0.54603   0.00000  Uiso   1.00
H598   H     0.40367   0.07349   0.48592   0.00000  Uiso   1.00
H599   H     0.38045   0.03220   0.44533   0.00000  Uiso   1.00
H600   H     0.37588   0.02589   0.50405   0.00000  Uiso   1.00
I601   I     0.38403   0.27198   0.45865   0.00000  Uiso   1.00
I602   I     0.61597   0.06136   0.54135   0.00000  Uiso   1.00
I603   I     0.57639   0.24348   0.62196   0.00000  Uiso   1.00
I604   I     0.42361   0.08985   0.37804   0.00000  Uiso   1.00
N605   N     0.49999   0.16666   0.61907   0.00000  Uiso   1.00
N606   N     0.50001   0.16668   0.38093   0.00000  Uiso   1.00
O607   O     0.50000   0.10558   0.53821   0.00000  Uiso   1.00
O608   O     0.50000   0.22775   0.46179   0.00000  Uiso   1.00
O609   O     0.50000   0.10559   0.46176   0.00000  Uiso   1.00
O610   O     0.50000   0.22774   0.53824   0.00000  Uiso   1.00
O611   O     0.42392   0.16666   0.52928   0.00000  Uiso   1.00
O612   O     0.57608   0.16667   0.47072   0.00000  Uiso   1.00
O613   O     0.42392   0.16667   0.45284   0.00000  Uiso   1.00
O614   O     0.57608   0.16666   0.54716   0.00000  Uiso   1.00
Zn615  Zn    0.50000   0.16666   0.55104   0.00000  Uiso   1.00
Zn616  Zn    0.50000   0.16667   0.44896   0.00000  Uiso   1.00
C617   C     0.83368   0.08700   0.49996   0.00000  Uiso   1.00
C618   C     0.88011   0.02422   0.51409   0.00000  Uiso   1.00
C619   C     0.83365   0.29058   0.49969   0.00000  Uiso   1.00
C620   C     0.83302   0.04275   0.50031   0.00000  Uiso   1.00
C621   C     0.86438   0.19532   0.36193   0.00000  Uiso   1.00
C622   C     0.80229   0.13801   0.63807   0.00000  Uiso   1.00
C623   C     0.86359   0.19560   0.64762   0.00000  Uiso   1.00
C624   C     0.80307   0.13773   0.35238   0.00000  Uiso   1.00
C625   C     0.98662   0.13135   0.44358   0.00000  Uiso   1.00
C626   C     0.68004   0.20198   0.55642   0.00000  Uiso   1.00
C627   C     0.73383   0.03907   0.48023   0.00000  Uiso   1.00
C628   C     0.83299   0.24634   0.50005   0.00000  Uiso   1.00
C629   C     0.93284   0.29427   0.51977   0.00000  Uiso   1.00
C630   C     0.90076   0.22713   0.39056   0.00000  Uiso   1.00
C631   C     0.76591   0.10620   0.60944   0.00000  Uiso   1.00
C632   C     0.73401   0.16563   0.48826   0.00000  Uiso   1.00
C633   C     0.93265   0.16770   0.51174   0.00000  Uiso   1.00
C634   C     0.67901   0.15940   0.48326   0.00000  Uiso   1.00
C635   C     0.98765   0.17393   0.51674   0.00000  Uiso   1.00
C636   C     0.78562   0.01915   0.48808   0.00000  Uiso   1.00
C637   C     0.88105   0.31419   0.51192   0.00000  Uiso   1.00
C638   C     0.78656   0.30911   0.48591   0.00000  Uiso   1.00
H639   H     0.68185   0.11335   0.42951   0.00000  Uiso   1.00
H640   H     0.92966   0.25985   0.51408   0.00000  Uiso   1.00
H641   H     0.95745   0.30745   0.49595   0.00000  Uiso   1.00
H642   H     0.95288   0.30113   0.55467   0.00000  Uiso   1.00
H643   H     0.94097   0.22444   0.38370   0.00000  Uiso   1.00
H644   H     0.88831   0.25928   0.38301   0.00000  Uiso   1.00
H645   H     0.90350   0.22344   0.42663   0.00000  Uiso   1.00
H646   H     0.77836   0.07406   0.61699   0.00000  Uiso   1.00
H647   H     0.72569   0.10890   0.61630   0.00000  Uiso   1.00
H648   H     0.76316   0.10990   0.57337   0.00000  Uiso   1.00
H649   H     0.95879   0.10736   0.45397   0.00000  Uiso   1.00
H650   H     0.96706   0.15054   0.41621   0.00000  Uiso   1.00
H651   H     0.98482   0.21998   0.57049   0.00000  Uiso   1.00
H652   H     0.69961   0.18279   0.58379   0.00000  Uiso   1.00
H653   H     0.70788   0.22597   0.54603   0.00000  Uiso   1.00
H654   H     0.73700   0.07349   0.48592   0.00000  Uiso   1.00
H655   H     0.71378   0.03220   0.44533   0.00000  Uiso   1.00
H656   H     0.70921   0.02589   0.50405   0.00000  Uiso   1.00
I657   I     0.71736   0.27198   0.45865   0.00000  Uiso   1.00
I658   I     0.94930   0.06136   0.54135   0.00000  Uiso   1.00
I659   I     0.90972   0.24348   0.62196   0.00000  Uiso   1.00
I660   I     0.75694   0.08985   0.37804   0.00000  Uiso   1.00
N661   N     0.83332   0.16666   0.61907   0.00000  Uiso   1.00
N662   N     0.83335   0.16668   0.38093   0.00000  Uiso   1.00
O663   O     0.83333   0.10558   0.53821   0.00000  Uiso   1.00
O664   O     0.83334   0.22775   0.46179   0.00000  Uiso   1.00
O665   O     0.83333   0.10559   0.46176   0.00000  Uiso   1.00
O666   O     0.83334   0.22774   0.53824   0.00000  Uiso   1.00
O667   O     0.75725   0.16666   0.52928   0.00000  Uiso   1.00
O668   O     0.90942   0.16667   0.47072   0.00000  Uiso   1.00
O669   O     0.75725   0.16667   0.45284   0.00000  Uiso   1.00
O670   O     0.90942   0.16666   0.54716   0.00000  Uiso   1.00
Zn671  Zn    0.83333   0.16666   0.55104   0.00000  Uiso   1.00
Zn672  Zn    0.83333   0.16667   0.44896   0.00000  Uiso   1.00
C673   C     0.16701   0.42033   0.49996   0.00000  Uiso   1.00
C674   C     0.21344   0.35755   0.51409   0.00000  Uiso   1.00
C675   C     0.16698   0.62391   0.49969   0.00000  Uiso   1.00
C676   C     0.16635   0.37609   0.50031   0.00000  Uiso   1.00
C677   C     0.19771   0.52866   0.36193   0.00000  Uiso   1.00
C678   C     0.13562   0.47134   0.63807   0.00000  Uiso   1.00
C679   C     0.19693   0.52893   0.64762   0.00000  Uiso   1.00
C680   C     0.13641   0.47107   0.35238   0.00000  Uiso   1.00
C681   C     0.31996   0.46468   0.44358   0.00000  Uiso   1.00
C682   C     0.01338   0.53532   0.55642   0.00000  Uiso   1.00
C683   C     0.06716   0.37240   0.48023   0.00000  Uiso   1.00
C684   C     0.16632   0.57967   0.50005   0.00000  Uiso   1.00
C685   C     0.26617   0.62760   0.51977   0.00000  Uiso   1.00
C686   C     0.23409   0.56047   0.39056   0.00000  Uiso   1.00
C687   C     0.09924   0.43953   0.60944   0.00000  Uiso   1.00
C688   C     0.06735   0.49896   0.48826   0.00000  Uiso   1.00
C689   C     0.26599   0.50103   0.51174   0.00000  Uiso   1.00
C690   C     0.01235   0.49274   0.48326   0.00000  Uiso   1.00
C691   C     0.32099   0.50726   0.51674   0.00000  Uiso   1.00
C692   C     0.11895   0.35248   0.48808   0.00000  Uiso   1.00
C693   C     0.21438   0.64752   0.51192   0.00000  Uiso   1.00
C694   C     0.11989   0.64245   0.48591   0.00000  Uiso   1.00
H695   H     0.01518   0.44669   0.42951   0.00000  Uiso   1.00
H696   H     0.26300   0.59318   0.51408   0.00000  Uiso   1.00
H697   H     0.29079   0.64078   0.49595   0.00000  Uiso   1.00
H698   H     0.28622   0.63447   0.55467   0.00000  Uiso   1.00
H699   H     0.27431   0.55777   0.38370   0.00000  Uiso   1.00
H700   H     0.22164   0.59261   0.38301   0.00000  Uiso   1.00
H701   H     0.23684   0.55677   0.42663   0.00000  Uiso   1.00
H702   H     0.11169   0.40739   0.61699   0.00000  Uiso   1.00
H703   H     0.05903   0.44223   0.61630   0.00000  Uiso   1.00
H704   H     0.09650   0.44323   0.57337   0.00000  Uiso   1.00
H705   H     0.29212   0.44069   0.45397   0.00000  Uiso   1.00
H706   H     0.30039   0.48387   0.41621   0.00000  Uiso   1.00
H707   H     0.31815   0.55331   0.57049   0.00000  Uiso   1.00
H708   H     0.03294   0.51613   0.58379   0.00000  Uiso   1.00
H709   H     0.04121   0.55931   0.54603   0.00000  Uiso   1.00
H710   H     0.07034   0.40682   0.48592   0.00000  Uiso   1.00
H711   H     0.04712   0.36553   0.44533   0.00000  Uiso   1.00
H712   H     0.04255   0.35922   0.50405   0.00000  Uiso   1.00
I713   I     0.05070   0.60531   0.45865   0.00000  Uiso   1.00
I714   I     0.28264   0.39469   0.54135   0.00000  Uiso   1.00
I715   I     0.24306   0.57682   0.62196   0.00000  Uiso   1.00
I716   I     0.09028   0.42318   0.37804   0.00000  Uiso   1.00
N717   N     0.16665   0.49999   0.61907   0.00000  Uiso   1.00
N718   N     0.16668   0.50001   0.38093   0.00000  Uiso   1.00
O719   O     0.16666   0.43892   0.53821   0.00000  Uiso   1.00
O720   O     0.16667   0.56108   0.46179   0.00000  Uiso   1.00
O721   O     0.16666   0.43893   0.46176   0.00000  Uiso   1.00
O722   O     0.16667   0.56107   0.53824   0.00000  Uiso   1.00
O723   O     0.09058   0.50000   0.52928   0.00000  Uiso   1.00
O724   O     0.24275   0.50000   0.47072   0.00000  Uiso   1.00
O725   O     0.09058   0.50000   0.45284   0.00000  Uiso   1.00
O726   O     0.24275   0.50000   0.54716   0.00000  Uiso   1.00
Zn727  Zn    0.16667   0.49999   0.55104   0.00000  Uiso   1.00
Zn728  Zn    0.16667   0.50001   0.44896   0.00000  Uiso   1.00
C729   C     0.50034   0.42033   0.49996   0.00000  Uiso   1.00
C730   C     0.54678   0.35755   0.51409   0.00000  Uiso   1.00
C731   C     0.50032   0.62391   0.49969   0.00000  Uiso   1.00
C732   C     0.49968   0.37609   0.50031   0.00000  Uiso   1.00
C733   C     0.53105   0.52866   0.36193   0.00000  Uiso   1.00
C734   C     0.46895   0.47134   0.63807   0.00000  Uiso   1.00
C735   C     0.53026   0.52893   0.64762   0.00000  Uiso   1.00
C736   C     0.46974   0.47107   0.35238   0.00000  Uiso   1.00
C737   C     0.65329   0.46468   0.44358   0.00000  Uiso   1.00
C738   C     0.34671   0.53532   0.55642   0.00000  Uiso   1.00
C739   C     0.40049   0.37240   0.48023   0.00000  Uiso   1.00
C740   C     0.49966   0.57967   0.50005   0.00000  Uiso   1.00
C741   C     0.59951   0.62760   0.51977   0.00000  Uiso   1.00
C742   C     0.56743   0.56047   0.39056   0.00000  Uiso   1.00
C743   C     0.43257   0.43953   0.60944   0.00000  Uiso   1.00
C744   C     0.40068   0.49896   0.48826   0.00000  Uiso   1.00
C745   C     0.59932   0.50103   0.51174   0.00000  Uiso   1.00
C746   C     0.34568   0.49274   0.48326   0.00000  Uiso   1.00
C747   C     0.65432   0.50726   0.51674   0.00000  Uiso   1.00
C748   C     0.45228   0.35248   0.48808   0.00000  Uiso   1.00
C749   C     0.54772   0.64752   0.51192   0.00000  Uiso   1.00
C750   C     0.45322   0.64245   0.48591   0.00000  Uiso   1.00
H751   H     0.34851   0.44669   0.42951   0.00000  Uiso   1.00
H752   H     0.59633   0.59318   0.51408   0.00000  Uiso   1.00
H753   H     0.62412   0.64078   0.49595   0.00000  Uiso   1.00
H754   H     0.61955   0.63447   0.55467   0.00000  Uiso   1.00
H755   H     0.60764   0.55777   0.38370   0.00000  Uiso   1.00
H756   H     0.55497   0.59261   0.38301   0.00000  Uiso   1.00
H757   H     0.57017   0.55677   0.42663   0.00000  Uiso   1.00
H758   H     0.44503   0.40739   0.61699   0.00000  Uiso   1.00
H759   H     0.39236   0.44223   0.61630   0.00000  Uiso   1.00
H760   H     0.42983   0.44323   0.57337   0.00000  Uiso   1.00
H761   H     0.62546   0.44069   0.45397   0.00000  Uiso   1.00
H762   H     0.63372   0.48387   0.41621   0.00000  Uiso   1.00
H763   H     0.65149   0.55331   0.57049   0.00000  Uiso   1.00
H764   H     0.36628   0.51613   0.58379   0.00000  Uiso   1.00
H765   H     0.37454   0.55931   0.54603   0.00000  Uiso   1.00
H766   H     0.40367   0.40682   0.48592   0.00000  Uiso   1.00
H767   H     0.38045   0.36553   0.44533   0.00000  Uiso   1.00
H768   H     0.37588   0.35922   0.50405   0.00000  Uiso   1.00
I769   I     0.38403   0.60531   0.45865   0.00000  Uiso   1.00
I770   I     0.61597   0.39469   0.54135   0.00000  Uiso   1.00
I771   I     0.57639   0.57682   0.62196   0.00000  Uiso   1.00
I772   I     0.42361   0.42318   0.37804   0.00000  Uiso   1.00
N773   N     0.49999   0.49999   0.61907   0.00000  Uiso   1.00
N774   N     0.50001   0.50001   0.38093   0.00000  Uiso   1.00
O775   O     0.50000   0.43892   0.53821   0.00000  Uiso   1.00
O776   O     0.50000   0.56108   0.46179   0.00000  Uiso   1.00
O777   O     0.50000   0.43893   0.46176   0.00000  Uiso   1.00
O778   O     0.50000   0.56107   0.53824   0.00000  Uiso   1.00
O779   O     0.42392   0.50000   0.52928   0.00000  Uiso   1.00
O780   O     0.57608   0.50000   0.47072   0.00000  Uiso   1.00
O781   O     0.42392   0.50000   0.45284   0.00000  Uiso   1.00
O782   O     0.57608   0.50000   0.54716   0.00000  Uiso   1.00
Zn783  Zn    0.50000   0.49999   0.55104   0.00000  Uiso   1.00
Zn784  Zn    0.50000   0.50001   0.44896   0.00000  Uiso   1.00
C785   C     0.83368   0.42033   0.49996   0.00000  Uiso   1.00
C786   C     0.88011   0.35755   0.51409   0.00000  Uiso   1.00
C787   C     0.83365   0.62391   0.49969   0.00000  Uiso   1.00
C788   C     0.83302   0.37609   0.50031   0.00000  Uiso   1.00
C789   C     0.86438   0.52866   0.36193   0.00000  Uiso   1.00
C790   C     0.80229   0.47134   0.63807   0.00000  Uiso   1.00
C791   C     0.86359   0.52893   0.64762   0.00000  Uiso   1.00
C792   C     0.80307   0.47107   0.35238   0.00000  Uiso   1.00
C793   C     0.98662   0.46468   0.44358   0.00000  Uiso   1.00
C794   C     0.68004   0.53532   0.55642   0.00000  Uiso   1.00
C795   C     0.73383   0.37240   0.48023   0.00000  Uiso   1.00
C796   C     0.83299   0.57967   0.50005   0.00000  Uiso   1.00
C797   C     0.93284   0.62760   0.51977   0.00000  Uiso   1.00
C798   C     0.90076   0.56047   0.39056   0.00000  Uiso   1.00
C799   C     0.76591   0.43953   0.60944   0.00000  Uiso   1.00
C800   C     0.73401   0.49896   0.48826   0.00000  Uiso   1.00
C801   C     0.93265   0.50103   0.51174   0.00000  Uiso   1.00
C802   C     0.67901   0.49274   0.48326   0.00000  Uiso   1.00
C803   C     0.98765   0.50726   0.51674   0.00000  Uiso   1.00
C804   C     0.78562   0.35248   0.48808   0.00000  Uiso   1.00
C805   C     0.88105   0.64752   0.51192   0.00000  Uiso   1.00
C806   C     0.78656   0.64245   0.48591   0.00000  Uiso   1.00
H807   H     0.68185   0.44669   0.42951   0.00000  Uiso   1.00
H808   H     0.92966   0.59318   0.51408   0.00000  Uiso   1.00
H809   H     0.95745   0.64078   0.49595   0.00000  Uiso   1.00
H810   H     0.95288   0.63447   0.55467   0.00000  Uiso   1.00
H811   H     0.94097   0.55777   0.38370   0.00000  Uiso   1.00
H812   H     0.88831   0.59261   0.38301   0.00000  Uiso   1.00
H813   H     0.90350   0.55677   0.42663   0.00000  Uiso   1.00
H814   H     0.77836   0.40739   0.61699   0.00000  Uiso   1.00
H815   H     0.72569   0.44223   0.61630   0.00000  Uiso   1.00
H816   H     0.76316   0.44323   0.57337   0.00000  Uiso   1.00
H817   H     0.95879   0.44069   0.45397   0.00000  Uiso   1.00
H818   H     0.96706   0.48387   0.41621   0.00000  Uiso   1.00
H819   H     0.98482   0.55331   0.57049   0.00000  Uiso   1.00
H820   H     0.69961   0.51613   0.58379   0.00000  Uiso   1.00
H821   H     0.70788   0.55931   0.54603   0.00000  Uiso   1.00
H822   H     0.73700   0.40682   0.48592   0.00000  Uiso   1.00
H823   H     0.71378   0.36553   0.44533   0.00000  Uiso   1.00
H824   H     0.70921   0.35922   0.50405   0.00000  Uiso   1.00
I825   I     0.71736   0.60531   0.45865   0.00000  Uiso   1.00
I826   I     0.94930   0.39469   0.54135   0.00000  Uiso   1.00
I827   I     0.90972   0.57682   0.62196   0.00000  Uiso   1.00
I828   I     0.75694   0.42318   0.37804   0.00000  Uiso   1.00
N829   N     0.83332   0.49999   0.61907   0.00000  Uiso   1.00
N830   N     0.83335   0.50001   0.38093   0.00000  Uiso   1.00
O831   O     0.83333   0.43892   0.53821   0.00000  Uiso   1.00
O832   O     0.83334   0.56108   0.46179   0.00000  Uiso   1.00
O833   O     0.83333   0.43893   0.46176   0.00000  Uiso   1.00
O834   O     0.83334   0.56107   0.53824   0.00000  Uiso   1.00
O835   O     0.75725   0.50000   0.52928   0.00000  Uiso   1.00
O836   O     0.90942   0.50000   0.47072   0.00000  Uiso   1.00
O837   O     0.75725   0.50000   0.45284   0.00000  Uiso   1.00
O838   O     0.90942   0.50000   0.54716   0.00000  Uiso   1.00
Zn839  Zn    0.83333   0.49999   0.55104   0.00000  Uiso   1.00
Zn840  Zn    0.83333   0.50001   0.44896   0.00000  Uiso   1.00
C841   C     0.16701   0.75366   0.49996   0.00000  Uiso   1.00
C842   C     0.21344   0.69089   0.51409   0.00000  Uiso   1.00
C843   C     0.16698   0.95725   0.49969   0.00000  Uiso   1.00
C844   C     0.16635   0.70942   0.50031   0.00000  Uiso   1.00
C845   C     0.19771   0.86199   0.36193   0.00000  Uiso   1.00
C846   C     0.13562   0.80468   0.63807   0.00000  Uiso   1.00
C847   C     0.19693   0.86227   0.64762   0.00000  Uiso   1.00
C848   C     0.13641   0.80440   0.35238   0.00000  Uiso   1.00
C849   C     0.31996   0.79802   0.44358   0.00000  Uiso   1.00
C850   C     0.01338   0.86865   0.55642   0.00000  Uiso   1.00
C851   C     0.06716   0.70573   0.48023   0.00000  Uiso   1.00
C852   C     0.16632   0.91300   0.50005   0.00000  Uiso   1.00
C853   C     0.26617   0.96093   0.51977   0.00000  Uiso   1.00
C854   C     0.23409   0.89380   0.39056   0.00000  Uiso   1.00
C855   C     0.09924   0.77287   0.60944   0.00000  Uiso   1.00
C856   C     0.06735   0.83230   0.48826   0.00000  Uiso   1.00
C857   C     0.26599   0.83437   0.51174   0.00000  Uiso   1.00
C858   C     0.01235   0.82607   0.48326   0.00000  Uiso   1.00
C859   C     0.32099   0.84060   0.51674   0.00000  Uiso   1.00
C860   C     0.11895   0.68581   0.48808   0.00000  Uiso   1.00
C861   C     0.21438   0.98085   0.51192   0.00000  Uiso   1.00
C862   C     0.11989   0.97578   0.48591   0.00000  Uiso   1.00
H863   H     0.01518   0.78002   0.42951   0.00000  Uiso   1.00
H864   H     0.26300   0.92651   0.51408   0.00000  Uiso   1.00
H865   H     0.29079   0.97411   0.49595   0.00000  Uiso   1.00
H866   H     0.28622   0.96780   0.55467   0.00000  Uiso   1.00
H867   H     0.27431   0.89110   0.38370   0.00000  Uiso   1.00
H868   H     0.22164   0.92594   0.38301   0.00000  Uiso   1.00
H869   H     0.23684   0.89010   0.42663   0.00000  Uiso   1.00
H870   H     0.11169   0.74072   0.61699   0.00000  Uiso   1.00
H871   H     0.05903   0.77556   0.61630   0.00000  Uiso   1.00
H872   H     0.09650   0.77656   0.57337   0.00000  Uiso   1.00
H873   H     0.29212   0.77402   0.45397   0.00000  Uiso   1.00
H874   H     0.30039   0.81721   0.41621   0.00000  Uiso   1.00
H875   H     0.31815   0.88665   0.57049   0.00000  Uiso   1.00
H876   H     0.03294   0.84946   0.58379   0.00000  Uiso   1.00
H877   H     0.04121   0.89264   0.54603   0.00000  Uiso   1.00
H878   H     0.07034   0.74015   0.48592   0.00000  Uiso   1.00
H879   H     0.04712   0.69887   0.44533   0.00000  Uiso   1.00
H880   H     0.04255   0.69255   0.50405   0.00000  Uiso   1.00
I881   I     0.05070   0.93864   0.45865   0.00000  Uiso   1.00
I882   I     0.28264   0.72802   0.54135   0.00000  Uiso   1.00
I883   I     0.24306   0.91015   0.62196   0.00000  Uiso   1.00
I884   I     0.09028   0.75652   0.37804   0.00000  Uiso   1.00
N885   N     0.16665   0.83332   0.61907   0.00000  Uiso   1.00
N886   N     0.16668   0.83334   0.38093   0.00000  Uiso   1.00
O887   O     0.16666   0.77225   0.53821   0.00000  Uiso   1.00
O888   O     0.16667   0.89442   0.46179   0.00000  Uiso   1.00
O889   O     0.16666   0.77226   0.46176   0.00000  Uiso   1.00
O890   O     0.16667   0.89441   0.53824   0.00000  Uiso   1.00
O891   O     0.09058   0.83333   0.52928   0.00000  Uiso   1.00
O892   O     0.24275   0.83334   0.47072   0.00000  Uiso   1.00
O893   O     0.09058   0.83334   0.45284   0.00000  Uiso   1.00
O894   O     0.24275   0.83333   0.54716   0.00000  Uiso   1.00
Zn895  Zn    0.16667   0.83333   0.55104   0.00000  Uiso   1.00
Zn896  Zn    0.16667   0.83334   0.44896   0.00000  Uiso   1.00
C897   C     0.50034   0.75366   0.49996   0.00000  Uiso   1.00
C898   C     0.54678   0.69089   0.51409   0.00000  Uiso   1.00
C899   C     0.50032   0.95725   0.49969   0.00000  Uiso   1.00
C900   C     0.49968   0.70942   0.50031   0.00000  Uiso   1.00
C901   C     0.53105   0.86199   0.36193   0.00000  Uiso   1.00
C902   C     0.46895   0.80468   0.63807   0.00000  Uiso   1.00
C903   C     0.53026   0.86227   0.64762   0.00000  Uiso   1.00
C904   C     0.46974   0.80440   0.35238   0.00000  Uiso   1.00
C905   C     0.65329   0.79802   0.44358   0.00000  Uiso   1.00
C906   C     0.34671   0.86865   0.55642   0.00000  Uiso   1.00
C907   C     0.40049   0.70573   0.48023   0.00000  Uiso   1.00
C908   C     0.49966   0.91300   0.50005   0.00000  Uiso   1.00
C909   C     0.59951   0.96093   0.51977   0.00000  Uiso   1.00
C910   C     0.56743   0.89380   0.39056   0.00000  Uiso   1.00
C911   C     0.43257   0.77287   0.60944   0.00000  Uiso   1.00
C912   C     0.40068   0.83230   0.48826   0.00000  Uiso   1.00
C913   C     0.59932   0.83437   0.51174   0.00000  Uiso   1.00
C914   C     0.34568   0.82607   0.48326   0.00000  Uiso   1.00
C915   C     0.65432   0.84060   0.51674   0.00000  Uiso   1.00
C916   C     0.45228   0.68581   0.48808   0.00000  Uiso   1.00
C917   C     0.54772   0.98085   0.51192   0.00000  Uiso   1.00
C918   C     0.45322   0.97578   0.48591   0.00000  Uiso   1.00
H919   H     0.34851   0.78002   0.42951   0.00000  Uiso   1.00
H920   H     0.59633   0.92651   0.51408   0.00000  Uiso   1.00
H921   H     0.62412   0.97411   0.49595   0.00000  Uiso   1.00
H922   H     0.61955   0.96780   0.55467   0.00000  Uiso   1.00
H923   H     0.60764   0.89110   0.38370   0.00000  Uiso   1.00
H924   H     0.55497   0.92594   0.38301   0.00000  Uiso   1.00
H925   H     0.57017   0.89010   0.42663   0.00000  Uiso   1.00
H926   H     0.44503   0.74072   0.61699   0.00000  Uiso   1.00
H927   H     0.39236   0.77556   0.61630   0.00000  Uiso   1.00
H928   H     0.42983   0.77656   0.57337   0.00000  Uiso   1.00
H929   H     0.62546   0.77402   0.45397   0.00000  Uiso   1.00
H930   H     0.63372   0.81721   0.41621   0.00000  Uiso   1.00
H931   H     0.65149   0.88665   0.57049   0.00000  Uiso   1.00
H932   H     0.36628   0.84946   0.58379   0.00000  Uiso   1.00
H933   H     0.37454   0.89264   0.54603   0.00000  Uiso   1.00
H934   H     0.40367   0.74015   0.48592   0.00000  Uiso   1.00
H935   H     0.38045   0.69887   0.44533   0.00000  Uiso   1.00
H936   H     0.37588   0.69255   0.50405   0.00000  Uiso   1.00
I937   I     0.38403   0.93864   0.45865   0.00000  Uiso   1.00
I938   I     0.61597   0.72802   0.54135   0.00000  Uiso   1.00
I939   I     0.57639   0.91015   0.62196   0.00000  Uiso   1.00
I940   I     0.42361   0.75652   0.37804   0.00000  Uiso   1.00
N941   N     0.49999   0.83332   0.61907   0.00000  Uiso   1.00
N942   N     0.50001   0.83334   0.38093   0.00000  Uiso   1.00
O943   O     0.50000   0.77225   0.53821   0.00000  Uiso   1.00
O944   O     0.50000   0.89442   0.46179   0.00000  Uiso   1.00
O945   O     0.50000   0.77226   0.46176   0.00000  Uiso   1.00
O946   O     0.50000   0.89441   0.53824   0.00000  Uiso   1.00
O947   O     0.42392   0.83333   0.52928   0.00000  Uiso   1.00
O948   O     0.57608   0.83334   0.47072   0.00000  Uiso   1.00
O949   O     0.42392   0.83334   0.45284   0.00000  Uiso   1.00
O950   O     0.57608   0.83333   0.54716   0.00000  Uiso   1.00
Zn951  Zn    0.50000   0.83333   0.55104   0.00000  Uiso   1.00
Zn952  Zn    0.50000   0.83334   0.44896   0.00000  Uiso   1.00
C953   C     0.83368   0.75366   0.49996   0.00000  Uiso   1.00
C954   C     0.88011   0.69089   0.51409   0.00000  Uiso   1.00
C955   C     0.83365   0.95725   0.49969   0.00000  Uiso   1.00
C956   C     0.83302   0.70942   0.50031   0.00000  Uiso   1.00
C957   C     0.86438   0.86199   0.36193   0.00000  Uiso   1.00
C958   C     0.80229   0.80468   0.63807   0.00000  Uiso   1.00
C959   C     0.86359   0.86227   0.64762   0.00000  Uiso   1.00
C960   C     0.80307   0.80440   0.35238   0.00000  Uiso   1.00
C961   C     0.98662   0.79802   0.44358   0.00000  Uiso   1.00
C962   C     0.68004   0.86865   0.55642   0.00000  Uiso   1.00
C963   C     0.73383   0.70573   0.48023   0.00000  Uiso   1.00
C964   C     0.83299   0.91300   0.50005   0.00000  Uiso   1.00
C965   C     0.93284   0.96093   0.51977   0.00000  Uiso   1.00
C966   C     0.90076   0.89380   0.39056   0.00000  Uiso   1.00
C967   C     0.76591   0.77287   0.60944   0.00000  Uiso   1.00
C968   C     0.73401   0.83230   0.48826   0.00000  Uiso   1.00
C969   C     0.93265   0.83437   0.51174   0.00000  Uiso   1.00
C970   C     0.67901   0.82607   0.48326   0.00000  Uiso   1.00
C971   C     0.98765   0.84060   0.51674   0.00000  Uiso   1.00
C972   C     0.78562   0.68581   0.48808   0.00000  Uiso   1.00
C973   C     0.88105   0.98085   0.51192   0.00000  Uiso   1.00
C974   C     0.78656   0.97578   0.48591   0.00000  Uiso   1.00
H975   H     0.68185   0.78002   0.42951   0.00000  Uiso   1.00
H976   H     0.92966   0.92651   0.51408   0.00000  Uiso   1.00
H977   H     0.95745   0.97411   0.49595   0.00000  Uiso   1.00
H978   H     0.95288   0.96780   0.55467   0.00000  Uiso   1.00
H979   H     0.94097   0.89110   0.38370   0.00000  Uiso   1.00
H980   H     0.88831   0.92594   0.38301   0.00000  Uiso   1.00
H981   H     0.90350   0.89010   0.42663   0.00000  Uiso   1.00
H982   H     0.77836   0.74072   0.61699   0.00000  Uiso   1.00
H983   H     0.72569   0.77556   0.61630   0.00000  Uiso   1.00
H984   H     0.76316   0.77656   0.57337   0.00000  Uiso   1.00
H985   H     0.95879   0.77402   0.45397   0.00000  Uiso   1.00
H986   H     0.96706   0.81721   0.41621   0.00000  Uiso   1.00
H987   H     0.98482   0.88665   0.57049   0.00000  Uiso   1.00
H988   H     0.69961   0.84946   0.58379   0.00000  Uiso   1.00
H989   H     0.70788   0.89264   0.54603   0.00000  Uiso   1.00
H990   H     0.73700   0.74015   0.48592   0.00000  Uiso   1.00
H991   H     0.71378   0.69887   0.44533   0.00000  Uiso   1.00
H992   H     0.70921   0.69255   0.50405   0.00000  Uiso   1.00
I993   I     0.71736   0.93864   0.45865   0.00000  Uiso   1.00
I994   I     0.94930   0.72802   0.54135   0.00000  Uiso   1.00
I995   I     0.90972   0.91015   0.62196   0.00000  Uiso   1.00
I996   I     0.75694   0.75652   0.37804   0.00000  Uiso   1.00
N997   N     0.83332   0.83332   0.61907   0.00000  Uiso   1.00
N998   N     0.83335   0.83334   0.38093   0.00000  Uiso   1.00
O999   O     0.83333   0.77225   0.53821   0.00000  Uiso   1.00
O1000  O     0.83334   0.89442   0.46179   0.00000  Uiso   1.00
O1001  O     0.83333   0.77226   0.46176   0.00000  Uiso   1.00
O1002  O     0.83334   0.89441   0.53824   0.00000  Uiso   1.00
O1003  O     0.75725   0.83333   0.52928   0.00000  Uiso   1.00
O1004  O     0.90942   0.83334   0.47072   0.00000  Uiso   1.00
O1005  O     0.75725   0.83334   0.45284   0.00000  Uiso   1.00
O1006  O     0.90942   0.83333   0.54716   0.00000  Uiso   1.00
Zn1007 Zn    0.83333   0.83333   0.55104   0.00000  Uiso   1.00
Zn1008 Zn    0.83333   0.83334   0.44896   0.00000  Uiso   1.00
C1009  C     0.16701   0.08700   0.83329   0.00000  Uiso   1.00
C1010  C     0.21344   0.02422   0.84742   0.00000  Uiso   1.00
C1011  C     0.16698   0.29058   0.83302   0.00000  Uiso   1.00
C1012  C     0.16635   0.04275   0.83364   0.00000  Uiso   1.00
C1013  C     0.19771   0.19532   0.69526   0.00000  Uiso   1.00
C1014  C     0.13562   0.13801   0.97141   0.00000  Uiso   1.00
C1015  C     0.19693   0.19560   0.98095   0.00000  Uiso   1.00
C1016  C     0.13641   0.13773   0.68572   0.00000  Uiso   1.00
C1017  C     0.31996   0.13135   0.77691   0.00000  Uiso   1.00
C1018  C     0.01338   0.20198   0.88976   0.00000  Uiso   1.00
C1019  C     0.06716   0.03907   0.81357   0.00000  Uiso   1.00
C1020  C     0.16632   0.24634   0.83338   0.00000  Uiso   1.00
C1021  C     0.26617   0.29427   0.85310   0.00000  Uiso   1.00
C1022  C     0.23409   0.22713   0.72390   0.00000  Uiso   1.00
C1023  C     0.09924   0.10620   0.94277   0.00000  Uiso   1.00
C1024  C     0.06735   0.16563   0.82159   0.00000  Uiso   1.00
C1025  C     0.26599   0.16770   0.84508   0.00000  Uiso   1.00
C1026  C     0.01235   0.15940   0.81659   0.00000  Uiso   1.00
C1027  C     0.32099   0.17393   0.85008   0.00000  Uiso   1.00
C1028  C     0.11895   0.01915   0.82141   0.00000  Uiso   1.00
C1029  C     0.21438   0.31419   0.84525   0.00000  Uiso   1.00
C1030  C     0.11989   0.30911   0.81924   0.00000  Uiso   1.00
H1031  H     0.01518   0.11335   0.76284   0.00000  Uiso   1.00
H1032  H     0.26300   0.25985   0.84741   0.00000  Uiso   1.00
H1033  H     0.29079   0.30745   0.82928   0.00000  Uiso   1.00
H1034  H     0.28622   0.30113   0.88800   0.00000  Uiso   1.00
H1035  H     0.27431   0.22444   0.71703   0.00000  Uiso   1.00
H1036  H     0.22164   0.25928   0.71634   0.00000  Uiso   1.00
H1037  H     0.23684   0.22344   0.75997   0.00000  Uiso   1.00
H1038  H     0.11169   0.07406   0.95032   0.00000  Uiso   1.00
H1039  H     0.05903   0.10890   0.94963   0.00000  Uiso   1.00
H1040  H     0.09650   0.10990   0.90670   0.00000  Uiso   1.00
H1041  H     0.29212   0.10736   0.78730   0.00000  Uiso   1.00
H1042  H     0.30039   0.15054   0.74954   0.00000  Uiso   1.00
H1043  H     0.31815   0.21998   0.90383   0.00000  Uiso   1.00
H1044  H     0.03294   0.18279   0.91713   0.00000  Uiso   1.00
H1045  H     0.04121   0.22597   0.87937   0.00000  Uiso   1.00
H1046  H     0.07034   0.07349   0.81926   0.00000  Uiso   1.00
H1047  H     0.04712   0.03220   0.77867   0.00000  Uiso   1.00
H1048  H     0.04255   0.02589   0.83739   0.00000  Uiso   1.00
I1049  I     0.05070   0.27198   0.79198   0.00000  Uiso   1.00
I1050  I     0.28264   0.06136   0.87469   0.00000  Uiso   1.00
I1051  I     0.24306   0.24348   0.95529   0.00000  Uiso   1.00
I1052  I     0.09028   0.08985   0.71137   0.00000  Uiso   1.00
N1053  N     0.16665   0.16666   0.95240   0.00000  Uiso   1.00
N1054  N     0.16668   0.16668   0.71427   0.00000  Uiso   1.00
O1055  O     0.16666   0.10558   0.87154   0.00000  Uiso   1.00
O1056  O     0.16667   0.22775   0.79513   0.00000  Uiso   1.00
O1057  O     0.16666   0.10559   0.79510   0.00000  Uiso   1.00
O1058  O     0.16667   0.22774   0.87157   0.00000  Uiso   1.00
O1059  O     0.09058   0.16666   0.86261   0.00000  Uiso   1.00
O1060  O     0.24275   0.16667   0.80405   0.00000  Uiso   1.00
O1061  O     0.09058   0.16667   0.78617   0.00000  Uiso   1.00
O1062  O     0.24275   0.16666   0.88050   0.00000  Uiso   1.00
Zn1063 Zn    0.16667   0.16666   0.88437   0.00000  Uiso   1.00
Zn1064 Zn    0.16667   0.16667   0.78229   0.00000  Uiso   1.00
C1065  C     0.50034   0.08700   0.83329   0.00000  Uiso   1.00
C1066  C     0.54678   0.02422   0.84742   0.00000  Uiso   1.00
C1067  C     0.50032   0.29058   0.83302   0.00000  Uiso   1.00
C1068  C     0.49968   0.04275   0.83364   0.00000  Uiso   1.00
C1069  C     0.53105   0.19532   0.69526   0.00000  Uiso   1.00
C1070  C     0.46895   0.13801   0.97141   0.00000  Uiso   1.00
C1071  C     0.53026   0.19560   0.98095   0.00000  Uiso   1.00
C1072  C     0.46974   0.13773   0.68572   0.00000  Uiso   1.00
C1073  C     0.65329   0.13135   0.77691   0.00000  Uiso   1.00
C1074  C     0.34671   0.20198   0.88976   0.00000  Uiso   1.00
C1075  C     0.40049   0.03907   0.81357   0.00000  Uiso   1.00
C1076  C     0.49966   0.24634   0.83338   0.00000  Uiso   1.00
C1077  C     0.59951   0.29427   0.85310   0.00000  Uiso   1.00
C1078  C     0.56743   0.22713   0.72390   0.00000  Uiso   1.00
C1079  C     0.43257   0.10620   0.94277   0.00000  Uiso   1.00
C1080  C     0.40068   0.16563   0.82159   0.00000  Uiso   1.00
C1081  C     0.59932   0.16770   0.84508   0.00000  Uiso   1.00
C1082  C     0.34568   0.15940   0.81659   0.00000  Uiso   1.00
C1083  C     0.65432   0.17393   0.85008   0.00000  Uiso   1.00
C1084  C     0.45228   0.01915   0.82141   0.00000  Uiso   1.00
C1085  C     0.54772   0.31419   0.84525   0.00000  Uiso   1.00
C1086  C     0.45322   0.30911   0.81924   0.00000  Uiso   1.00
H1087  H     0.34851   0.11335   0.76284   0.00000  Uiso   1.00
H1088  H     0.59633   0.25985   0.84741   0.00000  Uiso   1.00
H1089  H     0.62412   0.30745   0.82928   0.00000  Uiso   1.00
H1090  H     0.61955   0.30113   0.88800   0.00000  Uiso   1.00
H1091  H     0.60764   0.22444   0.71703   0.00000  Uiso   1.00
H1092  H     0.55497   0.25928   0.71634   0.00000  Uiso   1.00
H1093  H     0.57017   0.22344   0.75997   0.00000  Uiso   1.00
H1094  H     0.44503   0.07406   0.95032   0.00000  Uiso   1.00
H1095  H     0.39236   0.10890   0.94963   0.00000  Uiso   1.00
H1096  H     0.42983   0.10990   0.90670   0.00000  Uiso   1.00
H1097  H     0.62546   0.10736   0.78730   0.00000  Uiso   1.00
H1098  H     0.63372   0.15054   0.74954   0.00000  Uiso   1.00
H1099  H     0.65149   0.21998   0.90383   0.00000  Uiso   1.00
H1100  H     0.36628   0.18279   0.91713   0.00000  Uiso   1.00
H1101  H     0.37454   0.22597   0.87937   0.00000  Uiso   1.00
H1102  H     0.40367   0.07349   0.81926   0.00000  Uiso   1.00
H1103  H     0.38045   0.03220   0.77867   0.00000  Uiso   1.00
H1104  H     0.37588   0.02589   0.83739   0.00000  Uiso   1.00
I1105  I     0.38403   0.27198   0.79198   0.00000  Uiso   1.00
I1106  I     0.61597   0.06136   0.87469   0.00000  Uiso   1.00
I1107  I     0.57639   0.24348   0.95529   0.00000  Uiso   1.00
I1108  I     0.42361   0.08985   0.71137   0.00000  Uiso   1.00
N1109  N     0.49999   0.16666   0.95240   0.00000  Uiso   1.00
N1110  N     0.50001   0.16668   0.71427   0.00000  Uiso   1.00
O1111  O     0.50000   0.10558   0.87154   0.00000  Uiso   1.00
O1112  O     0.50000   0.22775   0.79513   0.00000  Uiso   1.00
O1113  O     0.50000   0.10559   0.79510   0.00000  Uiso   1.00
O1114  O     0.50000   0.22774   0.87157   0.00000  Uiso   1.00
O1115  O     0.42392   0.16666   0.86261   0.00000  Uiso   1.00
O1116  O     0.57608   0.16667   0.80405   0.00000  Uiso   1.00
O1117  O     0.42392   0.16667   0.78617   0.00000  Uiso   1.00
O1118  O     0.57608   0.16666   0.88050   0.00000  Uiso   1.00
Zn1119 Zn    0.50000   0.16666   0.88437   0.00000  Uiso   1.00
Zn1120 Zn    0.50000   0.16667   0.78229   0.00000  Uiso   1.00
C1121  C     0.83368   0.08700   0.83329   0.00000  Uiso   1.00
C1122  C     0.88011   0.02422   0.84742   0.00000  Uiso   1.00
C1123  C     0.83365   0.29058   0.83302   0.00000  Uiso   1.00
C1124  C     0.83302   0.04275   0.83364   0.00000  Uiso   1.00
C1125  C     0.86438   0.19532   0.69526   0.00000  Uiso   1.00
C1126  C     0.80229   0.13801   0.97141   0.00000  Uiso   1.00
C1127  C     0.86359   0.19560   0.98095   0.00000  Uiso   1.00
C1128  C     0.80307   0.13773   0.68572   0.00000  Uiso   1.00
C1129  C     0.98662   0.13135   0.77691   0.00000  Uiso   1.00
C1130  C     0.68004   0.20198   0.88976   0.00000  Uiso   1.00
C1131  C     0.73383   0.03907   0.81357   0.00000  Uiso   1.00
C1132  C     0.83299   0.24634   0.83338   0.00000  Uiso   1.00
C1133  C     0.93284   0.29427   0.85310   0.00000  Uiso   1.00
C1134  C     0.90076   0.22713   0.72390   0.00000  Uiso   1.00
C1135  C     0.76591   0.10620   0.94277   0.00000  Uiso   1.00
C1136  C     0.73401   0.16563   0.82159   0.00000  Uiso   1.00
C1137  C     0.93265   0.16770   0.84508   0.00000  Uiso   1.00
C1138  C     0.67901   0.15940   0.81659   0.00000  Uiso   1.00
C1139  C     0.98765   0.17393   0.85008   0.00000  Uiso   1.00
C1140  C     0.78562   0.01915   0.82141   0.00000  Uiso   1.00
C1141  C     0.88105   0.31419   0.84525   0.00000  Uiso   1.00
C1142  C     0.78656   0.30911   0.81924   0.00000  Uiso   1.00
H1143  H     0.68185   0.11335   0.76284   0.00000  Uiso   1.00
H1144  H     0.92966   0.25985   0.84741   0.00000  Uiso   1.00
H1145  H     0.95745   0.30745   0.82928   0.00000  Uiso   1.00
H1146  H     0.95288   0.30113   0.88800   0.00000  Uiso   1.00
H1147  H     0.94097   0.22444   0.71703   0.00000  Uiso   1.00
H1148  H     0.88831   0.25928   0.71634   0.00000  Uiso   1.00
H1149  H     0.90350   0.22344   0.75997   0.00000  Uiso   1.00
H1150  H     0.77836   0.07406   0.95032   0.00000  Uiso   1.00
H1151  H     0.72569   0.10890   0.94963   0.00000  Uiso   1.00
H1152  H     0.76316   0.10990   0.90670   0.00000  Uiso   1.00
H1153  H     0.95879   0.10736   0.78730   0.00000  Uiso   1.00
H1154  H     0.96706   0.15054   0.74954   0.00000  Uiso   1.00
H1155  H     0.98482   0.21998   0.90383   0.00000  Uiso   1.00
H1156  H     0.69961   0.18279   0.91713   0.00000  Uiso   1.00
H1157  H     0.70788   0.22597   0.87937   0.00000  Uiso   1.00
H1158  H     0.73700   0.07349   0.81926   0.00000  Uiso   1.00
H1159  H     0.71378   0.03220   0.77867   0.00000  Uiso   1.00
H1160  H     0.70921   0.02589   0.83739   0.00000  Uiso   1.00
I1161  I     0.71736   0.27198   0.79198   0.00000  Uiso   1.00
I1162  I     0.94930   0.06136   0.87469   0.00000  Uiso   1.00
I1163  I     0.90972   0.24348   0.95529   0.00000  Uiso   1.00
I1164  I     0.75694   0.08985   0.71137   0.00000  Uiso   1.00
N1165  N     0.83332   0.16666   0.95240   0.00000  Uiso   1.00
N1166  N     0.83335   0.16668   0.71427   0.00000  Uiso   1.00
O1167  O     0.83333   0.10558   0.87154   0.00000  Uiso   1.00
O1168  O     0.83334   0.22775   0.79513   0.00000  Uiso   1.00
O1169  O     0.83333   0.10559   0.79510   0.00000  Uiso   1.00
O1170  O     0.83334   0.22774   0.87157   0.00000  Uiso   1.00
O1171  O     0.75725   0.16666   0.86261   0.00000  Uiso   1.00
O1172  O     0.90942   0.16667   0.80405   0.00000  Uiso   1.00
O1173  O     0.75725   0.16667   0.78617   0.00000  Uiso   1.00
O1174  O     0.90942   0.16666   0.88050   0.00000  Uiso   1.00
Zn1175 Zn    0.83333   0.16666   0.88437   0.00000  Uiso   1.00
Zn1176 Zn    0.83333   0.16667   0.78229   0.00000  Uiso   1.00
C1177  C     0.16701   0.42033   0.83329   0.00000  Uiso   1.00
C1178  C     0.21344   0.35755   0.84742   0.00000  Uiso   1.00
C1179  C     0.16698   0.62391   0.83302   0.00000  Uiso   1.00
C1180  C     0.16635   0.37609   0.83364   0.00000  Uiso   1.00
C1181  C     0.19771   0.52866   0.69526   0.00000  Uiso   1.00
C1182  C     0.13562   0.47134   0.97141   0.00000  Uiso   1.00
C1183  C     0.19693   0.52893   0.98095   0.00000  Uiso   1.00
C1184  C     0.13641   0.47107   0.68572   0.00000  Uiso   1.00
C1185  C     0.31996   0.46468   0.77691   0.00000  Uiso   1.00
C1186  C     0.01338   0.53532   0.88976   0.00000  Uiso   1.00
C1187  C     0.06716   0.37240   0.81357   0.00000  Uiso   1.00
C1188  C     0.16632   0.57967   0.83338   0.00000  Uiso   1.00
C1189  C     0.26617   0.62760   0.85310   0.00000  Uiso   1.00
C1190  C     0.23409   0.56047   0.72390   0.00000  Uiso   1.00
C1191  C     0.09924   0.43953   0.94277   0.00000  Uiso   1.00
C1192  C     0.06735   0.49896   0.82159   0.00000  Uiso   1.00
C1193  C     0.26599   0.50103   0.84508   0.00000  Uiso   1.00
C1194  C     0.01235   0.49274   0.81659   0.00000  Uiso   1.00
C1195  C     0.32099   0.50726   0.85008   0.00000  Uiso   1.00
C1196  C     0.11895   0.35248   0.82141   0.00000  Uiso   1.00
C1197  C     0.21438   0.64752   0.84525   0.00000  Uiso   1.00
C1198  C     0.11989   0.64245   0.81924   0.00000  Uiso   1.00
H1199  H     0.01518   0.44669   0.76284   0.00000  Uiso   1.00
H1200  H     0.26300   0.59318   0.84741   0.00000  Uiso   1.00
H1201  H     0.29079   0.64078   0.82928   0.00000  Uiso   1.00
H1202  H     0.28622   0.63447   0.88800   0.00000  Uiso   1.00
H1203  H     0.27431   0.55777   0.71703   0.00000  Uiso   1.00
H1204  H     0.22164   0.59261   0.71634   0.00000  Uiso   1.00
H1205  H     0.23684   0.55677   0.75997   0.00000  Uiso   1.00
H1206  H     0.11169   0.40739   0.95032   0.00000  Uiso   1.00
H1207  H     0.05903   0.44223   0.94963   0.00000  Uiso   1.00
H1208  H     0.09650   0.44323   0.90670   0.00000  Uiso   1.00
H1209  H     0.29212   0.44069   0.78730   0.00000  Uiso   1.00
H1210  H     0.30039   0.48387   0.74954   0.00000  Uiso   1.00
H1211  H     0.31815   0.55331   0.90383   0.00000  Uiso   1.00
H1212  H     0.03294   0.51613   0.91713   0.00000  Uiso   1.00
H1213  H     0.04121   0.55931   0.87937   0.00000  Uiso   1.00
H1214  H     0.07034   0.40682   0.81926   0.00000  Uiso   1.00
H1215  H     0.04712   0.36553   0.77867   0.00000  Uiso   1.00
H1216  H     0.04255   0.35922   0.83739   0.00000  Uiso   1.00
I1217  I     0.05070   0.60531   0.79198   0.00000  Uiso   1.00
I1218  I     0.28264   0.39469   0.87469   0.00000  Uiso   1.00
I1219  I     0.24306   0.57682   0.95529   0.00000  Uiso   1.00
I1220  I     0.09028   0.42318   0.71137   0.00000  Uiso   1.00
N1221  N     0.16665   0.49999   0.95240   0.00000  Uiso   1.00
N1222  N     0.16668   0.50001   0.71427   0.00000  Uiso   1.00
O1223  O     0.16666   0.43892   0.87154   0.00000  Uiso   1.00
O1224  O     0.16667   0.56108   0.79513   0.00000  Uiso   1.00
O1225  O     0.16666   0.43893   0.79510   0.00000  Uiso   1.00
O1226  O     0.16667   0.56107   0.87157   0.00000  Uiso   1.00
O1227  O     0.09058   0.50000   0.86261   0.00000  Uiso   1.00
O1228  O     0.24275   0.50000   0.80405   0.00000  Uiso   1.00
O1229  O     0.09058   0.50000   0.78617   0.00000  Uiso   1.00
O1230  O     0.24275   0.50000   0.88050   0.00000  Uiso   1.00
Zn1231 Zn    0.16667   0.49999   0.88437   0.00000  Uiso   1.00
Zn1232 Zn    0.16667   0.50001   0.78229   0.00000  Uiso   1.00
C1233  C     0.50034   0.42033   0.83329   0.00000  Uiso   1.00
C1234  C     0.54678   0.35755   0.84742   0.00000  Uiso   1.00
C1235  C     0.50032   0.62391   0.83302   0.00000  Uiso   1.00
C1236  C     0.49968   0.37609   0.83364   0.00000  Uiso   1.00
C1237  C     0.53105   0.52866   0.69526   0.00000  Uiso   1.00
C1238  C     0.46895   0.47134   0.97141   0.00000  Uiso   1.00
C1239  C     0.53026   0.52893   0.98095   0.00000  Uiso   1.00
C1240  C     0.46974   0.47107   0.68572   0.00000  Uiso   1.00
C1241  C     0.65329   0.46468   0.77691   0.00000  Uiso   1.00
C1242  C     0.34671   0.53532   0.88976   0.00000  Uiso   1.00
C1243  C     0.40049   0.37240   0.81357   0.00000  Uiso   1.00
C1244  C     0.49966   0.57967   0.83338   0.00000  Uiso   1.00
C1245  C     0.59951   0.62760   0.85310   0.00000  Uiso   1.00
C1246  C     0.56743   0.56047   0.72390   0.00000  Uiso   1.00
C1247  C     0.43257   0.43953   0.94277   0.00000  Uiso   1.00
C1248  C     0.40068   0.49896   0.82159   0.00000  Uiso   1.00
C1249  C     0.59932   0.50103   0.84508   0.00000  Uiso   1.00
C1250  C     0.34568   0.49274   0.81659   0.00000  Uiso   1.00
C1251  C     0.65432   0.50726   0.85008   0.00000  Uiso   1.00
C1252  C     0.45228   0.35248   0.82141   0.00000  Uiso   1.00
C1253  C     0.54772   0.64752   0.84525   0.00000  Uiso   1.00
C1254  C     0.45322   0.64245   0.81924   0.00000  Uiso   1.00
H1255  H     0.34851   0.44669   0.76284   0.00000  Uiso   1.00
H1256  H     0.59633   0.59318   0.84741   0.00000  Uiso   1.00
H1257  H     0.62412   0.64078   0.82928   0.00000  Uiso   1.00
H1258  H     0.61955   0.63447   0.88800   0.00000  Uiso   1.00
H1259  H     0.60764   0.55777   0.71703   0.00000  Uiso   1.00
H1260  H     0.55497   0.59261   0.71634   0.00000  Uiso   1.00
H1261  H     0.57017   0.55677   0.75997   0.00000  Uiso   1.00
H1262  H     0.44503   0.40739   0.95032   0.00000  Uiso   1.00
H1263  H     0.39236   0.44223   0.94963   0.00000  Uiso   1.00
H1264  H     0.42983   0.44323   0.90670   0.00000  Uiso   1.00
H1265  H     0.62546   0.44069   0.78730   0.00000  Uiso   1.00
H1266  H     0.63372   0.48387   0.74954   0.00000  Uiso   1.00
H1267  H     0.65149   0.55331   0.90383   0.00000  Uiso   1.00
H1268  H     0.36628   0.51613   0.91713   0.00000  Uiso   1.00
H1269  H     0.37454   0.55931   0.87937   0.00000  Uiso   1.00
H1270  H     0.40367   0.40682   0.81926   0.00000  Uiso   1.00
H1271  H     0.38045   0.36553   0.77867   0.00000  Uiso   1.00
H1272  H     0.37588   0.35922   0.83739   0.00000  Uiso   1.00
I1273  I     0.38403   0.60531   0.79198   0.00000  Uiso   1.00
I1274  I     0.61597   0.39469   0.87469   0.00000  Uiso   1.00
I1275  I     0.57639   0.57682   0.95529   0.00000  Uiso   1.00
I1276  I     0.42361   0.42318   0.71137   0.00000  Uiso   1.00
N1277  N     0.49999   0.49999   0.95240   0.00000  Uiso   1.00
N1278  N     0.50001   0.50001   0.71427   0.00000  Uiso   1.00
O1279  O     0.50000   0.43892   0.87154   0.00000  Uiso   1.00
O1280  O     0.50000   0.56108   0.79513   0.00000  Uiso   1.00
O1281  O     0.50000   0.43893   0.79510   0.00000  Uiso   1.00
O1282  O     0.50000   0.56107   0.87157   0.00000  Uiso   1.00
O1283  O     0.42392   0.50000   0.86261   0.00000  Uiso   1.00
O1284  O     0.57608   0.50000   0.80405   0.00000  Uiso   1.00
O1285  O     0.42392   0.50000   0.78617   0.00000  Uiso   1.00
O1286  O     0.57608   0.50000   0.88050   0.00000  Uiso   1.00
Zn1287 Zn    0.50000   0.49999   0.88437   0.00000  Uiso   1.00
Zn1288 Zn    0.50000   0.50001   0.78229   0.00000  Uiso   1.00
C1289  C     0.83368   0.42033   0.83329   0.00000  Uiso   1.00
C1290  C     0.88011   0.35755   0.84742   0.00000  Uiso   1.00
C1291  C     0.83365   0.62391   0.83302   0.00000  Uiso   1.00
C1292  C     0.83302   0.37609   0.83364   0.00000  Uiso   1.00
C1293  C     0.86438   0.52866   0.69526   0.00000  Uiso   1.00
C1294  C     0.80229   0.47134   0.97141   0.00000  Uiso   1.00
C1295  C     0.86359   0.52893   0.98095   0.00000  Uiso   1.00
C1296  C     0.80307   0.47107   0.68572   0.00000  Uiso   1.00
C1297  C     0.98662   0.46468   0.77691   0.00000  Uiso   1.00
C1298  C     0.68004   0.53532   0.88976   0.00000  Uiso   1.00
C1299  C     0.73383   0.37240   0.81357   0.00000  Uiso   1.00
C1300  C     0.83299   0.57967   0.83338   0.00000  Uiso   1.00
C1301  C     0.93284   0.62760   0.85310   0.00000  Uiso   1.00
C1302  C     0.90076   0.56047   0.72390   0.00000  Uiso   1.00
C1303  C     0.76591   0.43953   0.94277   0.00000  Uiso   1.00
C1304  C     0.73401   0.49896   0.82159   0.00000  Uiso   1.00
C1305  C     0.93265   0.50103   0.84508   0.00000  Uiso   1.00
C1306  C     0.67901   0.49274   0.81659   0.00000  Uiso   1.00
C1307  C     0.98765   0.50726   0.85008   0.00000  Uiso   1.00
C1308  C     0.78562   0.35248   0.82141   0.00000  Uiso   1.00
C1309  C     0.88105   0.64752   0.84525   0.00000  Uiso   1.00
C1310  C     0.78656   0.64245   0.81924   0.00000  Uiso   1.00
H1311  H     0.68185   0.44669   0.76284   0.00000  Uiso   1.00
H1312  H     0.92966   0.59318   0.84741   0.00000  Uiso   1.00
H1313  H     0.95745   0.64078   0.82928   0.00000  Uiso   1.00
H1314  H     0.95288   0.63447   0.88800   0.00000  Uiso   1.00
H1315  H     0.94097   0.55777   0.71703   0.00000  Uiso   1.00
H1316  H     0.88831   0.59261   0.71634   0.00000  Uiso   1.00
H1317  H     0.90350   0.55677   0.75997   0.00000  Uiso   1.00
H1318  H     0.77836   0.40739   0.95032   0.00000  Uiso   1.00
H1319  H     0.72569   0.44223   0.94963   0.00000  Uiso   1.00
H1320  H     0.76316   0.44323   0.90670   0.00000  Uiso   1.00
H1321  H     0.95879   0.44069   0.78730   0.00000  Uiso   1.00
H1322  H     0.96706   0.48387   0.74954   0.00000  Uiso   1.00
H1323  H     0.98482   0.55331   0.90383   0.00000  Uiso   1.00
H1324  H     0.69961   0.51613   0.91713   0.00000  Uiso   1.00
H1325  H     0.70788   0.55931   0.87937   0.00000  Uiso   1.00
H1326  H     0.73700   0.40682   0.81926   0.00000  Uiso   1.00
H1327  H     0.71378   0.36553   0.77867   0.00000  Uiso   1.00
H1328  H     0.70921   0.35922   0.83739   0.00000  Uiso   1.00
I1329  I     0.71736   0.60531   0.79198   0.00000  Uiso   1.00
I1330  I     0.94930   0.39469   0.87469   0.00000  Uiso   1.00
I1331  I     0.90972   0.57682   0.95529   0.00000  Uiso   1.00
I1332  I     0.75694   0.42318   0.71137   0.00000  Uiso   1.00
N1333  N     0.83332   0.49999   0.95240   0.00000  Uiso   1.00
N1334  N     0.83335   0.50001   0.71427   0.00000  Uiso   1.00
O1335  O     0.83333   0.43892   0.87154   0.00000  Uiso   1.00
O1336  O     0.83334   0.56108   0.79513   0.00000  Uiso   1.00
O1337  O     0.83333   0.43893   0.79510   0.00000  Uiso   1.00
O1338  O     0.83334   0.56107   0.87157   0.00000  Uiso   1.00
O1339  O     0.75725   0.50000   0.86261   0.00000  Uiso   1.00
O1340  O     0.90942   0.50000   0.80405   0.00000  Uiso   1.00
O1341  O     0.75725   0.50000   0.78617   0.00000  Uiso   1.00
O1342  O     0.90942   0.50000   0.88050   0.00000  Uiso   1.00
Zn1343 Zn    0.83333   0.49999   0.88437   0.00000  Uiso   1.00
Zn1344 Zn    0.83333   0.50001   0.78229   0.00000  Uiso   1.00
C1345  C     0.16701   0.75366   0.83329   0.00000  Uiso   1.00
C1346  C     0.21344   0.69089   0.84742   0.00000  Uiso   1.00
C1347  C     0.16698   0.95725   0.83302   0.00000  Uiso   1.00
C1348  C     0.16635   0.70942   0.83364   0.00000  Uiso   1.00
C1349  C     0.19771   0.86199   0.69526   0.00000  Uiso   1.00
C1350  C     0.13562   0.80468   0.97141   0.00000  Uiso   1.00
C1351  C     0.19693   0.86227   0.98095   0.00000  Uiso   1.00
C1352  C     0.13641   0.80440   0.68572   0.00000  Uiso   1.00
C1353  C     0.31996   0.79802   0.77691   0.00000  Uiso   1.00
C1354  C     0.01338   0.86865   0.88976   0.00000  Uiso   1.00
C1355  C     0.06716   0.70573   0.81357   0.00000  Uiso   1.00
C1356  C     0.16632   0.91300   0.83338   0.00000  Uiso   1.00
C1357  C     0.26617   0.96093   0.85310   0.00000  Uiso   1.00
C1358  C     0.23409   0.89380   0.72390   0.00000  Uiso   1.00
C1359  C     0.09924   0.77287   0.94277   0.00000  Uiso   1.00
C1360  C     0.06735   0.83230   0.82159   0.00000  Uiso   1.00
C1361  C     0.26599   0.83437   0.84508   0.00000  Uiso   1.00
C1362  C     0.01235   0.82607   0.81659   0.00000  Uiso   1.00
C1363  C     0.32099   0.84060   0.85008   0.00000  Uiso   1.00
C1364  C     0.11895   0.68581   0.82141   0.00000  Uiso   1.00
C1365  C     0.21438   0.98085   0.84525   0.00000  Uiso   1.00
C1366  C     0.11989   0.97578   0.81924   0.00000  Uiso   1.00
H1367  H     0.01518   0.78002   0.76284   0.00000  Uiso   1.00
H1368  H     0.26300   0.92651   0.84741   0.00000  Uiso   1.00
H1369  H     0.29079   0.97411   0.82928   0.00000  Uiso   1.00
H1370  H     0.28622   0.96780   0.88800   0.00000  Uiso   1.00
H1371  H     0.27431   0.89110   0.71703   0.00000  Uiso   1.00
H1372  H     0.22164   0.92594   0.71634   0.00000  Uiso   1.00
H1373  H     0.23684   0.89010   0.75997   0.00000  Uiso   1.00
H1374  H     0.11169   0.74072   0.95032   0.00000  Uiso   1.00
H1375  H     0.05903   0.77556   0.94963   0.00000  Uiso   1.00
H1376  H     0.09650   0.77656   0.90670   0.00000  Uiso   1.00
H1377  H     0.29212   0.77402   0.78730   0.00000  Uiso   1.00
H1378  H     0.30039   0.81721   0.74954   0.00000  Uiso   1.00
H1379  H     0.31815   0.88665   0.90383   0.00000  Uiso   1.00
H1380  H     0.03294   0.84946   0.91713   0.00000  Uiso   1.00
H1381  H     0.04121   0.89264   0.87937   0.00000  Uiso   1.00
H1382  H     0.07034   0.74015   0.81926   0.00000  Uiso   1.00
H1383  H     0.04712   0.69887   0.77867   0.00000  Uiso   1.00
H1384  H     0.04255   0.69255   0.83739   0.00000  Uiso   1.00
I1385  I     0.05070   0.93864   0.79198   0.00000  Uiso   1.00
I1386  I     0.28264   0.72802   0.87469   0.00000  Uiso   1.00
I1387  I     0.24306   0.91015   0.95529   0.00000  Uiso   1.00
I1388  I     0.09028   0.75652   0.71137   0.00000  Uiso   1.00
N1389  N     0.16665   0.83332   0.95240   0.00000  Uiso   1.00
N1390  N     0.16668   0.83334   0.71427   0.00000  Uiso   1.00
O1391  O     0.16666   0.77225   0.87154   0.00000  Uiso   1.00
O1392  O     0.16667   0.89442   0.79513   0.00000  Uiso   1.00
O1393  O     0.16666   0.77226   0.79510   0.00000  Uiso   1.00
O1394  O     0.16667   0.89441   0.87157   0.00000  Uiso   1.00
O1395  O     0.09058   0.83333   0.86261   0.00000  Uiso   1.00
O1396  O     0.24275   0.83334   0.80405   0.00000  Uiso   1.00
O1397  O     0.09058   0.83334   0.78617   0.00000  Uiso   1.00
O1398  O     0.24275   0.83333   0.88050   0.00000  Uiso   1.00
Zn1399 Zn    0.16667   0.83333   0.88437   0.00000  Uiso   1.00
Zn1400 Zn    0.16667   0.83334   0.78229   0.00000  Uiso   1.00
C1401  C     0.50034   0.75366   0.83329   0.00000  Uiso   1.00
C1402  C     0.54678   0.69089   0.84742   0.00000  Uiso   1.00
C1403  C     0.50032   0.95725   0.83302   0.00000  Uiso   1.00
C1404  C     0.49968   0.70942   0.83364   0.00000  Uiso   1.00
C1405  C     0.53105   0.86199   0.69526   0.00000  Uiso   1.00
C1406  C     0.46895   0.80468   0.97141   0.00000  Uiso   1.00
C1407  C     0.53026   0.86227   0.98095   0.00000  Uiso   1.00
C1408  C     0.46974   0.80440   0.68572   0.00000  Uiso   1.00
C1409  C     0.65329   0.79802   0.77691   0.00000  Uiso   1.00
C1410  C     0.34671   0.86865   0.88976   0.00000  Uiso   1.00
C1411  C     0.40049   0.70573   0.81357   0.00000  Uiso   1.00
C1412  C     0.49966   0.91300   0.83338   0.00000  Uiso   1.00
C1413  C     0.59951   0.96093   0.85310   0.00000  Uiso   1.00
C1414  C     0.56743   0.89380   0.72390   0.00000  Uiso   1.00
C1415  C     0.43257   0.77287   0.94277   0.00000  Uiso   1.00
C1416  C     0.40068   0.83230   0.82159   0.00000  Uiso   1.00
C1417  C     0.59932   0.83437   0.84508   0.00000  Uiso   1.00
C1418  C     0.34568   0.82607   0.81659   0.00000  Uiso   1.00
C1419  C     0.65432   0.84060   0.85008   0.00000  Uiso   1.00
C1420  C     0.45228   0.68581   0.82141   0.00000  Uiso   1.00
C1421  C     0.54772   0.98085   0.84525   0.00000  Uiso   1.00
C1422  C     0.45322   0.97578   0.81924   0.00000  Uiso   1.00
H1423  H     0.34851   0.78002   0.76284   0.00000  Uiso   1.00
H1424  H     0.59633   0.92651   0.84741   0.00000  Uiso   1.00
H1425  H     0.62412   0.97411   0.82928   0.00000  Uiso   1.00
H1426  H     0.61955   0.96780   0.88800   0.00000  Uiso   1.00
H1427  H     0.60764   0.89110   0.71703   0.00000  Uiso   1.00
H1428  H     0.55497   0.92594   0.71634   0.00000  Uiso   1.00
H1429  H     0.57017   0.89010   0.75997   0.00000  Uiso   1.00
H1430  H     0.44503   0.74072   0.95032   0.00000  Uiso   1.00
H1431  H     0.39236   0.77556   0.94963   0.00000  Uiso   1.00
H1432  H     0.42983   0.77656   0.90670   0.00000  Uiso   1.00
H1433  H     0.62546   0.77402   0.78730   0.00000  Uiso   1.00
H1434  H     0.63372   0.81721   0.74954   0.00000  Uiso   1.00
H1435  H     0.65149   0.88665   0.90383   0.00000  Uiso   1.00
H1436  H     0.36628   0.84946   0.91713   0.00000  Uiso   1.00
H1437  H     0.37454   0.89264   0.87937   0.00000  Uiso   1.00
H1438  H     0.40367   0.74015   0.81926   0.00000  Uiso   1.00
H1439  H     0.38045   0.69887   0.77867   0.00000  Uiso   1.00
H1440  H     0.37588   0.69255   0.83739   0.00000  Uiso   1.00
I1441  I     0.38403   0.93864   0.79198   0.00000  Uiso   1.00
I1442  I     0.61597   0.72802   0.87469   0.00000  Uiso   1.00
I1443  I     0.57639   0.91015   0.95529   0.00000  Uiso   1.00
I1444  I     0.42361   0.75652   0.71137   0.00000  Uiso   1.00
N1445  N     0.49999   0.83332   0.95240   0.00000  Uiso   1.00
N1446  N     0.50001   0.83334   0.71427   0.00000  Uiso   1.00
O1447  O     0.50000   0.77225   0.87154   0.00000  Uiso   1.00
O1448  O     0.50000   0.89442   0.79513   0.00000  Uiso   1.00
O1449  O     0.50000   0.77226   0.79510   0.00000  Uiso   1.00
O1450  O     0.50000   0.89441   0.87157   0.00000  Uiso   1.00
O1451  O     0.42392   0.83333   0.86261   0.00000  Uiso   1.00
O1452  O     0.57608   0.83334   0.80405   0.00000  Uiso   1.00
O1453  O     0.42392   0.83334   0.78617   0.00000  Uiso   1.00
O1454  O     0.57608   0.83333   0.88050   0.00000  Uiso   1.00
Zn1455 Zn    0.50000   0.83333   0.88437   0.00000  Uiso   1.00
Zn1456 Zn    0.50000   0.83334   0.78229   0.00000  Uiso   1.00
C1457  C     0.83368   0.75366   0.83329   0.00000  Uiso   1.00
C1458  C     0.88011   0.69089   0.84742   0.00000  Uiso   1.00
C1459  C     0.83365   0.95725   0.83302   0.00000  Uiso   1.00
C1460  C     0.83302   0.70942   0.83364   0.00000  Uiso   1.00
C1461  C     0.86438   0.86199   0.69526   0.00000  Uiso   1.00
C1462  C     0.80229   0.80468   0.97141   0.00000  Uiso   1.00
C1463  C     0.86359   0.86227   0.98095   0.00000  Uiso   1.00
C1464  C     0.80307   0.80440   0.68572   0.00000  Uiso   1.00
C1465  C     0.98662   0.79802   0.77691   0.00000  Uiso   1.00
C1466  C     0.68004   0.86865   0.88976   0.00000  Uiso   1.00
C1467  C     0.73383   0.70573   0.81357   0.00000  Uiso   1.00
C1468  C     0.83299   0.91300   0.83338   0.00000  Uiso   1.00
C1469  C     0.93284   0.96093   0.85310   0.00000  Uiso   1.00
C1470  C     0.90076   0.89380   0.72390   0.00000  Uiso   1.00
C1471  C     0.76591   0.77287   0.94277   0.00000  Uiso   1.00
C1472  C     0.73401   0.83230   0.82159   0.00000  Uiso   1.00
C1473  C     0.93265   0.83437   0.84508   0.00000  Uiso   1.00
C1474  C     0.67901   0.82607   0.81659   0.00000  Uiso   1.00
C1475  C     0.98765   0.84060   0.85008   0.00000  Uiso   1.00
C1476  C     0.78562   0.68581   0.82141   0.00000  Uiso   1.00
C1477  C     0.88105   0.98085   0.84525   0.00000  Uiso   1.00
C1478  C     0.78656   0.97578   0.81924   0.00000  Uiso   1.00
H1479  H     0.68185   0.78002   0.76284   0.00000  Uiso   1.00
H1480  H     0.92966   0.92651   0.84741   0.00000  Uiso   1.00
H1481  H     0.95745   0.97411   0.82928   0.00000  Uiso   1.00
H1482  H     0.95288   0.96780   0.88800   0.00000  Uiso   1.00
H1483  H     0.94097   0.89110   0.71703   0.00000  Uiso   1.00
H1484  H     0.88831   0.92594   0.71634   0.00000  Uiso   1.00
H1485  H     0.90350   0.89010   0.75997   0.00000  Uiso   1.00
H1486  H     0.77836   0.74072   0.95032   0.00000  Uiso   1.00
H1487  H     0.72569   0.77556   0.94963   0.00000  Uiso   1.00
H1488  H     0.76316   0.77656   0.90670   0.00000  Uiso   1.00
H1489  H     0.95879   0.77402   0.78730   0.00000  Uiso   1.00
H1490  H     0.96706   0.81721   0.74954   0.00000  Uiso   1.00
H1491  H     0.98482   0.88665   0.90383   0.00000  Uiso   1.00
H1492  H     0.69961   0.84946   0.91713   0.00000  Uiso   1.00
H1493  H     0.70788   0.89264   0.87937   0.00000  Uiso   1.00
H1494  H     0.73700   0.74015   0.81926   0.00000  Uiso   1.00
H1495  H     0.71378   0.69887   0.77867   0.00000  Uiso   1.00
H1496  H     0.70921   0.69255   0.83739   0.00000  Uiso   1.00
I1497  I     0.71736   0.93864   0.79198   0.00000  Uiso   1.00
I1498  I     0.94930   0.72802   0.87469   0.00000  Uiso   1.00
I1499  I     0.90972   0.91015   0.95529   0.00000  Uiso   1.00
I1500  I     0.75694   0.75652   0.71137   0.00000  Uiso   1.00
N1501  N     0.83332   0.83332   0.95240   0.00000  Uiso   1.00
N1502  N     0.83335   0.83334   0.71427   0.00000  Uiso   1.00
O1503  O     0.83333   0.77225   0.87154   0.00000  Uiso   1.00
O1504  O     0.83334   0.89442   0.79513   0.00000  Uiso   1.00
O1505  O     0.83333   0.77226   0.79510   0.00000  Uiso   1.00
O1506  O     0.83334   0.89441   0.87157   0.00000  Uiso   1.00
O1507  O     0.75725   0.83333   0.86261   0.00000  Uiso   1.00
O1508  O     0.90942   0.83334   0.80405   0.00000  Uiso   1.00
O1509  O     0.75725   0.83334   0.78617   0.00000  Uiso   1.00
O1510  O     0.90942   0.83333   0.88050   0.00000  Uiso   1.00
Zn1511 Zn    0.83333   0.83333   0.88437   0.00000  Uiso   1.00
Zn1512 Zn    0.83333   0.83334   0.78229   0.00000  Uiso   1.00
loop_
_geom_bond_atom_site_label_1
_geom_bond_atom_site_label_2
_geom_bond_distance
_geom_bond_site_symmetry_2
_ccdc_geom_bond_type
C1     C4      1.412   .     S
C1     O49     1.300   .     A
C1     O47     1.288   .     A
C2     C4      1.401   .     A
C2     I42     2.145   .     S
C2     C357    1.387   1_545 S
C3     C21     1.406   .     A
C3     C22     1.401   .     A
C3     C12     1.412   .     S
C4     C20     1.406   .     A
C5     N46     1.378   .     A
C5     C14     1.510   .     S
C5     C1015   1.430   1_554 S
C6     N45     1.378   .     A
C6     C15     1.510   .     S
C6     C512    1.430   .     S
C7     I43     2.123   .     S
C7     N45     1.376   .     A
C7     C509    1.430   .     S
C8     N46     1.376   .     A
C8     I44     2.123   .     S
C8     C1014   1.430   1_554 S
C9     H33     1.109   .     S
C9     H34     1.110   .     S
C9     C74     1.524   .     S
C9     H79     1.099   .     S
C10    H37     1.109   .     S
C10    H36     1.110   .     S
C10    C131    1.524   1_455 S
C10    H147    1.099   1_455 S
C11    H38     1.106   .     S
C11    H40     1.109   .     S
C11    C20     1.514   .     S
C11    H39     1.109   .     S
C12    O50     1.300   .     A
C12    O48     1.288   .     A
C13    C21     1.514   .     S
C13    H25     1.109   .     S
C13    H26     1.109   .     S
C13    H24     1.106   .     S
C14    H27     1.110   .     S
C14    H29     1.085   .     S
C14    H28     1.110   .     S
C15    H31     1.110   .     S
C15    H32     1.085   .     S
C15    H30     1.110   .     S
C16    O51     1.285   .     A
C16    C18     1.423   .     S
C16    O53     1.308   .     A
C17    O52     1.285   .     A
C17    C19     1.423   .     S
C17    O54     1.308   .     A
C18    C121    1.524   1_455 S
C18    C131    1.369   1_455 S
C19    C66     1.524   .     S
C19    C74     1.369   .     S
C20    C358    1.387   1_545 S
C21    C170    1.387   .     S
C22    I41     2.145   .     S
C22    C188    1.387   .     S
H23    C121    1.099   1_455 S
H35    C66     1.099   .     S
N45    Zn55    2.047   .     S
N46    Zn56    2.047   .     S
O47    Zn55    1.982   .     S
O48    Zn56    1.982   .     S
O49    Zn56    1.994   .     S
O50    Zn55    1.994   .     S
O51    Zn55    1.991   .     S
O52    Zn56    1.991   .     S
O53    Zn56    2.009   .     S
O54    Zn55    2.009   .     S
C57    C60     1.412   .     S
C57    O105    1.300   .     A
C57    O103    1.288   .     A
C58    C60     1.401   .     A
C58    I98     2.145   .     S
C58    C413    1.387   1_545 S
C59    C77     1.406   .     A
C59    C78     1.401   .     A
C59    C68     1.412   .     S
C60    C76     1.406   .     A
C61    N102    1.378   .     A
C61    C70     1.510   .     S
C61    C1071   1.430   1_554 S
C62    N101    1.378   .     A
C62    C71     1.510   .     S
C62    C568    1.430   .     S
C63    I99     2.123   .     S
C63    N101    1.376   .     A
C63    C565    1.430   .     S
C64    N102    1.376   .     A
C64    I100    2.123   .     S
C64    C1070   1.430   1_554 S
C65    H89     1.109   .     S
C65    H90     1.110   .     S
C65    C130    1.524   .     S
C65    H135    1.099   .     S
C66    H93     1.109   .     S
C66    H92     1.110   .     S
C67    H94     1.106   .     S
C67    H96     1.109   .     S
C67    C76     1.514   .     S
C67    H95     1.109   .     S
C68    O106    1.300   .     A
C68    O104    1.288   .     A
C69    C77     1.514   .     S
C69    H81     1.109   .     S
C69    H82     1.109   .     S
C69    H80     1.106   .     S
C70    H83     1.110   .     S
C70    H85     1.085   .     S
C70    H84     1.110   .     S
C71    H87     1.110   .     S
C71    H88     1.085   .     S
C71    H86     1.110   .     S
C72    O107    1.285   .     A
C72    C74     1.423   .     S
C72    O109    1.308   .     A
C73    O108    1.285   .     A
C73    C75     1.423   .     S
C73    O110    1.308   .     A
C75    C122    1.524   .     S
C75    C130    1.369   .     S
C76    C414    1.387   1_545 S
C77    C226    1.387   .     S
C78    I97     2.145   .     S
C78    C244    1.387   .     S
H91    C122    1.099   .     S
N101   Zn111   2.047   .     S
N102   Zn112   2.047   .     S
O103   Zn111   1.982   .     S
O104   Zn112   1.982   .     S
O105   Zn112   1.994   .     S
O106   Zn111   1.994   .     S
O107   Zn111   1.991   .     S
O108   Zn112   1.991   .     S
O109   Zn112   2.009   .     S
O110   Zn111   2.009   .     S
C113   C116    1.412   .     S
C113   O161    1.300   .     A
C113   O159    1.288   .     A
C114   C116    1.401   .     A
C114   I154    2.145   .     S
C114   C469    1.387   1_545 S
C115   C133    1.406   .     A
C115   C134    1.401   .     A
C115   C124    1.412   .     S
C116   C132    1.406   .     A
C117   N158    1.378   .     A
C117   C126    1.510   .     S
C117   C1127   1.430   1_554 S
C118   N157    1.378   .     A
C118   C127    1.510   .     S
C118   C624    1.430   .     S
C119   I155    2.123   .     S
C119   N157    1.376   .     A
C119   C621    1.430   .     S
C120   N158    1.376   .     A
C120   I156    2.123   .     S
C120   C1126   1.430   1_554 S
C121   H145    1.109   .     S
C121   H146    1.110   .     S
C121   C18     1.524   1_655 S
C121   H23     1.099   1_655 S
C122   H149    1.109   .     S
C122   H148    1.110   .     S
C123   H150    1.106   .     S
C123   H152    1.109   .     S
C123   C132    1.514   .     S
C123   H151    1.109   .     S
C124   O162    1.300   .     A
C124   O160    1.288   .     A
C125   C133    1.514   .     S
C125   H137    1.109   .     S
C125   H138    1.109   .     S
C125   H136    1.106   .     S
C126   H139    1.110   .     S
C126   H141    1.085   .     S
C126   H140    1.110   .     S
C127   H143    1.110   .     S
C127   H144    1.085   .     S
C127   H142    1.110   .     S
C128   O163    1.285   .     A
C128   C130    1.423   .     S
C128   O165    1.308   .     A
C129   O164    1.285   .     A
C129   C131    1.423   .     S
C129   O166    1.308   .     A
C131   C10     1.524   1_655 S
C131   C18     1.369   1_655 S
C132   C470    1.387   1_545 S
C133   C282    1.387   .     S
C134   I153    2.145   .     S
C134   C300    1.387   .     S
H147   C10     1.099   1_655 S
N157   Zn167   2.047   .     S
N158   Zn168   2.047   .     S
O159   Zn167   1.982   .     S
O160   Zn168   1.982   .     S
O161   Zn168   1.994   .     S
O162   Zn167   1.994   .     S
O163   Zn167   1.991   .     S
O164   Zn168   1.991   .     S
O165   Zn168   2.009   .     S
O166   Zn167   2.009   .     S
C169   C172    1.412   .     S
C169   O217    1.300   .     A
C169   O215    1.288   .     A
C170   C172    1.401   .     A
C170   I210    2.145   .     S
C171   C189    1.406   .     A
C171   C190    1.401   .     A
C171   C180    1.412   .     S
C172   C188    1.406   .     A
C173   N214    1.378   .     A
C173   C182    1.510   .     S
C173   C1183   1.430   1_554 S
C174   N213    1.378   .     A
C174   C183    1.510   .     S
C174   C680    1.430   .     S
C175   I211    2.123   .     S
C175   N213    1.376   .     A
C175   C677    1.430   .     S
C176   N214    1.376   .     A
C176   I212    2.123   .     S
C176   C1182   1.430   1_554 S
C177   H201    1.109   .     S
C177   H202    1.110   .     S
C177   C242    1.524   .     S
C177   H247    1.099   .     S
C178   H205    1.109   .     S
C178   H204    1.110   .     S
C178   C299    1.524   1_455 S
C178   H315    1.099   1_455 S
C179   H206    1.106   .     S
C179   H208    1.109   .     S
C179   C188    1.514   .     S
C179   H207    1.109   .     S
C180   O218    1.300   .     A
C180   O216    1.288   .     A
C181   C189    1.514   .     S
C181   H193    1.109   .     S
C181   H194    1.109   .     S
C181   H192    1.106   .     S
C182   H195    1.110   .     S
C182   H197    1.085   .     S
C182   H196    1.110   .     S
C183   H199    1.110   .     S
C183   H200    1.085   .     S
C183   H198    1.110   .     S
C184   O219    1.285   .     A
C184   C186    1.423   .     S
C184   O221    1.308   .     A
C185   O220    1.285   .     A
C185   C187    1.423   .     S
C185   O222    1.308   .     A
C186   C289    1.524   1_455 S
C186   C299    1.369   1_455 S
C187   C234    1.524   .     S
C187   C242    1.369   .     S
C189   C338    1.387   .     S
C190   I209    2.145   .     S
C190   C356    1.387   .     S
H191   C289    1.099   1_455 S
H203   C234    1.099   .     S
N213   Zn223   2.047   .     S
N214   Zn224   2.047   .     S
O215   Zn223   1.982   .     S
O216   Zn224   1.982   .     S
O217   Zn224   1.994   .     S
O218   Zn223   1.994   .     S
O219   Zn223   1.991   .     S
O220   Zn224   1.991   .     S
O221   Zn224   2.009   .     S
O222   Zn223   2.009   .     S
C225   C228    1.412   .     S
C225   O273    1.300   .     A
C225   O271    1.288   .     A
C226   C228    1.401   .     A
C226   I266    2.145   .     S
C227   C245    1.406   .     A
C227   C246    1.401   .     A
C227   C236    1.412   .     S
C228   C244    1.406   .     A
C229   N270    1.378   .     A
C229   C238    1.510   .     S
C229   C1239   1.430   1_554 S
C230   N269    1.378   .     A
C230   C239    1.510   .     S
C230   C736    1.430   .     S
C231   I267    2.123   .     S
C231   N269    1.376   .     A
C231   C733    1.430   .     S
C232   N270    1.376   .     A
C232   I268    2.123   .     S
C232   C1238   1.430   1_554 S
C233   H257    1.109   .     S
C233   H258    1.110   .     S
C233   C298    1.524   .     S
C233   H303    1.099   .     S
C234   H261    1.109   .     S
C234   H260    1.110   .     S
C235   H262    1.106   .     S
C235   H264    1.109   .     S
C235   C244    1.514   .     S
C235   H263    1.109   .     S
C236   O274    1.300   .     A
C236   O272    1.288   .     A
C237   C245    1.514   .     S
C237   H249    1.109   .     S
C237   H250    1.109   .     S
C237   H248    1.106   .     S
C238   H251    1.110   .     S
C238   H253    1.085   .     S
C238   H252    1.110   .     S
C239   H255    1.110   .     S
C239   H256    1.085   .     S
C239   H254    1.110   .     S
C240   O275    1.285   .     A
C240   C242    1.423   .     S
C240   O277    1.308   .     A
C241   O276    1.285   .     A
C241   C243    1.423   .     S
C241   O278    1.308   .     A
C243   C290    1.524   .     S
C243   C298    1.369   .     S
C245   C394    1.387   .     S
C246   I265    2.145   .     S
C246   C412    1.387   .     S
H259   C290    1.099   .     S
N269   Zn279   2.047   .     S
N270   Zn280   2.047   .     S
O271   Zn279   1.982   .     S
O272   Zn280   1.982   .     S
O273   Zn280   1.994   .     S
O274   Zn279   1.994   .     S
O275   Zn279   1.991   .     S
O276   Zn280   1.991   .     S
O277   Zn280   2.009   .     S
O278   Zn279   2.009   .     S
C281   C284    1.412   .     S
C281   O329    1.300   .     A
C281   O327    1.288   .     A
C282   C284    1.401   .     A
C282   I322    2.145   .     S
C283   C301    1.406   .     A
C283   C302    1.401   .     A
C283   C292    1.412   .     S
C284   C300    1.406   .     A
C285   N326    1.378   .     A
C285   C294    1.510   .     S
C285   C1295   1.430   1_554 S
C286   N325    1.378   .     A
C286   C295    1.510   .     S
C286   C792    1.430   .     S
C287   I323    2.123   .     S
C287   N325    1.376   .     A
C287   C789    1.430   .     S
C288   N326    1.376   .     A
C288   I324    2.123   .     S
C288   C1294   1.430   1_554 S
C289   H313    1.109   .     S
C289   H314    1.110   .     S
C289   C186    1.524   1_655 S
C289   H191    1.099   1_655 S
C290   H317    1.109   .     S
C290   H316    1.110   .     S
C291   H318    1.106   .     S
C291   H320    1.109   .     S
C291   C300    1.514   .     S
C291   H319    1.109   .     S
C292   O330    1.300   .     A
C292   O328    1.288   .     A
C293   C301    1.514   .     S
C293   H305    1.109   .     S
C293   H306    1.109   .     S
C293   H304    1.106   .     S
C294   H307    1.110   .     S
C294   H309    1.085   .     S
C294   H308    1.110   .     S
C295   H311    1.110   .     S
C295   H312    1.085   .     S
C295   H310    1.110   .     S
C296   O331    1.285   .     A
C296   C298    1.423   .     S
C296   O333    1.308   .     A
C297   O332    1.285   .     A
C297   C299    1.423   .     S
C297   O334    1.308   .     A
C299   C178    1.524   1_655 S
C299   C186    1.369   1_655 S
C301   C450    1.387   .     S
C302   I321    2.145   .     S
C302   C468    1.387   .     S
H315   C178    1.099   1_655 S
N325   Zn335   2.047   .     S
N326   Zn336   2.047   .     S
O327   Zn335   1.982   .     S
O328   Zn336   1.982   .     S
O329   Zn336   1.994   .     S
O330   Zn335   1.994   .     S
O331   Zn335   1.991   .     S
O332   Zn336   1.991   .     S
O333   Zn336   2.009   .     S
O334   Zn335   2.009   .     S
C337   C340    1.412   .     S
C337   O385    1.300   .     A
C337   O383    1.288   .     A
C338   C340    1.401   .     A
C338   I378    2.145   .     S
C339   C357    1.406   .     A
C339   C358    1.401   .     A
C339   C348    1.412   .     S
C340   C356    1.406   .     A
C341   N382    1.378   .     A
C341   C350    1.510   .     S
C341   C1351   1.430   1_554 S
C342   N381    1.378   .     A
C342   C351    1.510   .     S
C342   C848    1.430   .     S
C343   I379    2.123   .     S
C343   N381    1.376   .     A
C343   C845    1.430   .     S
C344   N382    1.376   .     A
C344   I380    2.123   .     S
C344   C1350   1.430   1_554 S
C345   H369    1.109   .     S
C345   H370    1.110   .     S
C345   C410    1.524   .     S
C345   H415    1.099   .     S
C346   H373    1.109   .     S
C346   H372    1.110   .     S
C346   C467    1.524   1_455 S
C346   H483    1.099   1_455 S
C347   H374    1.106   .     S
C347   H376    1.109   .     S
C347   C356    1.514   .     S
C347   H375    1.109   .     S
C348   O386    1.300   .     A
C348   O384    1.288   .     A
C349   C357    1.514   .     S
C349   H361    1.109   .     S
C349   H362    1.109   .     S
C349   H360    1.106   .     S
C350   H363    1.110   .     S
C350   H365    1.085   .     S
C350   H364    1.110   .     S
C351   H367    1.110   .     S
C351   H368    1.085   .     S
C351   H366    1.110   .     S
C352   O387    1.285   .     A
C352   C354    1.423   .     S
C352   O389    1.308   .     A
C353   O388    1.285   .     A
C353   C355    1.423   .     S
C353   O390    1.308   .     A
C354   C457    1.524   1_455 S
C354   C467    1.369   1_455 S
C355   C402    1.524   .     S
C355   C410    1.369   .     S
C357   C2      1.387   1_565 S
C358   I377    2.145   .     S
C358   C20     1.387   1_565 S
H359   C457    1.099   1_455 S
H371   C402    1.099   .     S
N381   Zn391   2.047   .     S
N382   Zn392   2.047   .     S
O383   Zn391   1.982   .     S
O384   Zn392   1.982   .     S
O385   Zn392   1.994   .     S
O386   Zn391   1.994   .     S
O387   Zn391   1.991   .     S
O388   Zn392   1.991   .     S
O389   Zn392   2.009   .     S
O390   Zn391   2.009   .     S
C393   C396    1.412   .     S
C393   O441    1.300   .     A
C393   O439    1.288   .     A
C394   C396    1.401   .     A
C394   I434    2.145   .     S
C395   C413    1.406   .     A
C395   C414    1.401   .     A
C395   C404    1.412   .     S
C396   C412    1.406   .     A
C397   N438    1.378   .     A
C397   C406    1.510   .     S
C397   C1407   1.430   1_554 S
C398   N437    1.378   .     A
C398   C407    1.510   .     S
C398   C904    1.430   .     S
C399   I435    2.123   .     S
C399   N437    1.376   .     A
C399   C901    1.430   .     S
C400   N438    1.376   .     A
C400   I436    2.123   .     S
C400   C1406   1.430   1_554 S
C401   H425    1.109   .     S
C401   H426    1.110   .     S
C401   C466    1.524   .     S
C401   H471    1.099   .     S
C402   H429    1.109   .     S
C402   H428    1.110   .     S
C403   H430    1.106   .     S
C403   H432    1.109   .     S
C403   C412    1.514   .     S
C403   H431    1.109   .     S
C404   O442    1.300   .     A
C404   O440    1.288   .     A
C405   C413    1.514   .     S
C405   H417    1.109   .     S
C405   H418    1.109   .     S
C405   H416    1.106   .     S
C406   H419    1.110   .     S
C406   H421    1.085   .     S
C406   H420    1.110   .     S
C407   H423    1.110   .     S
C407   H424    1.085   .     S
C407   H422    1.110   .     S
C408   O443    1.285   .     A
C408   C410    1.423   .     S
C408   O445    1.308   .     A
C409   O444    1.285   .     A
C409   C411    1.423   .     S
C409   O446    1.308   .     A
C411   C458    1.524   .     S
C411   C466    1.369   .     S
C413   C58     1.387   1_565 S
C414   I433    2.145   .     S
C414   C76     1.387   1_565 S
H427   C458    1.099   .     S
N437   Zn447   2.047   .     S
N438   Zn448   2.047   .     S
O439   Zn447   1.982   .     S
O440   Zn448   1.982   .     S
O441   Zn448   1.994   .     S
O442   Zn447   1.994   .     S
O443   Zn447   1.991   .     S
O444   Zn448   1.991   .     S
O445   Zn448   2.009   .     S
O446   Zn447   2.009   .     S
C449   C452    1.412   .     S
C449   O497    1.300   .     A
C449   O495    1.288   .     A
C450   C452    1.401   .     A
C450   I490    2.145   .     S
C451   C469    1.406   .     A
C451   C470    1.401   .     A
C451   C460    1.412   .     S
C452   C468    1.406   .     A
C453   N494    1.378   .     A
C453   C462    1.510   .     S
C453   C1463   1.430   1_554 S
C454   N493    1.378   .     A
C454   C463    1.510   .     S
C454   C960    1.430   .     S
C455   I491    2.123   .     S
C455   N493    1.376   .     A
C455   C957    1.430   .     S
C456   N494    1.376   .     A
C456   I492    2.123   .     S
C456   C1462   1.430   1_554 S
C457   H481    1.109   .     S
C457   H482    1.110   .     S
C457   C354    1.524   1_655 S
C457   H359    1.099   1_655 S
C458   H485    1.109   .     S
C458   H484    1.110   .     S
C459   H486    1.106   .     S
C459   H488    1.109   .     S
C459   C468    1.514   .     S
C459   H487    1.109   .     S
C460   O498    1.300   .     A
C460   O496    1.288   .     A
C461   C469    1.514   .     S
C461   H473    1.109   .     S
C461   H474    1.109   .     S
C461   H472    1.106   .     S
C462   H475    1.110   .     S
C462   H477    1.085   .     S
C462   H476    1.110   .     S
C463   H479    1.110   .     S
C463   H480    1.085   .     S
C463   H478    1.110   .     S
C464   O499    1.285   .     A
C464   C466    1.423   .     S
C464   O501    1.308   .     A
C465   O500    1.285   .     A
C465   C467    1.423   .     S
C465   O502    1.308   .     A
C467   C346    1.524   1_655 S
C467   C354    1.369   1_655 S
C469   C114    1.387   1_565 S
C470   I489    2.145   .     S
C470   C132    1.387   1_565 S
H483   C346    1.099   1_655 S
N493   Zn503   2.047   .     S
N494   Zn504   2.047   .     S
O495   Zn503   1.982   .     S
O496   Zn504   1.982   .     S
O497   Zn504   1.994   .     S
O498   Zn503   1.994   .     S
O499   Zn503   1.991   .     S
O500   Zn504   1.991   .     S
O501   Zn504   2.009   .     S
O502   Zn503   2.009   .     S
C505   C508    1.412   .     S
C505   O553    1.300   .     A
C505   O551    1.288   .     A
C506   C508    1.401   .     A
C506   I546    2.145   .     S
C506   C861    1.387   1_545 S
C507   C525    1.406   .     A
C507   C526    1.401   .     A
C507   C516    1.412   .     S
C508   C524    1.406   .     A
C509   N550    1.378   .     A
C509   C518    1.510   .     S
C510   N549    1.378   .     A
C510   C519    1.510   .     S
C510   C1016   1.430   .     S
C511   I547    2.123   .     S
C511   N549    1.376   .     A
C511   C1013   1.430   .     S
C512   N550    1.376   .     A
C512   I548    2.123   .     S
C513   H537    1.109   .     S
C513   H538    1.110   .     S
C513   C578    1.524   .     S
C513   H583    1.099   .     S
C514   H541    1.109   .     S
C514   H540    1.110   .     S
C514   C635    1.524   1_455 S
C514   H651    1.099   1_455 S
C515   H542    1.106   .     S
C515   H544    1.109   .     S
C515   C524    1.514   .     S
C515   H543    1.109   .     S
C516   O554    1.300   .     A
C516   O552    1.288   .     A
C517   C525    1.514   .     S
C517   H529    1.109   .     S
C517   H530    1.109   .     S
C517   H528    1.106   .     S
C518   H531    1.110   .     S
C518   H533    1.085   .     S
C518   H532    1.110   .     S
C519   H535    1.110   .     S
C519   H536    1.085   .     S
C519   H534    1.110   .     S
C520   O555    1.285   .     A
C520   C522    1.423   .     S
C520   O557    1.308   .     A
C521   O556    1.285   .     A
C521   C523    1.423   .     S
C521   O558    1.308   .     A
C522   C625    1.524   1_455 S
C522   C635    1.369   1_455 S
C523   C570    1.524   .     S
C523   C578    1.369   .     S
C524   C862    1.387   1_545 S
C525   C674    1.387   .     S
C526   I545    2.145   .     S
C526   C692    1.387   .     S
H527   C625    1.099   1_455 S
H539   C570    1.099   .     S
N549   Zn559   2.047   .     S
N550   Zn560   2.047   .     S
O551   Zn559   1.982   .     S
O552   Zn560   1.982   .     S
O553   Zn560   1.994   .     S
O554   Zn559   1.994   .     S
O555   Zn559   1.991   .     S
O556   Zn560   1.991   .     S
O557   Zn560   2.009   .     S
O558   Zn559   2.009   .     S
C561   C564    1.412   .     S
C561   O609    1.300   .     A
C561   O607    1.288   .     A
C562   C564    1.401   .     A
C562   I602    2.145   .     S
C562   C917    1.387   1_545 S
C563   C581    1.406   .     A
C563   C582    1.401   .     A
C563   C572    1.412   .     S
C564   C580    1.406   .     A
C565   N606    1.378   .     A
C565   C574    1.510   .     S
C566   N605    1.378   .     A
C566   C575    1.510   .     S
C566   C1072   1.430   .     S
C567   I603    2.123   .     S
C567   N605    1.376   .     A
C567   C1069   1.430   .     S
C568   N606    1.376   .     A
C568   I604    2.123   .     S
C569   H593    1.109   .     S
C569   H594    1.110   .     S
C569   C634    1.524   .     S
C569   H639    1.099   .     S
C570   H597    1.109   .     S
C570   H596    1.110   .     S
C571   H598    1.106   .     S
C571   H600    1.109   .     S
C571   C580    1.514   .     S
C571   H599    1.109   .     S
C572   O610    1.300   .     A
C572   O608    1.288   .     A
C573   C581    1.514   .     S
C573   H585    1.109   .     S
C573   H586    1.109   .     S
C573   H584    1.106   .     S
C574   H587    1.110   .     S
C574   H589    1.085   .     S
C574   H588    1.110   .     S
C575   H591    1.110   .     S
C575   H592    1.085   .     S
C575   H590    1.110   .     S
C576   O611    1.285   .     A
C576   C578    1.423   .     S
C576   O613    1.308   .     A
C577   O612    1.285   .     A
C577   C579    1.423   .     S
C577   O614    1.308   .     A
C579   C626    1.524   .     S
C579   C634    1.369   .     S
C580   C918    1.387   1_545 S
C581   C730    1.387   .     S
C582   I601    2.145   .     S
C582   C748    1.387   .     S
H595   C626    1.099   .     S
N605   Zn615   2.047   .     S
N606   Zn616   2.047   .     S
O607   Zn615   1.982   .     S
O608   Zn616   1.982   .     S
O609   Zn616   1.994   .     S
O610   Zn615   1.994   .     S
O611   Zn615   1.991   .     S
O612   Zn616   1.991   .     S
O613   Zn616   2.009   .     S
O614   Zn615   2.009   .     S
C617   C620    1.412   .     S
C617   O665    1.300   .     A
C617   O663    1.288   .     A
C618   C620    1.401   .     A
C618   I658    2.145   .     S
C618   C973    1.387   1_545 S
C619   C637    1.406   .     A
C619   C638    1.401   .     A
C619   C628    1.412   .     S
C620   C636    1.406   .     A
C621   N662    1.378   .     A
C621   C630    1.510   .     S
C622   N661    1.378   .     A
C622   C631    1.510   .     S
C622   C1128   1.430   .     S
C623   I659    2.123   .     S
C623   N661    1.376   .     A
C623   C1125   1.430   .     S
C624   N662    1.376   .     A
C624   I660    2.123   .     S
C625   H649    1.109   .     S
C625   H650    1.110   .     S
C625   C522    1.524   1_655 S
C625   H527    1.099   1_655 S
C626   H653    1.109   .     S
C626   H652    1.110   .     S
C627   H654    1.106   .     S
C627   H656    1.109   .     S
C627   C636    1.514   .     S
C627   H655    1.109   .     S
C628   O666    1.300   .     A
C628   O664    1.288   .     A
C629   C637    1.514   .     S
C629   H641    1.109   .     S
C629   H642    1.109   .     S
C629   H640    1.106   .     S
C630   H643    1.110   .     S
C630   H645    1.085   .     S
C630   H644    1.110   .     S
C631   H647    1.110   .     S
C631   H648    1.085   .     S
C631   H646    1.110   .     S
C632   O667    1.285   .     A
C632   C634    1.423   .     S
C632   O669    1.308   .     A
C633   O668    1.285   .     A
C633   C635    1.423   .     S
C633   O670    1.308   .     A
C635   C514    1.524   1_655 S
C635   C522    1.369   1_655 S
C636   C974    1.387   1_545 S
C637   C786    1.387   .     S
C638   I657    2.145   .     S
C638   C804    1.387   .     S
H651   C514    1.099   1_655 S
N661   Zn671   2.047   .     S
N662   Zn672   2.047   .     S
O663   Zn671   1.982   .     S
O664   Zn672   1.982   .     S
O665   Zn672   1.994   .     S
O666   Zn671   1.994   .     S
O667   Zn671   1.991   .     S
O668   Zn672   1.991   .     S
O669   Zn672   2.009   .     S
O670   Zn671   2.009   .     S
C673   C676    1.412   .     S
C673   O721    1.300   .     A
C673   O719    1.288   .     A
C674   C676    1.401   .     A
C674   I714    2.145   .     S
C675   C693    1.406   .     A
C675   C694    1.401   .     A
C675   C684    1.412   .     S
C676   C692    1.406   .     A
C677   N718    1.378   .     A
C677   C686    1.510   .     S
C678   N717    1.378   .     A
C678   C687    1.510   .     S
C678   C1184   1.430   .     S
C679   I715    2.123   .     S
C679   N717    1.376   .     A
C679   C1181   1.430   .     S
C680   N718    1.376   .     A
C680   I716    2.123   .     S
C681   H705    1.109   .     S
C681   H706    1.110   .     S
C681   C746    1.524   .     S
C681   H751    1.099   .     S
C682   H709    1.109   .     S
C682   H708    1.110   .     S
C682   C803    1.524   1_455 S
C682   H819    1.099   1_455 S
C683   H710    1.106   .     S
C683   H712    1.109   .     S
C683   C692    1.514   .     S
C683   H711    1.109   .     S
C684   O722    1.300   .     A
C684   O720    1.288   .     A
C685   C693    1.514   .     S
C685   H697    1.109   .     S
C685   H698    1.109   .     S
C685   H696    1.106   .     S
C686   H699    1.110   .     S
C686   H701    1.085   .     S
C686   H700    1.110   .     S
C687   H703    1.110   .     S
C687   H704    1.085   .     S
C687   H702    1.110   .     S
C688   O723    1.285   .     A
C688   C690    1.423   .     S
C688   O725    1.308   .     A
C689   O724    1.285   .     A
C689   C691    1.423   .     S
C689   O726    1.308   .     A
C690   C793    1.524   1_455 S
C690   C803    1.369   1_455 S
C691   C738    1.524   .     S
C691   C746    1.369   .     S
C693   C842    1.387   .     S
C694   I713    2.145   .     S
C694   C860    1.387   .     S
H695   C793    1.099   1_455 S
H707   C738    1.099   .     S
N717   Zn727   2.047   .     S
N718   Zn728   2.047   .     S
O719   Zn727   1.982   .     S
O720   Zn728   1.982   .     S
O721   Zn728   1.994   .     S
O722   Zn727   1.994   .     S
O723   Zn727   1.991   .     S
O724   Zn728   1.991   .     S
O725   Zn728   2.009   .     S
O726   Zn727   2.009   .     S
C729   C732    1.412   .     S
C729   O777    1.300   .     A
C729   O775    1.288   .     A
C730   C732    1.401   .     A
C730   I770    2.145   .     S
C731   C749    1.406   .     A
C731   C750    1.401   .     A
C731   C740    1.412   .     S
C732   C748    1.406   .     A
C733   N774    1.378   .     A
C733   C742    1.510   .     S
C734   N773    1.378   .     A
C734   C743    1.510   .     S
C734   C1240   1.430   .     S
C735   I771    2.123   .     S
C735   N773    1.376   .     A
C735   C1237   1.430   .     S
C736   N774    1.376   .     A
C736   I772    2.123   .     S
C737   H761    1.109   .     S
C737   H762    1.110   .     S
C737   C802    1.524   .     S
C737   H807    1.099   .     S
C738   H765    1.109   .     S
C738   H764    1.110   .     S
C739   H766    1.106   .     S
C739   H768    1.109   .     S
C739   C748    1.514   .     S
C739   H767    1.109   .     S
C740   O778    1.300   .     A
C740   O776    1.288   .     A
C741   C749    1.514   .     S
C741   H753    1.109   .     S
C741   H754    1.109   .     S
C741   H752    1.106   .     S
C742   H755    1.110   .     S
C742   H757    1.085   .     S
C742   H756    1.110   .     S
C743   H759    1.110   .     S
C743   H760    1.085   .     S
C743   H758    1.110   .     S
C744   O779    1.285   .     A
C744   C746    1.423   .     S
C744   O781    1.308   .     A
C745   O780    1.285   .     A
C745   C747    1.423   .     S
C745   O782    1.308   .     A
C747   C794    1.524   .     S
C747   C802    1.369   .     S
C749   C898    1.387   .     S
C750   I769    2.145   .     S
C750   C916    1.387   .     S
H763   C794    1.099   .     S
N773   Zn783   2.047   .     S
N774   Zn784   2.047   .     S
O775   Zn783   1.982   .     S
O776   Zn784   1.982   .     S
O777   Zn784   1.994   .     S
O778   Zn783   1.994   .     S
O779   Zn783   1.991   .     S
O780   Zn784   1.991   .     S
O781   Zn784   2.009   .     S
O782   Zn783   2.009   .     S
C785   C788    1.412   .     S
C785   O833    1.300   .     A
C785   O831    1.288   .     A
C786   C788    1.401   .     A
C786   I826    2.145   .     S
C787   C805    1.406   .     A
C787   C806    1.401   .     A
C787   C796    1.412   .     S
C788   C804    1.406   .     A
C789   N830    1.378   .     A
C789   C798    1.510   .     S
C790   N829    1.378   .     A
C790   C799    1.510   .     S
C790   C1296   1.430   .     S
C791   I827    2.123   .     S
C791   N829    1.376   .     A
C791   C1293   1.430   .     S
C792   N830    1.376   .     A
C792   I828    2.123   .     S
C793   H817    1.109   .     S
C793   H818    1.110   .     S
C793   C690    1.524   1_655 S
C793   H695    1.099   1_655 S
C794   H821    1.109   .     S
C794   H820    1.110   .     S
C795   H822    1.106   .     S
C795   H824    1.109   .     S
C795   C804    1.514   .     S
C795   H823    1.109   .     S
C796   O834    1.300   .     A
C796   O832    1.288   .     A
C797   C805    1.514   .     S
C797   H809    1.109   .     S
C797   H810    1.109   .     S
C797   H808    1.106   .     S
C798   H811    1.110   .     S
C798   H813    1.085   .     S
C798   H812    1.110   .     S
C799   H815    1.110   .     S
C799   H816    1.085   .     S
C799   H814    1.110   .     S
C800   O835    1.285   .     A
C800   C802    1.423   .     S
C800   O837    1.308   .     A
C801   O836    1.285   .     A
C801   C803    1.423   .     S
C801   O838    1.308   .     A
C803   C682    1.524   1_655 S
C803   C690    1.369   1_655 S
C805   C954    1.387   .     S
C806   I825    2.145   .     S
C806   C972    1.387   .     S
H819   C682    1.099   1_655 S
N829   Zn839   2.047   .     S
N830   Zn840   2.047   .     S
O831   Zn839   1.982   .     S
O832   Zn840   1.982   .     S
O833   Zn840   1.994   .     S
O834   Zn839   1.994   .     S
O835   Zn839   1.991   .     S
O836   Zn840   1.991   .     S
O837   Zn840   2.009   .     S
O838   Zn839   2.009   .     S
C841   C844    1.412   .     S
C841   O889    1.300   .     A
C841   O887    1.288   .     A
C842   C844    1.401   .     A
C842   I882    2.145   .     S
C843   C861    1.406   .     A
C843   C862    1.401   .     A
C843   C852    1.412   .     S
C844   C860    1.406   .     A
C845   N886    1.378   .     A
C845   C854    1.510   .     S
C846   N885    1.378   .     A
C846   C855    1.510   .     S
C846   C1352   1.430   .     S
C847   I883    2.123   .     S
C847   N885    1.376   .     A
C847   C1349   1.430   .     S
C848   N886    1.376   .     A
C848   I884    2.123   .     S
C849   H873    1.109   .     S
C849   H874    1.110   .     S
C849   C914    1.524   .     S
C849   H919    1.099   .     S
C850   H877    1.109   .     S
C850   H876    1.110   .     S
C850   C971    1.524   1_455 S
C850   H987    1.099   1_455 S
C851   H878    1.106   .     S
C851   H880    1.109   .     S
C851   C860    1.514   .     S
C851   H879    1.109   .     S
C852   O890    1.300   .     A
C852   O888    1.288   .     A
C853   C861    1.514   .     S
C853   H865    1.109   .     S
C853   H866    1.109   .     S
C853   H864    1.106   .     S
C854   H867    1.110   .     S
C854   H869    1.085   .     S
C854   H868    1.110   .     S
C855   H871    1.110   .     S
C855   H872    1.085   .     S
C855   H870    1.110   .     S
C856   O891    1.285   .     A
C856   C858    1.423   .     S
C856   O893    1.308   .     A
C857   O892    1.285   .     A
C857   C859    1.423   .     S
C857   O894    1.308   .     A
C858   C961    1.524   1_455 S
C858   C971    1.369   1_455 S
C859   C906    1.524   .     S
C859   C914    1.369   .     S
C861   C506    1.387   1_565 S
C862   I881    2.145   .     S
C862   C524    1.387   1_565 S
H863   C961    1.099   1_455 S
H875   C906    1.099   .     S
N885   Zn895   2.047   .     S
N886   Zn896   2.047   .     S
O887   Zn895   1.982   .     S
O888   Zn896   1.982   .     S
O889   Zn896   1.994   .     S
O890   Zn895   1.994   .     S
O891   Zn895   1.991   .     S
O892   Zn896   1.991   .     S
O893   Zn896   2.009   .     S
O894   Zn895   2.009   .     S
C897   C900    1.412   .     S
C897   O945    1.300   .     A
C897   O943    1.288   .     A
C898   C900    1.401   .     A
C898   I938    2.145   .     S
C899   C917    1.406   .     A
C899   C918    1.401   .     A
C899   C908    1.412   .     S
C900   C916    1.406   .     A
C901   N942    1.378   .     A
C901   C910    1.510   .     S
C902   N941    1.378   .     A
C902   C911    1.510   .     S
C902   C1408   1.430   .     S
C903   I939    2.123   .     S
C903   N941    1.376   .     A
C903   C1405   1.430   .     S
C904   N942    1.376   .     A
C904   I940    2.123   .     S
C905   H929    1.109   .     S
C905   H930    1.110   .     S
C905   C970    1.524   .     S
C905   H975    1.099   .     S
C906   H933    1.109   .     S
C906   H932    1.110   .     S
C907   H934    1.106   .     S
C907   H936    1.109   .     S
C907   C916    1.514   .     S
C907   H935    1.109   .     S
C908   O946    1.300   .     A
C908   O944    1.288   .     A
C909   C917    1.514   .     S
C909   H921    1.109   .     S
C909   H922    1.109   .     S
C909   H920    1.106   .     S
C910   H923    1.110   .     S
C910   H925    1.085   .     S
C910   H924    1.110   .     S
C911   H927    1.110   .     S
C911   H928    1.085   .     S
C911   H926    1.110   .     S
C912   O947    1.285   .     A
C912   C914    1.423   .     S
C912   O949    1.308   .     A
C913   O948    1.285   .     A
C913   C915    1.423   .     S
C913   O950    1.308   .     A
C915   C962    1.524   .     S
C915   C970    1.369   .     S
C917   C562    1.387   1_565 S
C918   I937    2.145   .     S
C918   C580    1.387   1_565 S
H931   C962    1.099   .     S
N941   Zn951   2.047   .     S
N942   Zn952   2.047   .     S
O943   Zn951   1.982   .     S
O944   Zn952   1.982   .     S
O945   Zn952   1.994   .     S
O946   Zn951   1.994   .     S
O947   Zn951   1.991   .     S
O948   Zn952   1.991   .     S
O949   Zn952   2.009   .     S
O950   Zn951   2.009   .     S
C953   C956    1.412   .     S
C953   O1001   1.300   .     A
C953   O999    1.288   .     A
C954   C956    1.401   .     A
C954   I994    2.145   .     S
C955   C973    1.406   .     A
C955   C974    1.401   .     A
C955   C964    1.412   .     S
C956   C972    1.406   .     A
C957   N998    1.378   .     A
C957   C966    1.510   .     S
C958   N997    1.378   .     A
C958   C967    1.510   .     S
C958   C1464   1.430   .     S
C959   I995    2.123   .     S
C959   N997    1.376   .     A
C959   C1461   1.430   .     S
C960   N998    1.376   .     A
C960   I996    2.123   .     S
C961   H985    1.109   .     S
C961   H986    1.110   .     S
C961   C858    1.524   1_655 S
C961   H863    1.099   1_655 S
C962   H989    1.109   .     S
C962   H988    1.110   .     S
C963   H990    1.106   .     S
C963   H992    1.109   .     S
C963   C972    1.514   .     S
C963   H991    1.109   .     S
C964   O1002   1.300   .     A
C964   O1000   1.288   .     A
C965   C973    1.514   .     S
C965   H977    1.109   .     S
C965   H978    1.109   .     S
C965   H976    1.106   .     S
C966   H979    1.110   .     S
C966   H981    1.085   .     S
C966   H980    1.110   .     S
C967   H983    1.110   .     S
C967   H984    1.085   .     S
C967   H982    1.110   .     S
C968   O1003   1.285   .     A
C968   C970    1.423   .     S
C968   O1005   1.308   .     A
C969   O1004   1.285   .     A
C969   C971    1.423   .     S
C969   O1006   1.308   .     A
C971   C850    1.524   1_655 S
C971   C858    1.369   1_655 S
C973   C618    1.387   1_565 S
C974   I993    2.145   .     S
C974   C636    1.387   1_565 S
H987   C850    1.099   1_655 S
N997   Zn1007  2.047   .     S
N998   Zn1008  2.047   .     S
O999   Zn1007  1.982   .     S
O1000  Zn1008  1.982   .     S
O1001  Zn1008  1.994   .     S
O1002  Zn1007  1.994   .     S
O1003  Zn1007  1.991   .     S
O1004  Zn1008  1.991   .     S
O1005  Zn1008  2.009   .     S
O1006  Zn1007  2.009   .     S
C1009  C1012   1.412   .     S
C1009  O1057   1.300   .     A
C1009  O1055   1.288   .     A
C1010  C1012   1.401   .     A
C1010  I1050   2.145   .     S
C1010  C1365   1.387   1_545 S
C1011  C1029   1.406   .     A
C1011  C1030   1.401   .     A
C1011  C1020   1.412   .     S
C1012  C1028   1.406   .     A
C1013  N1054   1.378   .     A
C1013  C1022   1.510   .     S
C1014  N1053   1.378   .     A
C1014  C1023   1.510   .     S
C1014  C8      1.430   1_556 S
C1015  I1051   2.123   .     S
C1015  N1053   1.376   .     A
C1015  C5      1.430   1_556 S
C1016  N1054   1.376   .     A
C1016  I1052   2.123   .     S
C1017  H1041   1.109   .     S
C1017  H1042   1.110   .     S
C1017  C1082   1.524   .     S
C1017  H1087   1.099   .     S
C1018  H1045   1.109   .     S
C1018  H1044   1.110   .     S
C1018  C1139   1.524   1_455 S
C1018  H1155   1.099   1_455 S
C1019  H1046   1.106   .     S
C1019  H1048   1.109   .     S
C1019  C1028   1.514   .     S
C1019  H1047   1.109   .     S
C1020  O1058   1.300   .     A
C1020  O1056   1.288   .     A
C1021  C1029   1.514   .     S
C1021  H1033   1.109   .     S
C1021  H1034   1.109   .     S
C1021  H1032   1.106   .     S
C1022  H1035   1.110   .     S
C1022  H1037   1.085   .     S
C1022  H1036   1.110   .     S
C1023  H1039   1.110   .     S
C1023  H1040   1.085   .     S
C1023  H1038   1.110   .     S
C1024  O1059   1.285   .     A
C1024  C1026   1.423   .     S
C1024  O1061   1.308   .     A
C1025  O1060   1.285   .     A
C1025  C1027   1.423   .     S
C1025  O1062   1.308   .     A
C1026  C1129   1.524   1_455 S
C1026  C1139   1.369   1_455 S
C1027  C1074   1.524   .     S
C1027  C1082   1.369   .     S
C1028  C1366   1.387   1_545 S
C1029  C1178   1.387   .     S
C1030  I1049   2.145   .     S
C1030  C1196   1.387   .     S
H1031  C1129   1.099   1_455 S
H1043  C1074   1.099   .     S
N1053  Zn1063  2.047   .     S
N1054  Zn1064  2.047   .     S
O1055  Zn1063  1.982   .     S
O1056  Zn1064  1.982   .     S
O1057  Zn1064  1.994   .     S
O1058  Zn1063  1.994   .     S
O1059  Zn1063  1.991   .     S
O1060  Zn1064  1.991   .     S
O1061  Zn1064  2.009   .     S
O1062  Zn1063  2.009   .     S
C1065  C1068   1.412   .     S
C1065  O1113   1.300   .     A
C1065  O1111   1.288   .     A
C1066  C1068   1.401   .     A
C1066  I1106   2.145   .     S
C1066  C1421   1.387   1_545 S
C1067  C1085   1.406   .     A
C1067  C1086   1.401   .     A
C1067  C1076   1.412   .     S
C1068  C1084   1.406   .     A
C1069  N1110   1.378   .     A
C1069  C1078   1.510   .     S
C1070  N1109   1.378   .     A
C1070  C1079   1.510   .     S
C1070  C64     1.430   1_556 S
C1071  I1107   2.123   .     S
C1071  N1109   1.376   .     A
C1071  C61     1.430   1_556 S
C1072  N1110   1.376   .     A
C1072  I1108   2.123   .     S
C1073  H1097   1.109   .     S
C1073  H1098   1.110   .     S
C1073  C1138   1.524   .     S
C1073  H1143   1.099   .     S
C1074  H1101   1.109   .     S
C1074  H1100   1.110   .     S
C1075  H1102   1.106   .     S
C1075  H1104   1.109   .     S
C1075  C1084   1.514   .     S
C1075  H1103   1.109   .     S
C1076  O1114   1.300   .     A
C1076  O1112   1.288   .     A
C1077  C1085   1.514   .     S
C1077  H1089   1.109   .     S
C1077  H1090   1.109   .     S
C1077  H1088   1.106   .     S
C1078  H1091   1.110   .     S
C1078  H1093   1.085   .     S
C1078  H1092   1.110   .     S
C1079  H1095   1.110   .     S
C1079  H1096   1.085   .     S
C1079  H1094   1.110   .     S
C1080  O1115   1.285   .     A
C1080  C1082   1.423   .     S
C1080  O1117   1.308   .     A
C1081  O1116   1.285   .     A
C1081  C1083   1.423   .     S
C1081  O1118   1.308   .     A
C1083  C1130   1.524   .     S
C1083  C1138   1.369   .     S
C1084  C1422   1.387   1_545 S
C1085  C1234   1.387   .     S
C1086  I1105   2.145   .     S
C1086  C1252   1.387   .     S
H1099  C1130   1.099   .     S
N1109  Zn1119  2.047   .     S
N1110  Zn1120  2.047   .     S
O1111  Zn1119  1.982   .     S
O1112  Zn1120  1.982   .     S
O1113  Zn1120  1.994   .     S
O1114  Zn1119  1.994   .     S
O1115  Zn1119  1.991   .     S
O1116  Zn1120  1.991   .     S
O1117  Zn1120  2.009   .     S
O1118  Zn1119  2.009   .     S
C1121  C1124   1.412   .     S
C1121  O1169   1.300   .     A
C1121  O1167   1.288   .     A
C1122  C1124   1.401   .     A
C1122  I1162   2.145   .     S
C1122  C1477   1.387   1_545 S
C1123  C1141   1.406   .     A
C1123  C1142   1.401   .     A
C1123  C1132   1.412   .     S
C1124  C1140   1.406   .     A
C1125  N1166   1.378   .     A
C1125  C1134   1.510   .     S
C1126  N1165   1.378   .     A
C1126  C1135   1.510   .     S
C1126  C120    1.430   1_556 S
C1127  I1163   2.123   .     S
C1127  N1165   1.376   .     A
C1127  C117    1.430   1_556 S
C1128  N1166   1.376   .     A
C1128  I1164   2.123   .     S
C1129  H1153   1.109   .     S
C1129  H1154   1.110   .     S
C1129  C1026   1.524   1_655 S
C1129  H1031   1.099   1_655 S
C1130  H1157   1.109   .     S
C1130  H1156   1.110   .     S
C1131  H1158   1.106   .     S
C1131  H1160   1.109   .     S
C1131  C1140   1.514   .     S
C1131  H1159   1.109   .     S
C1132  O1170   1.300   .     A
C1132  O1168   1.288   .     A
C1133  C1141   1.514   .     S
C1133  H1145   1.109   .     S
C1133  H1146   1.109   .     S
C1133  H1144   1.106   .     S
C1134  H1147   1.110   .     S
C1134  H1149   1.085   .     S
C1134  H1148   1.110   .     S
C1135  H1151   1.110   .     S
C1135  H1152   1.085   .     S
C1135  H1150   1.110   .     S
C1136  O1171   1.285   .     A
C1136  C1138   1.423   .     S
C1136  O1173   1.308   .     A
C1137  O1172   1.285   .     A
C1137  C1139   1.423   .     S
C1137  O1174   1.308   .     A
C1139  C1018   1.524   1_655 S
C1139  C1026   1.369   1_655 S
C1140  C1478   1.387   1_545 S
C1141  C1290   1.387   .     S
C1142  I1161   2.145   .     S
C1142  C1308   1.387   .     S
H1155  C1018   1.099   1_655 S
N1165  Zn1175  2.047   .     S
N1166  Zn1176  2.047   .     S
O1167  Zn1175  1.982   .     S
O1168  Zn1176  1.982   .     S
O1169  Zn1176  1.994   .     S
O1170  Zn1175  1.994   .     S
O1171  Zn1175  1.991   .     S
O1172  Zn1176  1.991   .     S
O1173  Zn1176  2.009   .     S
O1174  Zn1175  2.009   .     S
C1177  C1180   1.412   .     S
C1177  O1225   1.300   .     A
C1177  O1223   1.288   .     A
C1178  C1180   1.401   .     A
C1178  I1218   2.145   .     S
C1179  C1197   1.406   .     A
C1179  C1198   1.401   .     A
C1179  C1188   1.412   .     S
C1180  C1196   1.406   .     A
C1181  N1222   1.378   .     A
C1181  C1190   1.510   .     S
C1182  N1221   1.378   .     A
C1182  C1191   1.510   .     S
C1182  C176    1.430   1_556 S
C1183  I1219   2.123   .     S
C1183  N1221   1.376   .     A
C1183  C173    1.430   1_556 S
C1184  N1222   1.376   .     A
C1184  I1220   2.123   .     S
C1185  H1209   1.109   .     S
C1185  H1210   1.110   .     S
C1185  C1250   1.524   .     S
C1185  H1255   1.099   .     S
C1186  H1213   1.109   .     S
C1186  H1212   1.110   .     S
C1186  C1307   1.524   1_455 S
C1186  H1323   1.099   1_455 S
C1187  H1214   1.106   .     S
C1187  H1216   1.109   .     S
C1187  C1196   1.514   .     S
C1187  H1215   1.109   .     S
C1188  O1226   1.300   .     A
C1188  O1224   1.288   .     A
C1189  C1197   1.514   .     S
C1189  H1201   1.109   .     S
C1189  H1202   1.109   .     S
C1189  H1200   1.106   .     S
C1190  H1203   1.110   .     S
C1190  H1205   1.085   .     S
C1190  H1204   1.110   .     S
C1191  H1207   1.110   .     S
C1191  H1208   1.085   .     S
C1191  H1206   1.110   .     S
C1192  O1227   1.285   .     A
C1192  C1194   1.423   .     S
C1192  O1229   1.308   .     A
C1193  O1228   1.285   .     A
C1193  C1195   1.423   .     S
C1193  O1230   1.308   .     A
C1194  C1297   1.524   1_455 S
C1194  C1307   1.369   1_455 S
C1195  C1242   1.524   .     S
C1195  C1250   1.369   .     S
C1197  C1346   1.387   .     S
C1198  I1217   2.145   .     S
C1198  C1364   1.387   .     S
H1199  C1297   1.099   1_455 S
H1211  C1242   1.099   .     S
N1221  Zn1231  2.047   .     S
N1222  Zn1232  2.047   .     S
O1223  Zn1231  1.982   .     S
O1224  Zn1232  1.982   .     S
O1225  Zn1232  1.994   .     S
O1226  Zn1231  1.994   .     S
O1227  Zn1231  1.991   .     S
O1228  Zn1232  1.991   .     S
O1229  Zn1232  2.009   .     S
O1230  Zn1231  2.009   .     S
C1233  C1236   1.412   .     S
C1233  O1281   1.300   .     A
C1233  O1279   1.288   .     A
C1234  C1236   1.401   .     A
C1234  I1274   2.145   .     S
C1235  C1253   1.406   .     A
C1235  C1254   1.401   .     A
C1235  C1244   1.412   .     S
C1236  C1252   1.406   .     A
C1237  N1278   1.378   .     A
C1237  C1246   1.510   .     S
C1238  N1277   1.378   .     A
C1238  C1247   1.510   .     S
C1238  C232    1.430   1_556 S
C1239  I1275   2.123   .     S
C1239  N1277   1.376   .     A
C1239  C229    1.430   1_556 S
C1240  N1278   1.376   .     A
C1240  I1276   2.123   .     S
C1241  H1265   1.109   .     S
C1241  H1266   1.110   .     S
C1241  C1306   1.524   .     S
C1241  H1311   1.099   .     S
C1242  H1269   1.109   .     S
C1242  H1268   1.110   .     S
C1243  H1270   1.106   .     S
C1243  H1272   1.109   .     S
C1243  C1252   1.514   .     S
C1243  H1271   1.109   .     S
C1244  O1282   1.300   .     A
C1244  O1280   1.288   .     A
C1245  C1253   1.514   .     S
C1245  H1257   1.109   .     S
C1245  H1258   1.109   .     S
C1245  H1256   1.106   .     S
C1246  H1259   1.110   .     S
C1246  H1261   1.085   .     S
C1246  H1260   1.110   .     S
C1247  H1263   1.110   .     S
C1247  H1264   1.085   .     S
C1247  H1262   1.110   .     S
C1248  O1283   1.285   .     A
C1248  C1250   1.423   .     S
C1248  O1285   1.308   .     A
C1249  O1284   1.285   .     A
C1249  C1251   1.423   .     S
C1249  O1286   1.308   .     A
C1251  C1298   1.524   .     S
C1251  C1306   1.369   .     S
C1253  C1402   1.387   .     S
C1254  I1273   2.145   .     S
C1254  C1420   1.387   .     S
H1267  C1298   1.099   .     S
N1277  Zn1287  2.047   .     S
N1278  Zn1288  2.047   .     S
O1279  Zn1287  1.982   .     S
O1280  Zn1288  1.982   .     S
O1281  Zn1288  1.994   .     S
O1282  Zn1287  1.994   .     S
O1283  Zn1287  1.991   .     S
O1284  Zn1288  1.991   .     S
O1285  Zn1288  2.009   .     S
O1286  Zn1287  2.009   .     S
C1289  C1292   1.412   .     S
C1289  O1337   1.300   .     A
C1289  O1335   1.288   .     A
C1290  C1292   1.401   .     A
C1290  I1330   2.145   .     S
C1291  C1309   1.406   .     A
C1291  C1310   1.401   .     A
C1291  C1300   1.412   .     S
C1292  C1308   1.406   .     A
C1293  N1334   1.378   .     A
C1293  C1302   1.510   .     S
C1294  N1333   1.378   .     A
C1294  C1303   1.510   .     S
C1294  C288    1.430   1_556 S
C1295  I1331   2.123   .     S
C1295  N1333   1.376   .     A
C1295  C285    1.430   1_556 S
C1296  N1334   1.376   .     A
C1296  I1332   2.123   .     S
C1297  H1321   1.109   .     S
C1297  H1322   1.110   .     S
C1297  C1194   1.524   1_655 S
C1297  H1199   1.099   1_655 S
C1298  H1325   1.109   .     S
C1298  H1324   1.110   .     S
C1299  H1326   1.106   .     S
C1299  H1328   1.109   .     S
C1299  C1308   1.514   .     S
C1299  H1327   1.109   .     S
C1300  O1338   1.300   .     A
C1300  O1336   1.288   .     A
C1301  C1309   1.514   .     S
C1301  H1313   1.109   .     S
C1301  H1314   1.109   .     S
C1301  H1312   1.106   .     S
C1302  H1315   1.110   .     S
C1302  H1317   1.085   .     S
C1302  H1316   1.110   .     S
C1303  H1319   1.110   .     S
C1303  H1320   1.085   .     S
C1303  H1318   1.110   .     S
C1304  O1339   1.285   .     A
C1304  C1306   1.423   .     S
C1304  O1341   1.308   .     A
C1305  O1340   1.285   .     A
C1305  C1307   1.423   .     S
C1305  O1342   1.308   .     A
C1307  C1186   1.524   1_655 S
C1307  C1194   1.369   1_655 S
C1309  C1458   1.387   .     S
C1310  I1329   2.145   .     S
C1310  C1476   1.387   .     S
H1323  C1186   1.099   1_655 S
N1333  Zn1343  2.047   .     S
N1334  Zn1344  2.047   .     S
O1335  Zn1343  1.982   .     S
O1336  Zn1344  1.982   .     S
O1337  Zn1344  1.994   .     S
O1338  Zn1343  1.994   .     S
O1339  Zn1343  1.991   .     S
O1340  Zn1344  1.991   .     S
O1341  Zn1344  2.009   .     S
O1342  Zn1343  2.009   .     S
C1345  C1348   1.412   .     S
C1345  O1393   1.300   .     A
C1345  O1391   1.288   .     A
C1346  C1348   1.401   .     A
C1346  I1386   2.145   .     S
C1347  C1365   1.406   .     A
C1347  C1366   1.401   .     A
C1347  C1356   1.412   .     S
C1348  C1364   1.406   .     A
C1349  N1390   1.378   .     A
C1349  C1358   1.510   .     S
C1350  N1389   1.378   .     A
C1350  C1359   1.510   .     S
C1350  C344    1.430   1_556 S
C1351  I1387   2.123   .     S
C1351  N1389   1.376   .     A
C1351  C341    1.430   1_556 S
C1352  N1390   1.376   .     A
C1352  I1388   2.123   .     S
C1353  H1377   1.109   .     S
C1353  H1378   1.110   .     S
C1353  C1418   1.524   .     S
C1353  H1423   1.099   .     S
C1354  H1381   1.109   .     S
C1354  H1380   1.110   .     S
C1354  C1475   1.524   1_455 S
C1354  H1491   1.099   1_455 S
C1355  H1382   1.106   .     S
C1355  H1384   1.109   .     S
C1355  C1364   1.514   .     S
C1355  H1383   1.109   .     S
C1356  O1394   1.300   .     A
C1356  O1392   1.288   .     A
C1357  C1365   1.514   .     S
C1357  H1369   1.109   .     S
C1357  H1370   1.109   .     S
C1357  H1368   1.106   .     S
C1358  H1371   1.110   .     S
C1358  H1373   1.085   .     S
C1358  H1372   1.110   .     S
C1359  H1375   1.110   .     S
C1359  H1376   1.085   .     S
C1359  H1374   1.110   .     S
C1360  O1395   1.285   .     A
C1360  C1362   1.423   .     S
C1360  O1397   1.308   .     A
C1361  O1396   1.285   .     A
C1361  C1363   1.423   .     S
C1361  O1398   1.308   .     A
C1362  C1465   1.524   1_455 S
C1362  C1475   1.369   1_455 S
C1363  C1410   1.524   .     S
C1363  C1418   1.369   .     S
C1365  C1010   1.387   1_565 S
C1366  I1385   2.145   .     S
C1366  C1028   1.387   1_565 S
H1367  C1465   1.099   1_455 S
H1379  C1410   1.099   .     S
N1389  Zn1399  2.047   .     S
N1390  Zn1400  2.047   .     S
O1391  Zn1399  1.982   .     S
O1392  Zn1400  1.982   .     S
O1393  Zn1400  1.994   .     S
O1394  Zn1399  1.994   .     S
O1395  Zn1399  1.991   .     S
O1396  Zn1400  1.991   .     S
O1397  Zn1400  2.009   .     S
O1398  Zn1399  2.009   .     S
C1401  C1404   1.412   .     S
C1401  O1449   1.300   .     A
C1401  O1447   1.288   .     A
C1402  C1404   1.401   .     A
C1402  I1442   2.145   .     S
C1403  C1421   1.406   .     A
C1403  C1422   1.401   .     A
C1403  C1412   1.412   .     S
C1404  C1420   1.406   .     A
C1405  N1446   1.378   .     A
C1405  C1414   1.510   .     S
C1406  N1445   1.378   .     A
C1406  C1415   1.510   .     S
C1406  C400    1.430   1_556 S
C1407  I1443   2.123   .     S
C1407  N1445   1.376   .     A
C1407  C397    1.430   1_556 S
C1408  N1446   1.376   .     A
C1408  I1444   2.123   .     S
C1409  H1433   1.109   .     S
C1409  H1434   1.110   .     S
C1409  C1474   1.524   .     S
C1409  H1479   1.099   .     S
C1410  H1437   1.109   .     S
C1410  H1436   1.110   .     S
C1411  H1438   1.106   .     S
C1411  H1440   1.109   .     S
C1411  C1420   1.514   .     S
C1411  H1439   1.109   .     S
C1412  O1450   1.300   .     A
C1412  O1448   1.288   .     A
C1413  C1421   1.514   .     S
C1413  H1425   1.109   .     S
C1413  H1426   1.109   .     S
C1413  H1424   1.106   .     S
C1414  H1427   1.110   .     S
C1414  H1429   1.085   .     S
C1414  H1428   1.110   .     S
C1415  H1431   1.110   .     S
C1415  H1432   1.085   .     S
C1415  H1430   1.110   .     S
C1416  O1451   1.285   .     A
C1416  C1418   1.423   .     S
C1416  O1453   1.308   .     A
C1417  O1452   1.285   .     A
C1417  C1419   1.423   .     S
C1417  O1454   1.308   .     A
C1419  C1466   1.524   .     S
C1419  C1474   1.369   .     S
C1421  C1066   1.387   1_565 S
C1422  I1441   2.145   .     S
C1422  C1084   1.387   1_565 S
H1435  C1466   1.099   .     S
N1445  Zn1455  2.047   .     S
N1446  Zn1456  2.047   .     S
O1447  Zn1455  1.982   .     S
O1448  Zn1456  1.982   .     S
O1449  Zn1456  1.994   .     S
O1450  Zn1455  1.994   .     S
O1451  Zn1455  1.991   .     S
O1452  Zn1456  1.991   .     S
O1453  Zn1456  2.009   .     S
O1454  Zn1455  2.009   .     S
C1457  C1460   1.412   .     S
C1457  O1505   1.300   .     A
C1457  O1503   1.288   .     A
C1458  C1460   1.401   .     A
C1458  I1498   2.145   .     S
C1459  C1477   1.406   .     A
C1459  C1478   1.401   .     A
C1459  C1468   1.412   .     S
C1460  C1476   1.406   .     A
C1461  N1502   1.378   .     A
C1461  C1470   1.510   .     S
C1462  N1501   1.378   .     A
C1462  C1471   1.510   .     S
C1462  C456    1.430   1_556 S
C1463  I1499   2.123   .     S
C1463  N1501   1.376   .     A
C1463  C453    1.430   1_556 S
C1464  N1502   1.376   .     A
C1464  I1500   2.123   .     S
C1465  H1489   1.109   .     S
C1465  H1490   1.110   .     S
C1465  C1362   1.524   1_655 S
C1465  H1367   1.099   1_655 S
C1466  H1493   1.109   .     S
C1466  H1492   1.110   .     S
C1467  H1494   1.106   .     S
C1467  H1496   1.109   .     S
C1467  C1476   1.514   .     S
C1467  H1495   1.109   .     S
C1468  O1506   1.300   .     A
C1468  O1504   1.288   .     A
C1469  C1477   1.514   .     S
C1469  H1481   1.109   .     S
C1469  H1482   1.109   .     S
C1469  H1480   1.106   .     S
C1470  H1483   1.110   .     S
C1470  H1485   1.085   .     S
C1470  H1484   1.110   .     S
C1471  H1487   1.110   .     S
C1471  H1488   1.085   .     S
C1471  H1486   1.110   .     S
C1472  O1507   1.285   .     A
C1472  C1474   1.423   .     S
C1472  O1509   1.308   .     A
C1473  O1508   1.285   .     A
C1473  C1475   1.423   .     S
C1473  O1510   1.308   .     A
C1475  C1354   1.524   1_655 S
C1475  C1362   1.369   1_655 S
C1477  C1122   1.387   1_565 S
C1478  I1497   2.145   .     S
C1478  C1140   1.387   1_565 S
H1491  C1354   1.099   1_655 S
N1501  Zn1511  2.047   .     S
N1502  Zn1512  2.047   .     S
O1503  Zn1511  1.982   .     S
O1504  Zn1512  1.982   .     S
O1505  Zn1512  1.994   .     S
O1506  Zn1511  1.994   .     S
O1507  Zn1511  1.991   .     S
O1508  Zn1512  1.991   .     S
O1509  Zn1512  2.009   .     S
O1510  Zn1511  2.009   .     S
