data_str_m3_o1_o10_pcu_sym.140
_audit_creation_date              2020-01-03
_audit_creation_method            'Materials Studio'
_symmetry_space_group_name_H-M    'P1'
_symmetry_Int_Tables_number       1
_symmetry_cell_setting            triclinic
loop_
_symmetry_equiv_pos_as_xyz
  x,y,z
_cell_length_a                    25.9098
_cell_length_b                    31.9979
_cell_length_c                    29.6064
_cell_angle_alpha                 89.5238
_cell_angle_beta                  98.3144
_cell_angle_gamma                 90.5655
loop_
_atom_site_label
_atom_site_type_symbol
_atom_site_fract_x
_atom_site_fract_y
_atom_site_fract_z
_atom_site_U_iso_or_equiv
_atom_site_adp_type
_atom_site_occupancy
C1     C     0.16747   0.08677   0.16694   0.00000  Uiso   1.00
C2     C     0.16586   0.24656   0.16640   0.00000  Uiso   1.00
C3     C     0.06723   0.16657   0.15488   0.00000  Uiso   1.00
C4     C     0.26610   0.16676   0.17845   0.00000  Uiso   1.00
C5     C     0.01259   0.16484   0.14854   0.00000  Uiso   1.00
C6     C     0.32074   0.16849   0.18479   0.00000  Uiso   1.00
C7     C     0.13464   0.02233   0.13290   0.00000  Uiso   1.00
C8     C     0.19869   0.31101   0.20044   0.00000  Uiso   1.00
C9     C     0.13301   0.31273   0.13204   0.00000  Uiso   1.00
C10    C     0.20031   0.02060   0.20130   0.00000  Uiso   1.00
C11    C     0.16547   0.29072   0.16602   0.00000  Uiso   1.00
C12    C     0.16786   0.04262   0.16731   0.00000  Uiso   1.00
C13    C     0.19816   0.19366   0.02746   0.00000  Uiso   1.00
C14    C     0.13517   0.13967   0.30587   0.00000  Uiso   1.00
C15    C     0.19806   0.19356   0.31289   0.00000  Uiso   1.00
C16    C     0.13527   0.13977   0.02044   0.00000  Uiso   1.00
H17    H     0.10942   0.04004   0.10730   0.00000  Uiso   1.00
H18    H     0.22390   0.29329   0.22603   0.00000  Uiso   1.00
H19    H     0.22307   0.21498   0.29737   0.00000  Uiso   1.00
H20    H     0.11026   0.11835   0.03596   0.00000  Uiso   1.00
N21    N     0.16665   0.16666   0.28573   0.00000  Uiso   1.00
N22    N     0.16668   0.16668   0.04760   0.00000  Uiso   1.00
O23    O     0.16666   0.10558   0.20487   0.00000  Uiso   1.00
O24    O     0.16667   0.22775   0.12846   0.00000  Uiso   1.00
O25    O     0.16666   0.10559   0.12843   0.00000  Uiso   1.00
O26    O     0.16667   0.22774   0.20490   0.00000  Uiso   1.00
O27    O     0.09058   0.16666   0.19595   0.00000  Uiso   1.00
O28    O     0.24275   0.16667   0.13739   0.00000  Uiso   1.00
O29    O     0.09058   0.16667   0.11950   0.00000  Uiso   1.00
O30    O     0.24275   0.16666   0.21383   0.00000  Uiso   1.00
Zn31   Zn    0.16667   0.16666   0.21771   0.00000  Uiso   1.00
Zn32   Zn    0.16667   0.16667   0.11563   0.00000  Uiso   1.00
F33    F     0.32159   0.15809   0.10514   0.00000  Uiso   1.00
F34    F     0.01175   0.17524   0.22819   0.00000  Uiso   1.00
C35    C     0.09660   0.29222   0.09735   0.00000  Uiso   1.00
N36    N     0.06748   0.27578   0.06963   0.00000  Uiso   1.00
C37    C     0.23668   0.04112   0.23602   0.00000  Uiso   1.00
N38    N     0.26577   0.05755   0.26377   0.00000  Uiso   1.00
C39    C     0.23188   0.22260   0.05478   0.00000  Uiso   1.00
N40    N     0.25912   0.24597   0.07659   0.00000  Uiso   1.00
C41    C     0.10145   0.11073   0.27855   0.00000  Uiso   1.00
N42    N     0.07421   0.08736   0.25674   0.00000  Uiso   1.00
C43    C     0.50080   0.08677   0.16694   0.00000  Uiso   1.00
C44    C     0.49919   0.24656   0.16640   0.00000  Uiso   1.00
C45    C     0.40057   0.16657   0.15488   0.00000  Uiso   1.00
C46    C     0.59943   0.16676   0.17845   0.00000  Uiso   1.00
C47    C     0.34592   0.16484   0.14854   0.00000  Uiso   1.00
C48    C     0.65407   0.16849   0.18479   0.00000  Uiso   1.00
C49    C     0.46797   0.02233   0.13290   0.00000  Uiso   1.00
C50    C     0.53202   0.31101   0.20044   0.00000  Uiso   1.00
C51    C     0.46634   0.31273   0.13204   0.00000  Uiso   1.00
C52    C     0.53364   0.02060   0.20130   0.00000  Uiso   1.00
C53    C     0.49880   0.29072   0.16602   0.00000  Uiso   1.00
C54    C     0.50119   0.04262   0.16731   0.00000  Uiso   1.00
C55    C     0.53149   0.19366   0.02746   0.00000  Uiso   1.00
C56    C     0.46851   0.13967   0.30587   0.00000  Uiso   1.00
C57    C     0.53140   0.19356   0.31289   0.00000  Uiso   1.00
C58    C     0.46860   0.13977   0.02044   0.00000  Uiso   1.00
H59    H     0.44276   0.04004   0.10730   0.00000  Uiso   1.00
H60    H     0.55724   0.29329   0.22603   0.00000  Uiso   1.00
H61    H     0.55641   0.21498   0.29737   0.00000  Uiso   1.00
H62    H     0.44359   0.11835   0.03596   0.00000  Uiso   1.00
N63    N     0.49999   0.16666   0.28573   0.00000  Uiso   1.00
N64    N     0.50001   0.16668   0.04760   0.00000  Uiso   1.00
O65    O     0.50000   0.10558   0.20487   0.00000  Uiso   1.00
O66    O     0.50000   0.22775   0.12846   0.00000  Uiso   1.00
O67    O     0.50000   0.10559   0.12843   0.00000  Uiso   1.00
O68    O     0.50000   0.22774   0.20490   0.00000  Uiso   1.00
O69    O     0.42392   0.16666   0.19595   0.00000  Uiso   1.00
O70    O     0.57608   0.16667   0.13739   0.00000  Uiso   1.00
O71    O     0.42392   0.16667   0.11950   0.00000  Uiso   1.00
O72    O     0.57608   0.16666   0.21383   0.00000  Uiso   1.00
Zn73   Zn    0.50000   0.16666   0.21771   0.00000  Uiso   1.00
Zn74   Zn    0.50000   0.16667   0.11563   0.00000  Uiso   1.00
F75    F     0.65492   0.15809   0.10514   0.00000  Uiso   1.00
F76    F     0.34508   0.17524   0.22819   0.00000  Uiso   1.00
C77    C     0.42994   0.29222   0.09735   0.00000  Uiso   1.00
N78    N     0.40081   0.27578   0.06963   0.00000  Uiso   1.00
C79    C     0.57001   0.04112   0.23602   0.00000  Uiso   1.00
N80    N     0.59910   0.05755   0.26377   0.00000  Uiso   1.00
C81    C     0.56522   0.22260   0.05478   0.00000  Uiso   1.00
N82    N     0.59245   0.24597   0.07659   0.00000  Uiso   1.00
C83    C     0.43478   0.11073   0.27855   0.00000  Uiso   1.00
N84    N     0.40755   0.08736   0.25674   0.00000  Uiso   1.00
C85    C     0.83414   0.08677   0.16694   0.00000  Uiso   1.00
C86    C     0.83253   0.24656   0.16640   0.00000  Uiso   1.00
C87    C     0.73390   0.16657   0.15488   0.00000  Uiso   1.00
C88    C     0.93277   0.16676   0.17845   0.00000  Uiso   1.00
C89    C     0.67926   0.16484   0.14854   0.00000  Uiso   1.00
C90    C     0.98741   0.16849   0.18479   0.00000  Uiso   1.00
C91    C     0.80130   0.02233   0.13290   0.00000  Uiso   1.00
C92    C     0.86536   0.31101   0.20044   0.00000  Uiso   1.00
C93    C     0.79968   0.31273   0.13204   0.00000  Uiso   1.00
C94    C     0.86697   0.02060   0.20130   0.00000  Uiso   1.00
C95    C     0.83214   0.29072   0.16602   0.00000  Uiso   1.00
C96    C     0.83452   0.04262   0.16731   0.00000  Uiso   1.00
C97    C     0.86483   0.19366   0.02746   0.00000  Uiso   1.00
C98    C     0.80184   0.13967   0.30587   0.00000  Uiso   1.00
C99    C     0.86473   0.19356   0.31289   0.00000  Uiso   1.00
C100   C     0.80194   0.13977   0.02044   0.00000  Uiso   1.00
H101   H     0.77609   0.04004   0.10730   0.00000  Uiso   1.00
H102   H     0.89057   0.29329   0.22603   0.00000  Uiso   1.00
H103   H     0.88974   0.21498   0.29737   0.00000  Uiso   1.00
H104   H     0.77693   0.11835   0.03596   0.00000  Uiso   1.00
N105   N     0.83332   0.16666   0.28573   0.00000  Uiso   1.00
N106   N     0.83335   0.16668   0.04760   0.00000  Uiso   1.00
O107   O     0.83333   0.10558   0.20487   0.00000  Uiso   1.00
O108   O     0.83334   0.22775   0.12846   0.00000  Uiso   1.00
O109   O     0.83333   0.10559   0.12843   0.00000  Uiso   1.00
O110   O     0.83334   0.22774   0.20490   0.00000  Uiso   1.00
O111   O     0.75725   0.16666   0.19595   0.00000  Uiso   1.00
O112   O     0.90942   0.16667   0.13739   0.00000  Uiso   1.00
O113   O     0.75725   0.16667   0.11950   0.00000  Uiso   1.00
O114   O     0.90942   0.16666   0.21383   0.00000  Uiso   1.00
Zn115  Zn    0.83333   0.16666   0.21771   0.00000  Uiso   1.00
Zn116  Zn    0.83333   0.16667   0.11563   0.00000  Uiso   1.00
F117   F     0.98825   0.15809   0.10514   0.00000  Uiso   1.00
F118   F     0.67841   0.17524   0.22819   0.00000  Uiso   1.00
C119   C     0.76327   0.29222   0.09735   0.00000  Uiso   1.00
N120   N     0.73415   0.27578   0.06963   0.00000  Uiso   1.00
C121   C     0.90334   0.04112   0.23602   0.00000  Uiso   1.00
N122   N     0.93244   0.05755   0.26377   0.00000  Uiso   1.00
C123   C     0.89855   0.22260   0.05478   0.00000  Uiso   1.00
N124   N     0.92579   0.24597   0.07659   0.00000  Uiso   1.00
C125   C     0.76812   0.11073   0.27855   0.00000  Uiso   1.00
N126   N     0.74088   0.08736   0.25674   0.00000  Uiso   1.00
C127   C     0.16747   0.42011   0.16694   0.00000  Uiso   1.00
C128   C     0.16586   0.57989   0.16640   0.00000  Uiso   1.00
C129   C     0.06723   0.49991   0.15488   0.00000  Uiso   1.00
C130   C     0.26610   0.50009   0.17845   0.00000  Uiso   1.00
C131   C     0.01259   0.49818   0.14854   0.00000  Uiso   1.00
C132   C     0.32074   0.50182   0.18479   0.00000  Uiso   1.00
C133   C     0.13464   0.35566   0.13290   0.00000  Uiso   1.00
C134   C     0.19869   0.64434   0.20044   0.00000  Uiso   1.00
C135   C     0.13301   0.64606   0.13204   0.00000  Uiso   1.00
C136   C     0.20031   0.35394   0.20130   0.00000  Uiso   1.00
C137   C     0.16547   0.62405   0.16602   0.00000  Uiso   1.00
C138   C     0.16786   0.37595   0.16731   0.00000  Uiso   1.00
C139   C     0.19816   0.52699   0.02746   0.00000  Uiso   1.00
C140   C     0.13517   0.47301   0.30587   0.00000  Uiso   1.00
C141   C     0.19806   0.52689   0.31289   0.00000  Uiso   1.00
C142   C     0.13527   0.47311   0.02044   0.00000  Uiso   1.00
H143   H     0.10942   0.37338   0.10730   0.00000  Uiso   1.00
H144   H     0.22390   0.62662   0.22603   0.00000  Uiso   1.00
H145   H     0.22307   0.54831   0.29737   0.00000  Uiso   1.00
H146   H     0.11026   0.45169   0.03596   0.00000  Uiso   1.00
N147   N     0.16665   0.49999   0.28573   0.00000  Uiso   1.00
N148   N     0.16668   0.50001   0.04760   0.00000  Uiso   1.00
O149   O     0.16666   0.43892   0.20487   0.00000  Uiso   1.00
O150   O     0.16667   0.56108   0.12846   0.00000  Uiso   1.00
O151   O     0.16666   0.43893   0.12843   0.00000  Uiso   1.00
O152   O     0.16667   0.56107   0.20490   0.00000  Uiso   1.00
O153   O     0.09058   0.50000   0.19595   0.00000  Uiso   1.00
O154   O     0.24275   0.50000   0.13739   0.00000  Uiso   1.00
O155   O     0.09058   0.50000   0.11950   0.00000  Uiso   1.00
O156   O     0.24275   0.50000   0.21383   0.00000  Uiso   1.00
Zn157  Zn    0.16667   0.49999   0.21771   0.00000  Uiso   1.00
Zn158  Zn    0.16667   0.50001   0.11563   0.00000  Uiso   1.00
F159   F     0.32159   0.49143   0.10514   0.00000  Uiso   1.00
F160   F     0.01175   0.50857   0.22819   0.00000  Uiso   1.00
C161   C     0.09660   0.62555   0.09735   0.00000  Uiso   1.00
N162   N     0.06748   0.60912   0.06963   0.00000  Uiso   1.00
C163   C     0.23668   0.37445   0.23602   0.00000  Uiso   1.00
N164   N     0.26577   0.39088   0.26377   0.00000  Uiso   1.00
C165   C     0.23188   0.55593   0.05478   0.00000  Uiso   1.00
N166   N     0.25912   0.57931   0.07659   0.00000  Uiso   1.00
C167   C     0.10145   0.44407   0.27855   0.00000  Uiso   1.00
N168   N     0.07421   0.42069   0.25674   0.00000  Uiso   1.00
C169   C     0.50080   0.42011   0.16694   0.00000  Uiso   1.00
C170   C     0.49919   0.57989   0.16640   0.00000  Uiso   1.00
C171   C     0.40057   0.49991   0.15488   0.00000  Uiso   1.00
C172   C     0.59943   0.50009   0.17845   0.00000  Uiso   1.00
C173   C     0.34592   0.49818   0.14854   0.00000  Uiso   1.00
C174   C     0.65407   0.50182   0.18479   0.00000  Uiso   1.00
C175   C     0.46797   0.35566   0.13290   0.00000  Uiso   1.00
C176   C     0.53202   0.64434   0.20044   0.00000  Uiso   1.00
C177   C     0.46634   0.64606   0.13204   0.00000  Uiso   1.00
C178   C     0.53364   0.35394   0.20130   0.00000  Uiso   1.00
C179   C     0.49880   0.62405   0.16602   0.00000  Uiso   1.00
C180   C     0.50119   0.37595   0.16731   0.00000  Uiso   1.00
C181   C     0.53149   0.52699   0.02746   0.00000  Uiso   1.00
C182   C     0.46851   0.47301   0.30587   0.00000  Uiso   1.00
C183   C     0.53140   0.52689   0.31289   0.00000  Uiso   1.00
C184   C     0.46860   0.47311   0.02044   0.00000  Uiso   1.00
H185   H     0.44276   0.37338   0.10730   0.00000  Uiso   1.00
H186   H     0.55724   0.62662   0.22603   0.00000  Uiso   1.00
H187   H     0.55641   0.54831   0.29737   0.00000  Uiso   1.00
H188   H     0.44359   0.45169   0.03596   0.00000  Uiso   1.00
N189   N     0.49999   0.49999   0.28573   0.00000  Uiso   1.00
N190   N     0.50001   0.50001   0.04760   0.00000  Uiso   1.00
O191   O     0.50000   0.43892   0.20487   0.00000  Uiso   1.00
O192   O     0.50000   0.56108   0.12846   0.00000  Uiso   1.00
O193   O     0.50000   0.43893   0.12843   0.00000  Uiso   1.00
O194   O     0.50000   0.56107   0.20490   0.00000  Uiso   1.00
O195   O     0.42392   0.50000   0.19595   0.00000  Uiso   1.00
O196   O     0.57608   0.50000   0.13739   0.00000  Uiso   1.00
O197   O     0.42392   0.50000   0.11950   0.00000  Uiso   1.00
O198   O     0.57608   0.50000   0.21383   0.00000  Uiso   1.00
Zn199  Zn    0.50000   0.49999   0.21771   0.00000  Uiso   1.00
Zn200  Zn    0.50000   0.50001   0.11563   0.00000  Uiso   1.00
F201   F     0.65492   0.49143   0.10514   0.00000  Uiso   1.00
F202   F     0.34508   0.50857   0.22819   0.00000  Uiso   1.00
C203   C     0.42994   0.62555   0.09735   0.00000  Uiso   1.00
N204   N     0.40081   0.60912   0.06963   0.00000  Uiso   1.00
C205   C     0.57001   0.37445   0.23602   0.00000  Uiso   1.00
N206   N     0.59910   0.39088   0.26377   0.00000  Uiso   1.00
C207   C     0.56522   0.55593   0.05478   0.00000  Uiso   1.00
N208   N     0.59245   0.57931   0.07659   0.00000  Uiso   1.00
C209   C     0.43478   0.44407   0.27855   0.00000  Uiso   1.00
N210   N     0.40755   0.42069   0.25674   0.00000  Uiso   1.00
C211   C     0.83414   0.42011   0.16694   0.00000  Uiso   1.00
C212   C     0.83253   0.57989   0.16640   0.00000  Uiso   1.00
C213   C     0.73390   0.49991   0.15488   0.00000  Uiso   1.00
C214   C     0.93277   0.50009   0.17845   0.00000  Uiso   1.00
C215   C     0.67926   0.49818   0.14854   0.00000  Uiso   1.00
C216   C     0.98741   0.50182   0.18479   0.00000  Uiso   1.00
C217   C     0.80130   0.35566   0.13290   0.00000  Uiso   1.00
C218   C     0.86536   0.64434   0.20044   0.00000  Uiso   1.00
C219   C     0.79968   0.64606   0.13204   0.00000  Uiso   1.00
C220   C     0.86697   0.35394   0.20130   0.00000  Uiso   1.00
C221   C     0.83214   0.62405   0.16602   0.00000  Uiso   1.00
C222   C     0.83452   0.37595   0.16731   0.00000  Uiso   1.00
C223   C     0.86483   0.52699   0.02746   0.00000  Uiso   1.00
C224   C     0.80184   0.47301   0.30587   0.00000  Uiso   1.00
C225   C     0.86473   0.52689   0.31289   0.00000  Uiso   1.00
C226   C     0.80194   0.47311   0.02044   0.00000  Uiso   1.00
H227   H     0.77609   0.37338   0.10730   0.00000  Uiso   1.00
H228   H     0.89057   0.62662   0.22603   0.00000  Uiso   1.00
H229   H     0.88974   0.54831   0.29737   0.00000  Uiso   1.00
H230   H     0.77693   0.45169   0.03596   0.00000  Uiso   1.00
N231   N     0.83332   0.49999   0.28573   0.00000  Uiso   1.00
N232   N     0.83335   0.50001   0.04760   0.00000  Uiso   1.00
O233   O     0.83333   0.43892   0.20487   0.00000  Uiso   1.00
O234   O     0.83334   0.56108   0.12846   0.00000  Uiso   1.00
O235   O     0.83333   0.43893   0.12843   0.00000  Uiso   1.00
O236   O     0.83334   0.56107   0.20490   0.00000  Uiso   1.00
O237   O     0.75725   0.50000   0.19595   0.00000  Uiso   1.00
O238   O     0.90942   0.50000   0.13739   0.00000  Uiso   1.00
O239   O     0.75725   0.50000   0.11950   0.00000  Uiso   1.00
O240   O     0.90942   0.50000   0.21383   0.00000  Uiso   1.00
Zn241  Zn    0.83333   0.49999   0.21771   0.00000  Uiso   1.00
Zn242  Zn    0.83333   0.50001   0.11563   0.00000  Uiso   1.00
F243   F     0.98825   0.49143   0.10514   0.00000  Uiso   1.00
F244   F     0.67841   0.50857   0.22819   0.00000  Uiso   1.00
C245   C     0.76327   0.62555   0.09735   0.00000  Uiso   1.00
N246   N     0.73415   0.60912   0.06963   0.00000  Uiso   1.00
C247   C     0.90334   0.37445   0.23602   0.00000  Uiso   1.00
N248   N     0.93244   0.39088   0.26377   0.00000  Uiso   1.00
C249   C     0.89855   0.55593   0.05478   0.00000  Uiso   1.00
N250   N     0.92579   0.57931   0.07659   0.00000  Uiso   1.00
C251   C     0.76812   0.44407   0.27855   0.00000  Uiso   1.00
N252   N     0.74088   0.42069   0.25674   0.00000  Uiso   1.00
C253   C     0.16747   0.75344   0.16694   0.00000  Uiso   1.00
C254   C     0.16586   0.91323   0.16640   0.00000  Uiso   1.00
C255   C     0.06723   0.83324   0.15488   0.00000  Uiso   1.00
C256   C     0.26610   0.83342   0.17845   0.00000  Uiso   1.00
C257   C     0.01259   0.83151   0.14854   0.00000  Uiso   1.00
C258   C     0.32074   0.83516   0.18479   0.00000  Uiso   1.00
C259   C     0.13464   0.68899   0.13290   0.00000  Uiso   1.00
C260   C     0.19869   0.97767   0.20044   0.00000  Uiso   1.00
C261   C     0.13301   0.97940   0.13204   0.00000  Uiso   1.00
C262   C     0.20031   0.68727   0.20130   0.00000  Uiso   1.00
C263   C     0.16547   0.95738   0.16602   0.00000  Uiso   1.00
C264   C     0.16786   0.70928   0.16731   0.00000  Uiso   1.00
C265   C     0.19816   0.86033   0.02746   0.00000  Uiso   1.00
C266   C     0.13517   0.80634   0.30587   0.00000  Uiso   1.00
C267   C     0.19806   0.86023   0.31289   0.00000  Uiso   1.00
C268   C     0.13527   0.80644   0.02044   0.00000  Uiso   1.00
H269   H     0.10942   0.70671   0.10730   0.00000  Uiso   1.00
H270   H     0.22390   0.95995   0.22603   0.00000  Uiso   1.00
H271   H     0.22307   0.88165   0.29737   0.00000  Uiso   1.00
H272   H     0.11026   0.78502   0.03596   0.00000  Uiso   1.00
N273   N     0.16665   0.83332   0.28573   0.00000  Uiso   1.00
N274   N     0.16668   0.83334   0.04760   0.00000  Uiso   1.00
O275   O     0.16666   0.77225   0.20487   0.00000  Uiso   1.00
O276   O     0.16667   0.89442   0.12846   0.00000  Uiso   1.00
O277   O     0.16666   0.77226   0.12843   0.00000  Uiso   1.00
O278   O     0.16667   0.89441   0.20490   0.00000  Uiso   1.00
O279   O     0.09058   0.83333   0.19595   0.00000  Uiso   1.00
O280   O     0.24275   0.83334   0.13739   0.00000  Uiso   1.00
O281   O     0.09058   0.83334   0.11950   0.00000  Uiso   1.00
O282   O     0.24275   0.83333   0.21383   0.00000  Uiso   1.00
Zn283  Zn    0.16667   0.83333   0.21771   0.00000  Uiso   1.00
Zn284  Zn    0.16667   0.83334   0.11563   0.00000  Uiso   1.00
F285   F     0.32159   0.82476   0.10514   0.00000  Uiso   1.00
F286   F     0.01175   0.84191   0.22819   0.00000  Uiso   1.00
C287   C     0.09660   0.95888   0.09735   0.00000  Uiso   1.00
N288   N     0.06748   0.94245   0.06963   0.00000  Uiso   1.00
C289   C     0.23668   0.70778   0.23602   0.00000  Uiso   1.00
N290   N     0.26577   0.72421   0.26377   0.00000  Uiso   1.00
C291   C     0.23188   0.88927   0.05478   0.00000  Uiso   1.00
N292   N     0.25912   0.91264   0.07659   0.00000  Uiso   1.00
C293   C     0.10145   0.77740   0.27855   0.00000  Uiso   1.00
N294   N     0.07421   0.75403   0.25674   0.00000  Uiso   1.00
C295   C     0.50080   0.75344   0.16694   0.00000  Uiso   1.00
C296   C     0.49919   0.91323   0.16640   0.00000  Uiso   1.00
C297   C     0.40057   0.83324   0.15488   0.00000  Uiso   1.00
C298   C     0.59943   0.83342   0.17845   0.00000  Uiso   1.00
C299   C     0.34592   0.83151   0.14854   0.00000  Uiso   1.00
C300   C     0.65407   0.83516   0.18479   0.00000  Uiso   1.00
C301   C     0.46797   0.68899   0.13290   0.00000  Uiso   1.00
C302   C     0.53202   0.97767   0.20044   0.00000  Uiso   1.00
C303   C     0.46634   0.97940   0.13204   0.00000  Uiso   1.00
C304   C     0.53364   0.68727   0.20130   0.00000  Uiso   1.00
C305   C     0.49880   0.95738   0.16602   0.00000  Uiso   1.00
C306   C     0.50119   0.70928   0.16731   0.00000  Uiso   1.00
C307   C     0.53149   0.86033   0.02746   0.00000  Uiso   1.00
C308   C     0.46851   0.80634   0.30587   0.00000  Uiso   1.00
C309   C     0.53140   0.86023   0.31289   0.00000  Uiso   1.00
C310   C     0.46860   0.80644   0.02044   0.00000  Uiso   1.00
H311   H     0.44276   0.70671   0.10730   0.00000  Uiso   1.00
H312   H     0.55724   0.95995   0.22603   0.00000  Uiso   1.00
H313   H     0.55641   0.88165   0.29737   0.00000  Uiso   1.00
H314   H     0.44359   0.78502   0.03596   0.00000  Uiso   1.00
N315   N     0.49999   0.83332   0.28573   0.00000  Uiso   1.00
N316   N     0.50001   0.83334   0.04760   0.00000  Uiso   1.00
O317   O     0.50000   0.77225   0.20487   0.00000  Uiso   1.00
O318   O     0.50000   0.89442   0.12846   0.00000  Uiso   1.00
O319   O     0.50000   0.77226   0.12843   0.00000  Uiso   1.00
O320   O     0.50000   0.89441   0.20490   0.00000  Uiso   1.00
O321   O     0.42392   0.83333   0.19595   0.00000  Uiso   1.00
O322   O     0.57608   0.83334   0.13739   0.00000  Uiso   1.00
O323   O     0.42392   0.83334   0.11950   0.00000  Uiso   1.00
O324   O     0.57608   0.83333   0.21383   0.00000  Uiso   1.00
Zn325  Zn    0.50000   0.83333   0.21771   0.00000  Uiso   1.00
Zn326  Zn    0.50000   0.83334   0.11563   0.00000  Uiso   1.00
F327   F     0.65492   0.82476   0.10514   0.00000  Uiso   1.00
F328   F     0.34508   0.84191   0.22819   0.00000  Uiso   1.00
C329   C     0.42994   0.95888   0.09735   0.00000  Uiso   1.00
N330   N     0.40081   0.94245   0.06963   0.00000  Uiso   1.00
C331   C     0.57001   0.70778   0.23602   0.00000  Uiso   1.00
N332   N     0.59910   0.72421   0.26377   0.00000  Uiso   1.00
C333   C     0.56522   0.88927   0.05478   0.00000  Uiso   1.00
N334   N     0.59245   0.91264   0.07659   0.00000  Uiso   1.00
C335   C     0.43478   0.77740   0.27855   0.00000  Uiso   1.00
N336   N     0.40755   0.75403   0.25674   0.00000  Uiso   1.00
C337   C     0.83414   0.75344   0.16694   0.00000  Uiso   1.00
C338   C     0.83253   0.91323   0.16640   0.00000  Uiso   1.00
C339   C     0.73390   0.83324   0.15488   0.00000  Uiso   1.00
C340   C     0.93277   0.83342   0.17845   0.00000  Uiso   1.00
C341   C     0.67926   0.83151   0.14854   0.00000  Uiso   1.00
C342   C     0.98741   0.83516   0.18479   0.00000  Uiso   1.00
C343   C     0.80130   0.68899   0.13290   0.00000  Uiso   1.00
C344   C     0.86536   0.97767   0.20044   0.00000  Uiso   1.00
C345   C     0.79968   0.97940   0.13204   0.00000  Uiso   1.00
C346   C     0.86697   0.68727   0.20130   0.00000  Uiso   1.00
C347   C     0.83214   0.95738   0.16602   0.00000  Uiso   1.00
C348   C     0.83452   0.70928   0.16731   0.00000  Uiso   1.00
C349   C     0.86483   0.86033   0.02746   0.00000  Uiso   1.00
C350   C     0.80184   0.80634   0.30587   0.00000  Uiso   1.00
C351   C     0.86473   0.86023   0.31289   0.00000  Uiso   1.00
C352   C     0.80194   0.80644   0.02044   0.00000  Uiso   1.00
H353   H     0.77609   0.70671   0.10730   0.00000  Uiso   1.00
H354   H     0.89057   0.95995   0.22603   0.00000  Uiso   1.00
H355   H     0.88974   0.88165   0.29737   0.00000  Uiso   1.00
H356   H     0.77693   0.78502   0.03596   0.00000  Uiso   1.00
N357   N     0.83332   0.83332   0.28573   0.00000  Uiso   1.00
N358   N     0.83335   0.83334   0.04760   0.00000  Uiso   1.00
O359   O     0.83333   0.77225   0.20487   0.00000  Uiso   1.00
O360   O     0.83334   0.89442   0.12846   0.00000  Uiso   1.00
O361   O     0.83333   0.77226   0.12843   0.00000  Uiso   1.00
O362   O     0.83334   0.89441   0.20490   0.00000  Uiso   1.00
O363   O     0.75725   0.83333   0.19595   0.00000  Uiso   1.00
O364   O     0.90942   0.83334   0.13739   0.00000  Uiso   1.00
O365   O     0.75725   0.83334   0.11950   0.00000  Uiso   1.00
O366   O     0.90942   0.83333   0.21383   0.00000  Uiso   1.00
Zn367  Zn    0.83333   0.83333   0.21771   0.00000  Uiso   1.00
Zn368  Zn    0.83333   0.83334   0.11563   0.00000  Uiso   1.00
F369   F     0.98825   0.82476   0.10514   0.00000  Uiso   1.00
F370   F     0.67841   0.84191   0.22819   0.00000  Uiso   1.00
C371   C     0.76327   0.95888   0.09735   0.00000  Uiso   1.00
N372   N     0.73415   0.94245   0.06963   0.00000  Uiso   1.00
C373   C     0.90334   0.70778   0.23602   0.00000  Uiso   1.00
N374   N     0.93244   0.72421   0.26377   0.00000  Uiso   1.00
C375   C     0.89855   0.88927   0.05478   0.00000  Uiso   1.00
N376   N     0.92579   0.91264   0.07659   0.00000  Uiso   1.00
C377   C     0.76812   0.77740   0.27855   0.00000  Uiso   1.00
N378   N     0.74088   0.75403   0.25674   0.00000  Uiso   1.00
C379   C     0.16747   0.08677   0.50027   0.00000  Uiso   1.00
C380   C     0.16586   0.24656   0.49973   0.00000  Uiso   1.00
C381   C     0.06723   0.16657   0.48821   0.00000  Uiso   1.00
C382   C     0.26610   0.16676   0.51179   0.00000  Uiso   1.00
C383   C     0.01259   0.16484   0.48187   0.00000  Uiso   1.00
C384   C     0.32074   0.16849   0.51813   0.00000  Uiso   1.00
C385   C     0.13464   0.02233   0.46623   0.00000  Uiso   1.00
C386   C     0.19869   0.31101   0.53377   0.00000  Uiso   1.00
C387   C     0.13301   0.31273   0.46537   0.00000  Uiso   1.00
C388   C     0.20031   0.02060   0.53464   0.00000  Uiso   1.00
C389   C     0.16547   0.29072   0.49936   0.00000  Uiso   1.00
C390   C     0.16786   0.04262   0.50064   0.00000  Uiso   1.00
C391   C     0.19816   0.19366   0.36080   0.00000  Uiso   1.00
C392   C     0.13517   0.13967   0.63920   0.00000  Uiso   1.00
C393   C     0.19806   0.19356   0.64623   0.00000  Uiso   1.00
C394   C     0.13527   0.13977   0.35377   0.00000  Uiso   1.00
H395   H     0.10942   0.04004   0.44064   0.00000  Uiso   1.00
H396   H     0.22390   0.29329   0.55936   0.00000  Uiso   1.00
H397   H     0.22307   0.21498   0.63071   0.00000  Uiso   1.00
H398   H     0.11026   0.11835   0.36929   0.00000  Uiso   1.00
N399   N     0.16665   0.16666   0.61907   0.00000  Uiso   1.00
N400   N     0.16668   0.16668   0.38093   0.00000  Uiso   1.00
O401   O     0.16666   0.10558   0.53821   0.00000  Uiso   1.00
O402   O     0.16667   0.22775   0.46179   0.00000  Uiso   1.00
O403   O     0.16666   0.10559   0.46176   0.00000  Uiso   1.00
O404   O     0.16667   0.22774   0.53824   0.00000  Uiso   1.00
O405   O     0.09058   0.16666   0.52928   0.00000  Uiso   1.00
O406   O     0.24275   0.16667   0.47072   0.00000  Uiso   1.00
O407   O     0.09058   0.16667   0.45284   0.00000  Uiso   1.00
O408   O     0.24275   0.16666   0.54716   0.00000  Uiso   1.00
Zn409  Zn    0.16667   0.16666   0.55104   0.00000  Uiso   1.00
Zn410  Zn    0.16667   0.16667   0.44896   0.00000  Uiso   1.00
F411   F     0.32159   0.15809   0.43848   0.00000  Uiso   1.00
F412   F     0.01175   0.17524   0.56152   0.00000  Uiso   1.00
C413   C     0.09660   0.29222   0.43069   0.00000  Uiso   1.00
N414   N     0.06748   0.27578   0.40297   0.00000  Uiso   1.00
C415   C     0.23668   0.04112   0.56935   0.00000  Uiso   1.00
N416   N     0.26577   0.05755   0.59710   0.00000  Uiso   1.00
C417   C     0.23188   0.22260   0.38812   0.00000  Uiso   1.00
N418   N     0.25912   0.24597   0.40992   0.00000  Uiso   1.00
C419   C     0.10145   0.11073   0.61188   0.00000  Uiso   1.00
N420   N     0.07421   0.08736   0.59008   0.00000  Uiso   1.00
C421   C     0.50080   0.08677   0.50027   0.00000  Uiso   1.00
C422   C     0.49919   0.24656   0.49973   0.00000  Uiso   1.00
C423   C     0.40057   0.16657   0.48821   0.00000  Uiso   1.00
C424   C     0.59943   0.16676   0.51179   0.00000  Uiso   1.00
C425   C     0.34592   0.16484   0.48187   0.00000  Uiso   1.00
C426   C     0.65407   0.16849   0.51813   0.00000  Uiso   1.00
C427   C     0.46797   0.02233   0.46623   0.00000  Uiso   1.00
C428   C     0.53202   0.31101   0.53377   0.00000  Uiso   1.00
C429   C     0.46634   0.31273   0.46537   0.00000  Uiso   1.00
C430   C     0.53364   0.02060   0.53464   0.00000  Uiso   1.00
C431   C     0.49880   0.29072   0.49936   0.00000  Uiso   1.00
C432   C     0.50119   0.04262   0.50064   0.00000  Uiso   1.00
C433   C     0.53149   0.19366   0.36080   0.00000  Uiso   1.00
C434   C     0.46851   0.13967   0.63920   0.00000  Uiso   1.00
C435   C     0.53140   0.19356   0.64623   0.00000  Uiso   1.00
C436   C     0.46860   0.13977   0.35377   0.00000  Uiso   1.00
H437   H     0.44276   0.04004   0.44064   0.00000  Uiso   1.00
H438   H     0.55724   0.29329   0.55936   0.00000  Uiso   1.00
H439   H     0.55641   0.21498   0.63071   0.00000  Uiso   1.00
H440   H     0.44359   0.11835   0.36929   0.00000  Uiso   1.00
N441   N     0.49999   0.16666   0.61907   0.00000  Uiso   1.00
N442   N     0.50001   0.16668   0.38093   0.00000  Uiso   1.00
O443   O     0.50000   0.10558   0.53821   0.00000  Uiso   1.00
O444   O     0.50000   0.22775   0.46179   0.00000  Uiso   1.00
O445   O     0.50000   0.10559   0.46176   0.00000  Uiso   1.00
O446   O     0.50000   0.22774   0.53824   0.00000  Uiso   1.00
O447   O     0.42392   0.16666   0.52928   0.00000  Uiso   1.00
O448   O     0.57608   0.16667   0.47072   0.00000  Uiso   1.00
O449   O     0.42392   0.16667   0.45284   0.00000  Uiso   1.00
O450   O     0.57608   0.16666   0.54716   0.00000  Uiso   1.00
Zn451  Zn    0.50000   0.16666   0.55104   0.00000  Uiso   1.00
Zn452  Zn    0.50000   0.16667   0.44896   0.00000  Uiso   1.00
F453   F     0.65492   0.15809   0.43848   0.00000  Uiso   1.00
F454   F     0.34508   0.17524   0.56152   0.00000  Uiso   1.00
C455   C     0.42994   0.29222   0.43069   0.00000  Uiso   1.00
N456   N     0.40081   0.27578   0.40297   0.00000  Uiso   1.00
C457   C     0.57001   0.04112   0.56935   0.00000  Uiso   1.00
N458   N     0.59910   0.05755   0.59710   0.00000  Uiso   1.00
C459   C     0.56522   0.22260   0.38812   0.00000  Uiso   1.00
N460   N     0.59245   0.24597   0.40992   0.00000  Uiso   1.00
C461   C     0.43478   0.11073   0.61188   0.00000  Uiso   1.00
N462   N     0.40755   0.08736   0.59008   0.00000  Uiso   1.00
C463   C     0.83414   0.08677   0.50027   0.00000  Uiso   1.00
C464   C     0.83253   0.24656   0.49973   0.00000  Uiso   1.00
C465   C     0.73390   0.16657   0.48821   0.00000  Uiso   1.00
C466   C     0.93277   0.16676   0.51179   0.00000  Uiso   1.00
C467   C     0.67926   0.16484   0.48187   0.00000  Uiso   1.00
C468   C     0.98741   0.16849   0.51813   0.00000  Uiso   1.00
C469   C     0.80130   0.02233   0.46623   0.00000  Uiso   1.00
C470   C     0.86536   0.31101   0.53377   0.00000  Uiso   1.00
C471   C     0.79968   0.31273   0.46537   0.00000  Uiso   1.00
C472   C     0.86697   0.02060   0.53464   0.00000  Uiso   1.00
C473   C     0.83214   0.29072   0.49936   0.00000  Uiso   1.00
C474   C     0.83452   0.04262   0.50064   0.00000  Uiso   1.00
C475   C     0.86483   0.19366   0.36080   0.00000  Uiso   1.00
C476   C     0.80184   0.13967   0.63920   0.00000  Uiso   1.00
C477   C     0.86473   0.19356   0.64623   0.00000  Uiso   1.00
C478   C     0.80194   0.13977   0.35377   0.00000  Uiso   1.00
H479   H     0.77609   0.04004   0.44064   0.00000  Uiso   1.00
H480   H     0.89057   0.29329   0.55936   0.00000  Uiso   1.00
H481   H     0.88974   0.21498   0.63071   0.00000  Uiso   1.00
H482   H     0.77693   0.11835   0.36929   0.00000  Uiso   1.00
N483   N     0.83332   0.16666   0.61907   0.00000  Uiso   1.00
N484   N     0.83335   0.16668   0.38093   0.00000  Uiso   1.00
O485   O     0.83333   0.10558   0.53821   0.00000  Uiso   1.00
O486   O     0.83334   0.22775   0.46179   0.00000  Uiso   1.00
O487   O     0.83333   0.10559   0.46176   0.00000  Uiso   1.00
O488   O     0.83334   0.22774   0.53824   0.00000  Uiso   1.00
O489   O     0.75725   0.16666   0.52928   0.00000  Uiso   1.00
O490   O     0.90942   0.16667   0.47072   0.00000  Uiso   1.00
O491   O     0.75725   0.16667   0.45284   0.00000  Uiso   1.00
O492   O     0.90942   0.16666   0.54716   0.00000  Uiso   1.00
Zn493  Zn    0.83333   0.16666   0.55104   0.00000  Uiso   1.00
Zn494  Zn    0.83333   0.16667   0.44896   0.00000  Uiso   1.00
F495   F     0.98825   0.15809   0.43848   0.00000  Uiso   1.00
F496   F     0.67841   0.17524   0.56152   0.00000  Uiso   1.00
C497   C     0.76327   0.29222   0.43069   0.00000  Uiso   1.00
N498   N     0.73415   0.27578   0.40297   0.00000  Uiso   1.00
C499   C     0.90334   0.04112   0.56935   0.00000  Uiso   1.00
N500   N     0.93244   0.05755   0.59710   0.00000  Uiso   1.00
C501   C     0.89855   0.22260   0.38812   0.00000  Uiso   1.00
N502   N     0.92579   0.24597   0.40992   0.00000  Uiso   1.00
C503   C     0.76812   0.11073   0.61188   0.00000  Uiso   1.00
N504   N     0.74088   0.08736   0.59008   0.00000  Uiso   1.00
C505   C     0.16747   0.42011   0.50027   0.00000  Uiso   1.00
C506   C     0.16586   0.57989   0.49973   0.00000  Uiso   1.00
C507   C     0.06723   0.49991   0.48821   0.00000  Uiso   1.00
C508   C     0.26610   0.50009   0.51179   0.00000  Uiso   1.00
C509   C     0.01259   0.49818   0.48187   0.00000  Uiso   1.00
C510   C     0.32074   0.50182   0.51813   0.00000  Uiso   1.00
C511   C     0.13464   0.35566   0.46623   0.00000  Uiso   1.00
C512   C     0.19869   0.64434   0.53377   0.00000  Uiso   1.00
C513   C     0.13301   0.64606   0.46537   0.00000  Uiso   1.00
C514   C     0.20031   0.35394   0.53464   0.00000  Uiso   1.00
C515   C     0.16547   0.62405   0.49936   0.00000  Uiso   1.00
C516   C     0.16786   0.37595   0.50064   0.00000  Uiso   1.00
C517   C     0.19816   0.52699   0.36080   0.00000  Uiso   1.00
C518   C     0.13517   0.47301   0.63920   0.00000  Uiso   1.00
C519   C     0.19806   0.52689   0.64623   0.00000  Uiso   1.00
C520   C     0.13527   0.47311   0.35377   0.00000  Uiso   1.00
H521   H     0.10942   0.37338   0.44064   0.00000  Uiso   1.00
H522   H     0.22390   0.62662   0.55936   0.00000  Uiso   1.00
H523   H     0.22307   0.54831   0.63071   0.00000  Uiso   1.00
H524   H     0.11026   0.45169   0.36929   0.00000  Uiso   1.00
N525   N     0.16665   0.49999   0.61907   0.00000  Uiso   1.00
N526   N     0.16668   0.50001   0.38093   0.00000  Uiso   1.00
O527   O     0.16666   0.43892   0.53821   0.00000  Uiso   1.00
O528   O     0.16667   0.56108   0.46179   0.00000  Uiso   1.00
O529   O     0.16666   0.43893   0.46176   0.00000  Uiso   1.00
O530   O     0.16667   0.56107   0.53824   0.00000  Uiso   1.00
O531   O     0.09058   0.50000   0.52928   0.00000  Uiso   1.00
O532   O     0.24275   0.50000   0.47072   0.00000  Uiso   1.00
O533   O     0.09058   0.50000   0.45284   0.00000  Uiso   1.00
O534   O     0.24275   0.50000   0.54716   0.00000  Uiso   1.00
Zn535  Zn    0.16667   0.49999   0.55104   0.00000  Uiso   1.00
Zn536  Zn    0.16667   0.50001   0.44896   0.00000  Uiso   1.00
F537   F     0.32159   0.49143   0.43848   0.00000  Uiso   1.00
F538   F     0.01175   0.50857   0.56152   0.00000  Uiso   1.00
C539   C     0.09660   0.62555   0.43069   0.00000  Uiso   1.00
N540   N     0.06748   0.60912   0.40297   0.00000  Uiso   1.00
C541   C     0.23668   0.37445   0.56935   0.00000  Uiso   1.00
N542   N     0.26577   0.39088   0.59710   0.00000  Uiso   1.00
C543   C     0.23188   0.55593   0.38812   0.00000  Uiso   1.00
N544   N     0.25912   0.57931   0.40992   0.00000  Uiso   1.00
C545   C     0.10145   0.44407   0.61188   0.00000  Uiso   1.00
N546   N     0.07421   0.42069   0.59008   0.00000  Uiso   1.00
C547   C     0.50080   0.42011   0.50027   0.00000  Uiso   1.00
C548   C     0.49919   0.57989   0.49973   0.00000  Uiso   1.00
C549   C     0.40057   0.49991   0.48821   0.00000  Uiso   1.00
C550   C     0.59943   0.50009   0.51179   0.00000  Uiso   1.00
C551   C     0.34592   0.49818   0.48187   0.00000  Uiso   1.00
C552   C     0.65407   0.50182   0.51813   0.00000  Uiso   1.00
C553   C     0.46797   0.35566   0.46623   0.00000  Uiso   1.00
C554   C     0.53202   0.64434   0.53377   0.00000  Uiso   1.00
C555   C     0.46634   0.64606   0.46537   0.00000  Uiso   1.00
C556   C     0.53364   0.35394   0.53464   0.00000  Uiso   1.00
C557   C     0.49880   0.62405   0.49936   0.00000  Uiso   1.00
C558   C     0.50119   0.37595   0.50064   0.00000  Uiso   1.00
C559   C     0.53149   0.52699   0.36080   0.00000  Uiso   1.00
C560   C     0.46851   0.47301   0.63920   0.00000  Uiso   1.00
C561   C     0.53140   0.52689   0.64623   0.00000  Uiso   1.00
C562   C     0.46860   0.47311   0.35377   0.00000  Uiso   1.00
H563   H     0.44276   0.37338   0.44064   0.00000  Uiso   1.00
H564   H     0.55724   0.62662   0.55936   0.00000  Uiso   1.00
H565   H     0.55641   0.54831   0.63071   0.00000  Uiso   1.00
H566   H     0.44359   0.45169   0.36929   0.00000  Uiso   1.00
N567   N     0.49999   0.49999   0.61907   0.00000  Uiso   1.00
N568   N     0.50001   0.50001   0.38093   0.00000  Uiso   1.00
O569   O     0.50000   0.43892   0.53821   0.00000  Uiso   1.00
O570   O     0.50000   0.56108   0.46179   0.00000  Uiso   1.00
O571   O     0.50000   0.43893   0.46176   0.00000  Uiso   1.00
O572   O     0.50000   0.56107   0.53824   0.00000  Uiso   1.00
O573   O     0.42392   0.50000   0.52928   0.00000  Uiso   1.00
O574   O     0.57608   0.50000   0.47072   0.00000  Uiso   1.00
O575   O     0.42392   0.50000   0.45284   0.00000  Uiso   1.00
O576   O     0.57608   0.50000   0.54716   0.00000  Uiso   1.00
Zn577  Zn    0.50000   0.49999   0.55104   0.00000  Uiso   1.00
Zn578  Zn    0.50000   0.50001   0.44896   0.00000  Uiso   1.00
F579   F     0.65492   0.49143   0.43848   0.00000  Uiso   1.00
F580   F     0.34508   0.50857   0.56152   0.00000  Uiso   1.00
C581   C     0.42994   0.62555   0.43069   0.00000  Uiso   1.00
N582   N     0.40081   0.60912   0.40297   0.00000  Uiso   1.00
C583   C     0.57001   0.37445   0.56935   0.00000  Uiso   1.00
N584   N     0.59910   0.39088   0.59710   0.00000  Uiso   1.00
C585   C     0.56522   0.55593   0.38812   0.00000  Uiso   1.00
N586   N     0.59245   0.57931   0.40992   0.00000  Uiso   1.00
C587   C     0.43478   0.44407   0.61188   0.00000  Uiso   1.00
N588   N     0.40755   0.42069   0.59008   0.00000  Uiso   1.00
C589   C     0.83414   0.42011   0.50027   0.00000  Uiso   1.00
C590   C     0.83253   0.57989   0.49973   0.00000  Uiso   1.00
C591   C     0.73390   0.49991   0.48821   0.00000  Uiso   1.00
C592   C     0.93277   0.50009   0.51179   0.00000  Uiso   1.00
C593   C     0.67926   0.49818   0.48187   0.00000  Uiso   1.00
C594   C     0.98741   0.50182   0.51813   0.00000  Uiso   1.00
C595   C     0.80130   0.35566   0.46623   0.00000  Uiso   1.00
C596   C     0.86536   0.64434   0.53377   0.00000  Uiso   1.00
C597   C     0.79968   0.64606   0.46537   0.00000  Uiso   1.00
C598   C     0.86697   0.35394   0.53464   0.00000  Uiso   1.00
C599   C     0.83214   0.62405   0.49936   0.00000  Uiso   1.00
C600   C     0.83452   0.37595   0.50064   0.00000  Uiso   1.00
C601   C     0.86483   0.52699   0.36080   0.00000  Uiso   1.00
C602   C     0.80184   0.47301   0.63920   0.00000  Uiso   1.00
C603   C     0.86473   0.52689   0.64623   0.00000  Uiso   1.00
C604   C     0.80194   0.47311   0.35377   0.00000  Uiso   1.00
H605   H     0.77609   0.37338   0.44064   0.00000  Uiso   1.00
H606   H     0.89057   0.62662   0.55936   0.00000  Uiso   1.00
H607   H     0.88974   0.54831   0.63071   0.00000  Uiso   1.00
H608   H     0.77693   0.45169   0.36929   0.00000  Uiso   1.00
N609   N     0.83332   0.49999   0.61907   0.00000  Uiso   1.00
N610   N     0.83335   0.50001   0.38093   0.00000  Uiso   1.00
O611   O     0.83333   0.43892   0.53821   0.00000  Uiso   1.00
O612   O     0.83334   0.56108   0.46179   0.00000  Uiso   1.00
O613   O     0.83333   0.43893   0.46176   0.00000  Uiso   1.00
O614   O     0.83334   0.56107   0.53824   0.00000  Uiso   1.00
O615   O     0.75725   0.50000   0.52928   0.00000  Uiso   1.00
O616   O     0.90942   0.50000   0.47072   0.00000  Uiso   1.00
O617   O     0.75725   0.50000   0.45284   0.00000  Uiso   1.00
O618   O     0.90942   0.50000   0.54716   0.00000  Uiso   1.00
Zn619  Zn    0.83333   0.49999   0.55104   0.00000  Uiso   1.00
Zn620  Zn    0.83333   0.50001   0.44896   0.00000  Uiso   1.00
F621   F     0.98825   0.49143   0.43848   0.00000  Uiso   1.00
F622   F     0.67841   0.50857   0.56152   0.00000  Uiso   1.00
C623   C     0.76327   0.62555   0.43069   0.00000  Uiso   1.00
N624   N     0.73415   0.60912   0.40297   0.00000  Uiso   1.00
C625   C     0.90334   0.37445   0.56935   0.00000  Uiso   1.00
N626   N     0.93244   0.39088   0.59710   0.00000  Uiso   1.00
C627   C     0.89855   0.55593   0.38812   0.00000  Uiso   1.00
N628   N     0.92579   0.57931   0.40992   0.00000  Uiso   1.00
C629   C     0.76812   0.44407   0.61188   0.00000  Uiso   1.00
N630   N     0.74088   0.42069   0.59008   0.00000  Uiso   1.00
C631   C     0.16747   0.75344   0.50027   0.00000  Uiso   1.00
C632   C     0.16586   0.91323   0.49973   0.00000  Uiso   1.00
C633   C     0.06723   0.83324   0.48821   0.00000  Uiso   1.00
C634   C     0.26610   0.83342   0.51179   0.00000  Uiso   1.00
C635   C     0.01259   0.83151   0.48187   0.00000  Uiso   1.00
C636   C     0.32074   0.83516   0.51813   0.00000  Uiso   1.00
C637   C     0.13464   0.68899   0.46623   0.00000  Uiso   1.00
C638   C     0.19869   0.97767   0.53377   0.00000  Uiso   1.00
C639   C     0.13301   0.97940   0.46537   0.00000  Uiso   1.00
C640   C     0.20031   0.68727   0.53464   0.00000  Uiso   1.00
C641   C     0.16547   0.95738   0.49936   0.00000  Uiso   1.00
C642   C     0.16786   0.70928   0.50064   0.00000  Uiso   1.00
C643   C     0.19816   0.86033   0.36080   0.00000  Uiso   1.00
C644   C     0.13517   0.80634   0.63920   0.00000  Uiso   1.00
C645   C     0.19806   0.86023   0.64623   0.00000  Uiso   1.00
C646   C     0.13527   0.80644   0.35377   0.00000  Uiso   1.00
H647   H     0.10942   0.70671   0.44064   0.00000  Uiso   1.00
H648   H     0.22390   0.95995   0.55936   0.00000  Uiso   1.00
H649   H     0.22307   0.88165   0.63071   0.00000  Uiso   1.00
H650   H     0.11026   0.78502   0.36929   0.00000  Uiso   1.00
N651   N     0.16665   0.83332   0.61907   0.00000  Uiso   1.00
N652   N     0.16668   0.83334   0.38093   0.00000  Uiso   1.00
O653   O     0.16666   0.77225   0.53821   0.00000  Uiso   1.00
O654   O     0.16667   0.89442   0.46179   0.00000  Uiso   1.00
O655   O     0.16666   0.77226   0.46176   0.00000  Uiso   1.00
O656   O     0.16667   0.89441   0.53824   0.00000  Uiso   1.00
O657   O     0.09058   0.83333   0.52928   0.00000  Uiso   1.00
O658   O     0.24275   0.83334   0.47072   0.00000  Uiso   1.00
O659   O     0.09058   0.83334   0.45284   0.00000  Uiso   1.00
O660   O     0.24275   0.83333   0.54716   0.00000  Uiso   1.00
Zn661  Zn    0.16667   0.83333   0.55104   0.00000  Uiso   1.00
Zn662  Zn    0.16667   0.83334   0.44896   0.00000  Uiso   1.00
F663   F     0.32159   0.82476   0.43848   0.00000  Uiso   1.00
F664   F     0.01175   0.84191   0.56152   0.00000  Uiso   1.00
C665   C     0.09660   0.95888   0.43069   0.00000  Uiso   1.00
N666   N     0.06748   0.94245   0.40297   0.00000  Uiso   1.00
C667   C     0.23668   0.70778   0.56935   0.00000  Uiso   1.00
N668   N     0.26577   0.72421   0.59710   0.00000  Uiso   1.00
C669   C     0.23188   0.88927   0.38812   0.00000  Uiso   1.00
N670   N     0.25912   0.91264   0.40992   0.00000  Uiso   1.00
C671   C     0.10145   0.77740   0.61188   0.00000  Uiso   1.00
N672   N     0.07421   0.75403   0.59008   0.00000  Uiso   1.00
C673   C     0.50080   0.75344   0.50027   0.00000  Uiso   1.00
C674   C     0.49919   0.91323   0.49973   0.00000  Uiso   1.00
C675   C     0.40057   0.83324   0.48821   0.00000  Uiso   1.00
C676   C     0.59943   0.83342   0.51179   0.00000  Uiso   1.00
C677   C     0.34592   0.83151   0.48187   0.00000  Uiso   1.00
C678   C     0.65407   0.83516   0.51813   0.00000  Uiso   1.00
C679   C     0.46797   0.68899   0.46623   0.00000  Uiso   1.00
C680   C     0.53202   0.97767   0.53377   0.00000  Uiso   1.00
C681   C     0.46634   0.97940   0.46537   0.00000  Uiso   1.00
C682   C     0.53364   0.68727   0.53464   0.00000  Uiso   1.00
C683   C     0.49880   0.95738   0.49936   0.00000  Uiso   1.00
C684   C     0.50119   0.70928   0.50064   0.00000  Uiso   1.00
C685   C     0.53149   0.86033   0.36080   0.00000  Uiso   1.00
C686   C     0.46851   0.80634   0.63920   0.00000  Uiso   1.00
C687   C     0.53140   0.86023   0.64623   0.00000  Uiso   1.00
C688   C     0.46860   0.80644   0.35377   0.00000  Uiso   1.00
H689   H     0.44276   0.70671   0.44064   0.00000  Uiso   1.00
H690   H     0.55724   0.95995   0.55936   0.00000  Uiso   1.00
H691   H     0.55641   0.88165   0.63071   0.00000  Uiso   1.00
H692   H     0.44359   0.78502   0.36929   0.00000  Uiso   1.00
N693   N     0.49999   0.83332   0.61907   0.00000  Uiso   1.00
N694   N     0.50001   0.83334   0.38093   0.00000  Uiso   1.00
O695   O     0.50000   0.77225   0.53821   0.00000  Uiso   1.00
O696   O     0.50000   0.89442   0.46179   0.00000  Uiso   1.00
O697   O     0.50000   0.77226   0.46176   0.00000  Uiso   1.00
O698   O     0.50000   0.89441   0.53824   0.00000  Uiso   1.00
O699   O     0.42392   0.83333   0.52928   0.00000  Uiso   1.00
O700   O     0.57608   0.83334   0.47072   0.00000  Uiso   1.00
O701   O     0.42392   0.83334   0.45284   0.00000  Uiso   1.00
O702   O     0.57608   0.83333   0.54716   0.00000  Uiso   1.00
Zn703  Zn    0.50000   0.83333   0.55104   0.00000  Uiso   1.00
Zn704  Zn    0.50000   0.83334   0.44896   0.00000  Uiso   1.00
F705   F     0.65492   0.82476   0.43848   0.00000  Uiso   1.00
F706   F     0.34508   0.84191   0.56152   0.00000  Uiso   1.00
C707   C     0.42994   0.95888   0.43069   0.00000  Uiso   1.00
N708   N     0.40081   0.94245   0.40297   0.00000  Uiso   1.00
C709   C     0.57001   0.70778   0.56935   0.00000  Uiso   1.00
N710   N     0.59910   0.72421   0.59710   0.00000  Uiso   1.00
C711   C     0.56522   0.88927   0.38812   0.00000  Uiso   1.00
N712   N     0.59245   0.91264   0.40992   0.00000  Uiso   1.00
C713   C     0.43478   0.77740   0.61188   0.00000  Uiso   1.00
N714   N     0.40755   0.75403   0.59008   0.00000  Uiso   1.00
C715   C     0.83414   0.75344   0.50027   0.00000  Uiso   1.00
C716   C     0.83253   0.91323   0.49973   0.00000  Uiso   1.00
C717   C     0.73390   0.83324   0.48821   0.00000  Uiso   1.00
C718   C     0.93277   0.83342   0.51179   0.00000  Uiso   1.00
C719   C     0.67926   0.83151   0.48187   0.00000  Uiso   1.00
C720   C     0.98741   0.83516   0.51813   0.00000  Uiso   1.00
C721   C     0.80130   0.68899   0.46623   0.00000  Uiso   1.00
C722   C     0.86536   0.97767   0.53377   0.00000  Uiso   1.00
C723   C     0.79968   0.97940   0.46537   0.00000  Uiso   1.00
C724   C     0.86697   0.68727   0.53464   0.00000  Uiso   1.00
C725   C     0.83214   0.95738   0.49936   0.00000  Uiso   1.00
C726   C     0.83452   0.70928   0.50064   0.00000  Uiso   1.00
C727   C     0.86483   0.86033   0.36080   0.00000  Uiso   1.00
C728   C     0.80184   0.80634   0.63920   0.00000  Uiso   1.00
C729   C     0.86473   0.86023   0.64623   0.00000  Uiso   1.00
C730   C     0.80194   0.80644   0.35377   0.00000  Uiso   1.00
H731   H     0.77609   0.70671   0.44064   0.00000  Uiso   1.00
H732   H     0.89057   0.95995   0.55936   0.00000  Uiso   1.00
H733   H     0.88974   0.88165   0.63071   0.00000  Uiso   1.00
H734   H     0.77693   0.78502   0.36929   0.00000  Uiso   1.00
N735   N     0.83332   0.83332   0.61907   0.00000  Uiso   1.00
N736   N     0.83335   0.83334   0.38093   0.00000  Uiso   1.00
O737   O     0.83333   0.77225   0.53821   0.00000  Uiso   1.00
O738   O     0.83334   0.89442   0.46179   0.00000  Uiso   1.00
O739   O     0.83333   0.77226   0.46176   0.00000  Uiso   1.00
O740   O     0.83334   0.89441   0.53824   0.00000  Uiso   1.00
O741   O     0.75725   0.83333   0.52928   0.00000  Uiso   1.00
O742   O     0.90942   0.83334   0.47072   0.00000  Uiso   1.00
O743   O     0.75725   0.83334   0.45284   0.00000  Uiso   1.00
O744   O     0.90942   0.83333   0.54716   0.00000  Uiso   1.00
Zn745  Zn    0.83333   0.83333   0.55104   0.00000  Uiso   1.00
Zn746  Zn    0.83333   0.83334   0.44896   0.00000  Uiso   1.00
F747   F     0.98825   0.82476   0.43848   0.00000  Uiso   1.00
F748   F     0.67841   0.84191   0.56152   0.00000  Uiso   1.00
C749   C     0.76327   0.95888   0.43069   0.00000  Uiso   1.00
N750   N     0.73415   0.94245   0.40297   0.00000  Uiso   1.00
C751   C     0.90334   0.70778   0.56935   0.00000  Uiso   1.00
N752   N     0.93244   0.72421   0.59710   0.00000  Uiso   1.00
C753   C     0.89855   0.88927   0.38812   0.00000  Uiso   1.00
N754   N     0.92579   0.91264   0.40992   0.00000  Uiso   1.00
C755   C     0.76812   0.77740   0.61188   0.00000  Uiso   1.00
N756   N     0.74088   0.75403   0.59008   0.00000  Uiso   1.00
C757   C     0.16747   0.08677   0.83360   0.00000  Uiso   1.00
C758   C     0.16586   0.24656   0.83306   0.00000  Uiso   1.00
C759   C     0.06723   0.16657   0.82155   0.00000  Uiso   1.00
C760   C     0.26610   0.16676   0.84512   0.00000  Uiso   1.00
C761   C     0.01259   0.16484   0.81521   0.00000  Uiso   1.00
C762   C     0.32074   0.16849   0.85146   0.00000  Uiso   1.00
C763   C     0.13464   0.02233   0.79957   0.00000  Uiso   1.00
C764   C     0.19869   0.31101   0.86710   0.00000  Uiso   1.00
C765   C     0.13301   0.31273   0.79871   0.00000  Uiso   1.00
C766   C     0.20031   0.02060   0.86797   0.00000  Uiso   1.00
C767   C     0.16547   0.29072   0.83269   0.00000  Uiso   1.00
C768   C     0.16786   0.04262   0.83398   0.00000  Uiso   1.00
C769   C     0.19816   0.19366   0.69413   0.00000  Uiso   1.00
C770   C     0.13517   0.13967   0.97254   0.00000  Uiso   1.00
C771   C     0.19806   0.19356   0.97956   0.00000  Uiso   1.00
C772   C     0.13527   0.13977   0.68711   0.00000  Uiso   1.00
H773   H     0.10942   0.04004   0.77397   0.00000  Uiso   1.00
H774   H     0.22390   0.29329   0.89270   0.00000  Uiso   1.00
H775   H     0.22307   0.21498   0.96404   0.00000  Uiso   1.00
H776   H     0.11026   0.11835   0.70263   0.00000  Uiso   1.00
N777   N     0.16665   0.16666   0.95240   0.00000  Uiso   1.00
N778   N     0.16668   0.16668   0.71427   0.00000  Uiso   1.00
O779   O     0.16666   0.10558   0.87154   0.00000  Uiso   1.00
O780   O     0.16667   0.22775   0.79513   0.00000  Uiso   1.00
O781   O     0.16666   0.10559   0.79510   0.00000  Uiso   1.00
O782   O     0.16667   0.22774   0.87157   0.00000  Uiso   1.00
O783   O     0.09058   0.16666   0.86261   0.00000  Uiso   1.00
O784   O     0.24275   0.16667   0.80405   0.00000  Uiso   1.00
O785   O     0.09058   0.16667   0.78617   0.00000  Uiso   1.00
O786   O     0.24275   0.16666   0.88050   0.00000  Uiso   1.00
Zn787  Zn    0.16667   0.16666   0.88437   0.00000  Uiso   1.00
Zn788  Zn    0.16667   0.16667   0.78229   0.00000  Uiso   1.00
F789   F     0.32159   0.15809   0.77181   0.00000  Uiso   1.00
F790   F     0.01175   0.17524   0.89486   0.00000  Uiso   1.00
C791   C     0.09660   0.29222   0.76402   0.00000  Uiso   1.00
N792   N     0.06748   0.27578   0.73630   0.00000  Uiso   1.00
C793   C     0.23668   0.04112   0.90269   0.00000  Uiso   1.00
N794   N     0.26577   0.05755   0.93043   0.00000  Uiso   1.00
C795   C     0.23188   0.22260   0.72145   0.00000  Uiso   1.00
N796   N     0.25912   0.24597   0.74326   0.00000  Uiso   1.00
C797   C     0.10145   0.11073   0.94522   0.00000  Uiso   1.00
N798   N     0.07421   0.08736   0.92341   0.00000  Uiso   1.00
C799   C     0.50080   0.08677   0.83360   0.00000  Uiso   1.00
C800   C     0.49919   0.24656   0.83306   0.00000  Uiso   1.00
C801   C     0.40057   0.16657   0.82155   0.00000  Uiso   1.00
C802   C     0.59943   0.16676   0.84512   0.00000  Uiso   1.00
C803   C     0.34592   0.16484   0.81521   0.00000  Uiso   1.00
C804   C     0.65407   0.16849   0.85146   0.00000  Uiso   1.00
C805   C     0.46797   0.02233   0.79957   0.00000  Uiso   1.00
C806   C     0.53202   0.31101   0.86710   0.00000  Uiso   1.00
C807   C     0.46634   0.31273   0.79871   0.00000  Uiso   1.00
C808   C     0.53364   0.02060   0.86797   0.00000  Uiso   1.00
C809   C     0.49880   0.29072   0.83269   0.00000  Uiso   1.00
C810   C     0.50119   0.04262   0.83398   0.00000  Uiso   1.00
C811   C     0.53149   0.19366   0.69413   0.00000  Uiso   1.00
C812   C     0.46851   0.13967   0.97254   0.00000  Uiso   1.00
C813   C     0.53140   0.19356   0.97956   0.00000  Uiso   1.00
C814   C     0.46860   0.13977   0.68711   0.00000  Uiso   1.00
H815   H     0.44276   0.04004   0.77397   0.00000  Uiso   1.00
H816   H     0.55724   0.29329   0.89270   0.00000  Uiso   1.00
H817   H     0.55641   0.21498   0.96404   0.00000  Uiso   1.00
H818   H     0.44359   0.11835   0.70263   0.00000  Uiso   1.00
N819   N     0.49999   0.16666   0.95240   0.00000  Uiso   1.00
N820   N     0.50001   0.16668   0.71427   0.00000  Uiso   1.00
O821   O     0.50000   0.10558   0.87154   0.00000  Uiso   1.00
O822   O     0.50000   0.22775   0.79513   0.00000  Uiso   1.00
O823   O     0.50000   0.10559   0.79510   0.00000  Uiso   1.00
O824   O     0.50000   0.22774   0.87157   0.00000  Uiso   1.00
O825   O     0.42392   0.16666   0.86261   0.00000  Uiso   1.00
O826   O     0.57608   0.16667   0.80405   0.00000  Uiso   1.00
O827   O     0.42392   0.16667   0.78617   0.00000  Uiso   1.00
O828   O     0.57608   0.16666   0.88050   0.00000  Uiso   1.00
Zn829  Zn    0.50000   0.16666   0.88437   0.00000  Uiso   1.00
Zn830  Zn    0.50000   0.16667   0.78229   0.00000  Uiso   1.00
F831   F     0.65492   0.15809   0.77181   0.00000  Uiso   1.00
F832   F     0.34508   0.17524   0.89486   0.00000  Uiso   1.00
C833   C     0.42994   0.29222   0.76402   0.00000  Uiso   1.00
N834   N     0.40081   0.27578   0.73630   0.00000  Uiso   1.00
C835   C     0.57001   0.04112   0.90269   0.00000  Uiso   1.00
N836   N     0.59910   0.05755   0.93043   0.00000  Uiso   1.00
C837   C     0.56522   0.22260   0.72145   0.00000  Uiso   1.00
N838   N     0.59245   0.24597   0.74326   0.00000  Uiso   1.00
C839   C     0.43478   0.11073   0.94522   0.00000  Uiso   1.00
N840   N     0.40755   0.08736   0.92341   0.00000  Uiso   1.00
C841   C     0.83414   0.08677   0.83360   0.00000  Uiso   1.00
C842   C     0.83253   0.24656   0.83306   0.00000  Uiso   1.00
C843   C     0.73390   0.16657   0.82155   0.00000  Uiso   1.00
C844   C     0.93277   0.16676   0.84512   0.00000  Uiso   1.00
C845   C     0.67926   0.16484   0.81521   0.00000  Uiso   1.00
C846   C     0.98741   0.16849   0.85146   0.00000  Uiso   1.00
C847   C     0.80130   0.02233   0.79957   0.00000  Uiso   1.00
C848   C     0.86536   0.31101   0.86710   0.00000  Uiso   1.00
C849   C     0.79968   0.31273   0.79871   0.00000  Uiso   1.00
C850   C     0.86697   0.02060   0.86797   0.00000  Uiso   1.00
C851   C     0.83214   0.29072   0.83269   0.00000  Uiso   1.00
C852   C     0.83452   0.04262   0.83398   0.00000  Uiso   1.00
C853   C     0.86483   0.19366   0.69413   0.00000  Uiso   1.00
C854   C     0.80184   0.13967   0.97254   0.00000  Uiso   1.00
C855   C     0.86473   0.19356   0.97956   0.00000  Uiso   1.00
C856   C     0.80194   0.13977   0.68711   0.00000  Uiso   1.00
H857   H     0.77609   0.04004   0.77397   0.00000  Uiso   1.00
H858   H     0.89057   0.29329   0.89270   0.00000  Uiso   1.00
H859   H     0.88974   0.21498   0.96404   0.00000  Uiso   1.00
H860   H     0.77693   0.11835   0.70263   0.00000  Uiso   1.00
N861   N     0.83332   0.16666   0.95240   0.00000  Uiso   1.00
N862   N     0.83335   0.16668   0.71427   0.00000  Uiso   1.00
O863   O     0.83333   0.10558   0.87154   0.00000  Uiso   1.00
O864   O     0.83334   0.22775   0.79513   0.00000  Uiso   1.00
O865   O     0.83333   0.10559   0.79510   0.00000  Uiso   1.00
O866   O     0.83334   0.22774   0.87157   0.00000  Uiso   1.00
O867   O     0.75725   0.16666   0.86261   0.00000  Uiso   1.00
O868   O     0.90942   0.16667   0.80405   0.00000  Uiso   1.00
O869   O     0.75725   0.16667   0.78617   0.00000  Uiso   1.00
O870   O     0.90942   0.16666   0.88050   0.00000  Uiso   1.00
Zn871  Zn    0.83333   0.16666   0.88437   0.00000  Uiso   1.00
Zn872  Zn    0.83333   0.16667   0.78229   0.00000  Uiso   1.00
F873   F     0.98825   0.15809   0.77181   0.00000  Uiso   1.00
F874   F     0.67841   0.17524   0.89486   0.00000  Uiso   1.00
C875   C     0.76327   0.29222   0.76402   0.00000  Uiso   1.00
N876   N     0.73415   0.27578   0.73630   0.00000  Uiso   1.00
C877   C     0.90334   0.04112   0.90269   0.00000  Uiso   1.00
N878   N     0.93244   0.05755   0.93043   0.00000  Uiso   1.00
C879   C     0.89855   0.22260   0.72145   0.00000  Uiso   1.00
N880   N     0.92579   0.24597   0.74326   0.00000  Uiso   1.00
C881   C     0.76812   0.11073   0.94522   0.00000  Uiso   1.00
N882   N     0.74088   0.08736   0.92341   0.00000  Uiso   1.00
C883   C     0.16747   0.42011   0.83360   0.00000  Uiso   1.00
C884   C     0.16586   0.57989   0.83306   0.00000  Uiso   1.00
C885   C     0.06723   0.49991   0.82155   0.00000  Uiso   1.00
C886   C     0.26610   0.50009   0.84512   0.00000  Uiso   1.00
C887   C     0.01259   0.49818   0.81521   0.00000  Uiso   1.00
C888   C     0.32074   0.50182   0.85146   0.00000  Uiso   1.00
C889   C     0.13464   0.35566   0.79957   0.00000  Uiso   1.00
C890   C     0.19869   0.64434   0.86710   0.00000  Uiso   1.00
C891   C     0.13301   0.64606   0.79871   0.00000  Uiso   1.00
C892   C     0.20031   0.35394   0.86797   0.00000  Uiso   1.00
C893   C     0.16547   0.62405   0.83269   0.00000  Uiso   1.00
C894   C     0.16786   0.37595   0.83398   0.00000  Uiso   1.00
C895   C     0.19816   0.52699   0.69413   0.00000  Uiso   1.00
C896   C     0.13517   0.47301   0.97254   0.00000  Uiso   1.00
C897   C     0.19806   0.52689   0.97956   0.00000  Uiso   1.00
C898   C     0.13527   0.47311   0.68711   0.00000  Uiso   1.00
H899   H     0.10942   0.37338   0.77397   0.00000  Uiso   1.00
H900   H     0.22390   0.62662   0.89270   0.00000  Uiso   1.00
H901   H     0.22307   0.54831   0.96404   0.00000  Uiso   1.00
H902   H     0.11026   0.45169   0.70263   0.00000  Uiso   1.00
N903   N     0.16665   0.49999   0.95240   0.00000  Uiso   1.00
N904   N     0.16668   0.50001   0.71427   0.00000  Uiso   1.00
O905   O     0.16666   0.43892   0.87154   0.00000  Uiso   1.00
O906   O     0.16667   0.56108   0.79513   0.00000  Uiso   1.00
O907   O     0.16666   0.43893   0.79510   0.00000  Uiso   1.00
O908   O     0.16667   0.56107   0.87157   0.00000  Uiso   1.00
O909   O     0.09058   0.50000   0.86261   0.00000  Uiso   1.00
O910   O     0.24275   0.50000   0.80405   0.00000  Uiso   1.00
O911   O     0.09058   0.50000   0.78617   0.00000  Uiso   1.00
O912   O     0.24275   0.50000   0.88050   0.00000  Uiso   1.00
Zn913  Zn    0.16667   0.49999   0.88437   0.00000  Uiso   1.00
Zn914  Zn    0.16667   0.50001   0.78229   0.00000  Uiso   1.00
F915   F     0.32159   0.49143   0.77181   0.00000  Uiso   1.00
F916   F     0.01175   0.50857   0.89486   0.00000  Uiso   1.00
C917   C     0.09660   0.62555   0.76402   0.00000  Uiso   1.00
N918   N     0.06748   0.60912   0.73630   0.00000  Uiso   1.00
C919   C     0.23668   0.37445   0.90269   0.00000  Uiso   1.00
N920   N     0.26577   0.39088   0.93043   0.00000  Uiso   1.00
C921   C     0.23188   0.55593   0.72145   0.00000  Uiso   1.00
N922   N     0.25912   0.57931   0.74326   0.00000  Uiso   1.00
C923   C     0.10145   0.44407   0.94522   0.00000  Uiso   1.00
N924   N     0.07421   0.42069   0.92341   0.00000  Uiso   1.00
C925   C     0.50080   0.42011   0.83360   0.00000  Uiso   1.00
C926   C     0.49919   0.57989   0.83306   0.00000  Uiso   1.00
C927   C     0.40057   0.49991   0.82155   0.00000  Uiso   1.00
C928   C     0.59943   0.50009   0.84512   0.00000  Uiso   1.00
C929   C     0.34592   0.49818   0.81521   0.00000  Uiso   1.00
C930   C     0.65407   0.50182   0.85146   0.00000  Uiso   1.00
C931   C     0.46797   0.35566   0.79957   0.00000  Uiso   1.00
C932   C     0.53202   0.64434   0.86710   0.00000  Uiso   1.00
C933   C     0.46634   0.64606   0.79871   0.00000  Uiso   1.00
C934   C     0.53364   0.35394   0.86797   0.00000  Uiso   1.00
C935   C     0.49880   0.62405   0.83269   0.00000  Uiso   1.00
C936   C     0.50119   0.37595   0.83398   0.00000  Uiso   1.00
C937   C     0.53149   0.52699   0.69413   0.00000  Uiso   1.00
C938   C     0.46851   0.47301   0.97254   0.00000  Uiso   1.00
C939   C     0.53140   0.52689   0.97956   0.00000  Uiso   1.00
C940   C     0.46860   0.47311   0.68711   0.00000  Uiso   1.00
H941   H     0.44276   0.37338   0.77397   0.00000  Uiso   1.00
H942   H     0.55724   0.62662   0.89270   0.00000  Uiso   1.00
H943   H     0.55641   0.54831   0.96404   0.00000  Uiso   1.00
H944   H     0.44359   0.45169   0.70263   0.00000  Uiso   1.00
N945   N     0.49999   0.49999   0.95240   0.00000  Uiso   1.00
N946   N     0.50001   0.50001   0.71427   0.00000  Uiso   1.00
O947   O     0.50000   0.43892   0.87154   0.00000  Uiso   1.00
O948   O     0.50000   0.56108   0.79513   0.00000  Uiso   1.00
O949   O     0.50000   0.43893   0.79510   0.00000  Uiso   1.00
O950   O     0.50000   0.56107   0.87157   0.00000  Uiso   1.00
O951   O     0.42392   0.50000   0.86261   0.00000  Uiso   1.00
O952   O     0.57608   0.50000   0.80405   0.00000  Uiso   1.00
O953   O     0.42392   0.50000   0.78617   0.00000  Uiso   1.00
O954   O     0.57608   0.50000   0.88050   0.00000  Uiso   1.00
Zn955  Zn    0.50000   0.49999   0.88437   0.00000  Uiso   1.00
Zn956  Zn    0.50000   0.50001   0.78229   0.00000  Uiso   1.00
F957   F     0.65492   0.49143   0.77181   0.00000  Uiso   1.00
F958   F     0.34508   0.50857   0.89486   0.00000  Uiso   1.00
C959   C     0.42994   0.62555   0.76402   0.00000  Uiso   1.00
N960   N     0.40081   0.60912   0.73630   0.00000  Uiso   1.00
C961   C     0.57001   0.37445   0.90269   0.00000  Uiso   1.00
N962   N     0.59910   0.39088   0.93043   0.00000  Uiso   1.00
C963   C     0.56522   0.55593   0.72145   0.00000  Uiso   1.00
N964   N     0.59245   0.57931   0.74326   0.00000  Uiso   1.00
C965   C     0.43478   0.44407   0.94522   0.00000  Uiso   1.00
N966   N     0.40755   0.42069   0.92341   0.00000  Uiso   1.00
C967   C     0.83414   0.42011   0.83360   0.00000  Uiso   1.00
C968   C     0.83253   0.57989   0.83306   0.00000  Uiso   1.00
C969   C     0.73390   0.49991   0.82155   0.00000  Uiso   1.00
C970   C     0.93277   0.50009   0.84512   0.00000  Uiso   1.00
C971   C     0.67926   0.49818   0.81521   0.00000  Uiso   1.00
C972   C     0.98741   0.50182   0.85146   0.00000  Uiso   1.00
C973   C     0.80130   0.35566   0.79957   0.00000  Uiso   1.00
C974   C     0.86536   0.64434   0.86710   0.00000  Uiso   1.00
C975   C     0.79968   0.64606   0.79871   0.00000  Uiso   1.00
C976   C     0.86697   0.35394   0.86797   0.00000  Uiso   1.00
C977   C     0.83214   0.62405   0.83269   0.00000  Uiso   1.00
C978   C     0.83452   0.37595   0.83398   0.00000  Uiso   1.00
C979   C     0.86483   0.52699   0.69413   0.00000  Uiso   1.00
C980   C     0.80184   0.47301   0.97254   0.00000  Uiso   1.00
C981   C     0.86473   0.52689   0.97956   0.00000  Uiso   1.00
C982   C     0.80194   0.47311   0.68711   0.00000  Uiso   1.00
H983   H     0.77609   0.37338   0.77397   0.00000  Uiso   1.00
H984   H     0.89057   0.62662   0.89270   0.00000  Uiso   1.00
H985   H     0.88974   0.54831   0.96404   0.00000  Uiso   1.00
H986   H     0.77693   0.45169   0.70263   0.00000  Uiso   1.00
N987   N     0.83332   0.49999   0.95240   0.00000  Uiso   1.00
N988   N     0.83335   0.50001   0.71427   0.00000  Uiso   1.00
O989   O     0.83333   0.43892   0.87154   0.00000  Uiso   1.00
O990   O     0.83334   0.56108   0.79513   0.00000  Uiso   1.00
O991   O     0.83333   0.43893   0.79510   0.00000  Uiso   1.00
O992   O     0.83334   0.56107   0.87157   0.00000  Uiso   1.00
O993   O     0.75725   0.50000   0.86261   0.00000  Uiso   1.00
O994   O     0.90942   0.50000   0.80405   0.00000  Uiso   1.00
O995   O     0.75725   0.50000   0.78617   0.00000  Uiso   1.00
O996   O     0.90942   0.50000   0.88050   0.00000  Uiso   1.00
Zn997  Zn    0.83333   0.49999   0.88437   0.00000  Uiso   1.00
Zn998  Zn    0.83333   0.50001   0.78229   0.00000  Uiso   1.00
F999   F     0.98825   0.49143   0.77181   0.00000  Uiso   1.00
F1000  F     0.67841   0.50857   0.89486   0.00000  Uiso   1.00
C1001  C     0.76327   0.62555   0.76402   0.00000  Uiso   1.00
N1002  N     0.73415   0.60912   0.73630   0.00000  Uiso   1.00
C1003  C     0.90334   0.37445   0.90269   0.00000  Uiso   1.00
N1004  N     0.93244   0.39088   0.93043   0.00000  Uiso   1.00
C1005  C     0.89855   0.55593   0.72145   0.00000  Uiso   1.00
N1006  N     0.92579   0.57931   0.74326   0.00000  Uiso   1.00
C1007  C     0.76812   0.44407   0.94522   0.00000  Uiso   1.00
N1008  N     0.74088   0.42069   0.92341   0.00000  Uiso   1.00
C1009  C     0.16747   0.75344   0.83360   0.00000  Uiso   1.00
C1010  C     0.16586   0.91323   0.83306   0.00000  Uiso   1.00
C1011  C     0.06723   0.83324   0.82155   0.00000  Uiso   1.00
C1012  C     0.26610   0.83342   0.84512   0.00000  Uiso   1.00
C1013  C     0.01259   0.83151   0.81521   0.00000  Uiso   1.00
C1014  C     0.32074   0.83516   0.85146   0.00000  Uiso   1.00
C1015  C     0.13464   0.68899   0.79957   0.00000  Uiso   1.00
C1016  C     0.19869   0.97767   0.86710   0.00000  Uiso   1.00
C1017  C     0.13301   0.97940   0.79871   0.00000  Uiso   1.00
C1018  C     0.20031   0.68727   0.86797   0.00000  Uiso   1.00
C1019  C     0.16547   0.95738   0.83269   0.00000  Uiso   1.00
C1020  C     0.16786   0.70928   0.83398   0.00000  Uiso   1.00
C1021  C     0.19816   0.86033   0.69413   0.00000  Uiso   1.00
C1022  C     0.13517   0.80634   0.97254   0.00000  Uiso   1.00
C1023  C     0.19806   0.86023   0.97956   0.00000  Uiso   1.00
C1024  C     0.13527   0.80644   0.68711   0.00000  Uiso   1.00
H1025  H     0.10942   0.70671   0.77397   0.00000  Uiso   1.00
H1026  H     0.22390   0.95995   0.89270   0.00000  Uiso   1.00
H1027  H     0.22307   0.88165   0.96404   0.00000  Uiso   1.00
H1028  H     0.11026   0.78502   0.70263   0.00000  Uiso   1.00
N1029  N     0.16665   0.83332   0.95240   0.00000  Uiso   1.00
N1030  N     0.16668   0.83334   0.71427   0.00000  Uiso   1.00
O1031  O     0.16666   0.77225   0.87154   0.00000  Uiso   1.00
O1032  O     0.16667   0.89442   0.79513   0.00000  Uiso   1.00
O1033  O     0.16666   0.77226   0.79510   0.00000  Uiso   1.00
O1034  O     0.16667   0.89441   0.87157   0.00000  Uiso   1.00
O1035  O     0.09058   0.83333   0.86261   0.00000  Uiso   1.00
O1036  O     0.24275   0.83334   0.80405   0.00000  Uiso   1.00
O1037  O     0.09058   0.83334   0.78617   0.00000  Uiso   1.00
O1038  O     0.24275   0.83333   0.88050   0.00000  Uiso   1.00
Zn1039 Zn    0.16667   0.83333   0.88437   0.00000  Uiso   1.00
Zn1040 Zn    0.16667   0.83334   0.78229   0.00000  Uiso   1.00
F1041  F     0.32159   0.82476   0.77181   0.00000  Uiso   1.00
F1042  F     0.01175   0.84191   0.89486   0.00000  Uiso   1.00
C1043  C     0.09660   0.95888   0.76402   0.00000  Uiso   1.00
N1044  N     0.06748   0.94245   0.73630   0.00000  Uiso   1.00
C1045  C     0.23668   0.70778   0.90269   0.00000  Uiso   1.00
N1046  N     0.26577   0.72421   0.93043   0.00000  Uiso   1.00
C1047  C     0.23188   0.88927   0.72145   0.00000  Uiso   1.00
N1048  N     0.25912   0.91264   0.74326   0.00000  Uiso   1.00
C1049  C     0.10145   0.77740   0.94522   0.00000  Uiso   1.00
N1050  N     0.07421   0.75403   0.92341   0.00000  Uiso   1.00
C1051  C     0.50080   0.75344   0.83360   0.00000  Uiso   1.00
C1052  C     0.49919   0.91323   0.83306   0.00000  Uiso   1.00
C1053  C     0.40057   0.83324   0.82155   0.00000  Uiso   1.00
C1054  C     0.59943   0.83342   0.84512   0.00000  Uiso   1.00
C1055  C     0.34592   0.83151   0.81521   0.00000  Uiso   1.00
C1056  C     0.65407   0.83516   0.85146   0.00000  Uiso   1.00
C1057  C     0.46797   0.68899   0.79957   0.00000  Uiso   1.00
C1058  C     0.53202   0.97767   0.86710   0.00000  Uiso   1.00
C1059  C     0.46634   0.97940   0.79871   0.00000  Uiso   1.00
C1060  C     0.53364   0.68727   0.86797   0.00000  Uiso   1.00
C1061  C     0.49880   0.95738   0.83269   0.00000  Uiso   1.00
C1062  C     0.50119   0.70928   0.83398   0.00000  Uiso   1.00
C1063  C     0.53149   0.86033   0.69413   0.00000  Uiso   1.00
C1064  C     0.46851   0.80634   0.97254   0.00000  Uiso   1.00
C1065  C     0.53140   0.86023   0.97956   0.00000  Uiso   1.00
C1066  C     0.46860   0.80644   0.68711   0.00000  Uiso   1.00
H1067  H     0.44276   0.70671   0.77397   0.00000  Uiso   1.00
H1068  H     0.55724   0.95995   0.89270   0.00000  Uiso   1.00
H1069  H     0.55641   0.88165   0.96404   0.00000  Uiso   1.00
H1070  H     0.44359   0.78502   0.70263   0.00000  Uiso   1.00
N1071  N     0.49999   0.83332   0.95240   0.00000  Uiso   1.00
N1072  N     0.50001   0.83334   0.71427   0.00000  Uiso   1.00
O1073  O     0.50000   0.77225   0.87154   0.00000  Uiso   1.00
O1074  O     0.50000   0.89442   0.79513   0.00000  Uiso   1.00
O1075  O     0.50000   0.77226   0.79510   0.00000  Uiso   1.00
O1076  O     0.50000   0.89441   0.87157   0.00000  Uiso   1.00
O1077  O     0.42392   0.83333   0.86261   0.00000  Uiso   1.00
O1078  O     0.57608   0.83334   0.80405   0.00000  Uiso   1.00
O1079  O     0.42392   0.83334   0.78617   0.00000  Uiso   1.00
O1080  O     0.57608   0.83333   0.88050   0.00000  Uiso   1.00
Zn1081 Zn    0.50000   0.83333   0.88437   0.00000  Uiso   1.00
Zn1082 Zn    0.50000   0.83334   0.78229   0.00000  Uiso   1.00
F1083  F     0.65492   0.82476   0.77181   0.00000  Uiso   1.00
F1084  F     0.34508   0.84191   0.89486   0.00000  Uiso   1.00
C1085  C     0.42994   0.95888   0.76402   0.00000  Uiso   1.00
N1086  N     0.40081   0.94245   0.73630   0.00000  Uiso   1.00
C1087  C     0.57001   0.70778   0.90269   0.00000  Uiso   1.00
N1088  N     0.59910   0.72421   0.93043   0.00000  Uiso   1.00
C1089  C     0.56522   0.88927   0.72145   0.00000  Uiso   1.00
N1090  N     0.59245   0.91264   0.74326   0.00000  Uiso   1.00
C1091  C     0.43478   0.77740   0.94522   0.00000  Uiso   1.00
N1092  N     0.40755   0.75403   0.92341   0.00000  Uiso   1.00
C1093  C     0.83414   0.75344   0.83360   0.00000  Uiso   1.00
C1094  C     0.83253   0.91323   0.83306   0.00000  Uiso   1.00
C1095  C     0.73390   0.83324   0.82155   0.00000  Uiso   1.00
C1096  C     0.93277   0.83342   0.84512   0.00000  Uiso   1.00
C1097  C     0.67926   0.83151   0.81521   0.00000  Uiso   1.00
C1098  C     0.98741   0.83516   0.85146   0.00000  Uiso   1.00
C1099  C     0.80130   0.68899   0.79957   0.00000  Uiso   1.00
C1100  C     0.86536   0.97767   0.86710   0.00000  Uiso   1.00
C1101  C     0.79968   0.97940   0.79871   0.00000  Uiso   1.00
C1102  C     0.86697   0.68727   0.86797   0.00000  Uiso   1.00
C1103  C     0.83214   0.95738   0.83269   0.00000  Uiso   1.00
C1104  C     0.83452   0.70928   0.83398   0.00000  Uiso   1.00
C1105  C     0.86483   0.86033   0.69413   0.00000  Uiso   1.00
C1106  C     0.80184   0.80634   0.97254   0.00000  Uiso   1.00
C1107  C     0.86473   0.86023   0.97956   0.00000  Uiso   1.00
C1108  C     0.80194   0.80644   0.68711   0.00000  Uiso   1.00
H1109  H     0.77609   0.70671   0.77397   0.00000  Uiso   1.00
H1110  H     0.89057   0.95995   0.89270   0.00000  Uiso   1.00
H1111  H     0.88974   0.88165   0.96404   0.00000  Uiso   1.00
H1112  H     0.77693   0.78502   0.70263   0.00000  Uiso   1.00
N1113  N     0.83332   0.83332   0.95240   0.00000  Uiso   1.00
N1114  N     0.83335   0.83334   0.71427   0.00000  Uiso   1.00
O1115  O     0.83333   0.77225   0.87154   0.00000  Uiso   1.00
O1116  O     0.83334   0.89442   0.79513   0.00000  Uiso   1.00
O1117  O     0.83333   0.77226   0.79510   0.00000  Uiso   1.00
O1118  O     0.83334   0.89441   0.87157   0.00000  Uiso   1.00
O1119  O     0.75725   0.83333   0.86261   0.00000  Uiso   1.00
O1120  O     0.90942   0.83334   0.80405   0.00000  Uiso   1.00
O1121  O     0.75725   0.83334   0.78617   0.00000  Uiso   1.00
O1122  O     0.90942   0.83333   0.88050   0.00000  Uiso   1.00
Zn1123 Zn    0.83333   0.83333   0.88437   0.00000  Uiso   1.00
Zn1124 Zn    0.83333   0.83334   0.78229   0.00000  Uiso   1.00
F1125  F     0.98825   0.82476   0.77181   0.00000  Uiso   1.00
F1126  F     0.67841   0.84191   0.89486   0.00000  Uiso   1.00
C1127  C     0.76327   0.95888   0.76402   0.00000  Uiso   1.00
N1128  N     0.73415   0.94245   0.73630   0.00000  Uiso   1.00
C1129  C     0.90334   0.70778   0.90269   0.00000  Uiso   1.00
N1130  N     0.93244   0.72421   0.93043   0.00000  Uiso   1.00
C1131  C     0.89855   0.88927   0.72145   0.00000  Uiso   1.00
N1132  N     0.92579   0.91264   0.74326   0.00000  Uiso   1.00
C1133  C     0.76812   0.77740   0.94522   0.00000  Uiso   1.00
N1134  N     0.74088   0.75403   0.92341   0.00000  Uiso   1.00
loop_
_geom_bond_atom_site_label_1
_geom_bond_atom_site_label_2
_geom_bond_distance
_geom_bond_site_symmetry_2
_ccdc_geom_bond_type
C1     O25     1.283   .     A
C1     C12     1.413   .     S
C1     O23     1.282   .     A
C2     O26     1.282   .     A
C2     C11     1.413   .     S
C2     O24     1.282   .     A
C3     O27     1.277   .     A
C3     O29     1.283   .     A
C3     C5      1.402   .     S
C4     O30     1.283   .     A
C4     C6      1.402   .     S
C4     O28     1.277   .     A
C5     C90     1.341   1_455 S
C5     F117    1.365   1_455 S
C6     C47     1.341   .     S
C6     F76     1.365   .     S
C7     C12     1.395   .     A
C7     H17     1.086   .     S
C7     C261    1.374   1_545 S
C8     C11     1.395   .     A
C8     H18     1.086   .     S
C8     C136    1.374   .     S
C9     C11     1.404   .     A
C9     C35     1.447   .     S
C9     C133    1.374   .     S
C10    C12     1.404   .     A
C10    C37     1.447   .     S
C10    C260    1.374   1_545 S
C13    N22     1.373   .     A
C13    C39     1.438   .     S
C13    C771    1.418   1_554 S
C14    C41     1.438   .     S
C14    N21     1.373   .     A
C14    C394    1.418   .     S
C15    N21     1.363   .     A
C15    H19     1.083   .     S
C15    C391    1.418   .     S
C16    H20     1.083   .     S
C16    N22     1.363   .     A
C16    C770    1.418   1_554 S
N21    Zn31    2.014   .     S
N22    Zn32    2.014   .     S
O23    Zn31    1.994   .     S
O24    Zn32    1.994   .     S
O25    Zn32    1.988   .     S
O26    Zn31    1.988   .     S
O27    Zn31    1.983   .     S
O28    Zn32    1.983   .     S
O29    Zn32    1.991   .     S
O30    Zn31    1.991   .     S
F33    C47     1.365   .     S
F34    C90     1.365   1_455 S
C35    N36     1.157   .     T
C37    N38     1.157   .     T
C39    N40     1.158   .     T
C41    N42     1.158   .     T
C43    O67     1.283   .     A
C43    C54     1.413   .     S
C43    O65     1.282   .     A
C44    O68     1.282   .     A
C44    C53     1.413   .     S
C44    O66     1.282   .     A
C45    O69     1.277   .     A
C45    O71     1.283   .     A
C45    C47     1.402   .     S
C46    O72     1.283   .     A
C46    C48     1.402   .     S
C46    O70     1.277   .     A
C48    C89     1.341   .     S
C48    F118    1.365   .     S
C49    C54     1.395   .     A
C49    H59     1.086   .     S
C49    C303    1.374   1_545 S
C50    C53     1.395   .     A
C50    H60     1.086   .     S
C50    C178    1.374   .     S
C51    C53     1.404   .     A
C51    C77     1.447   .     S
C51    C175    1.374   .     S
C52    C54     1.404   .     A
C52    C79     1.447   .     S
C52    C302    1.374   1_545 S
C55    N64     1.373   .     A
C55    C81     1.438   .     S
C55    C813    1.418   1_554 S
C56    C83     1.438   .     S
C56    N63     1.373   .     A
C56    C436    1.418   .     S
C57    N63     1.363   .     A
C57    H61     1.083   .     S
C57    C433    1.418   .     S
C58    H62     1.083   .     S
C58    N64     1.363   .     A
C58    C812    1.418   1_554 S
N63    Zn73    2.014   .     S
N64    Zn74    2.014   .     S
O65    Zn73    1.994   .     S
O66    Zn74    1.994   .     S
O67    Zn74    1.988   .     S
O68    Zn73    1.988   .     S
O69    Zn73    1.983   .     S
O70    Zn74    1.983   .     S
O71    Zn74    1.991   .     S
O72    Zn73    1.991   .     S
F75    C89     1.365   .     S
C77    N78     1.157   .     T
C79    N80     1.157   .     T
C81    N82     1.158   .     T
C83    N84     1.158   .     T
C85    O109    1.283   .     A
C85    C96     1.413   .     S
C85    O107    1.282   .     A
C86    O110    1.282   .     A
C86    C95     1.413   .     S
C86    O108    1.282   .     A
C87    O111    1.277   .     A
C87    O113    1.283   .     A
C87    C89     1.402   .     S
C88    O114    1.283   .     A
C88    C90     1.402   .     S
C88    O112    1.277   .     A
C90    C5      1.341   1_655 S
C90    F34     1.365   1_655 S
C91    C96     1.395   .     A
C91    H101    1.086   .     S
C91    C345    1.374   1_545 S
C92    C95     1.395   .     A
C92    H102    1.086   .     S
C92    C220    1.374   .     S
C93    C95     1.404   .     A
C93    C119    1.447   .     S
C93    C217    1.374   .     S
C94    C96     1.404   .     A
C94    C121    1.447   .     S
C94    C344    1.374   1_545 S
C97    N106    1.373   .     A
C97    C123    1.438   .     S
C97    C855    1.418   1_554 S
C98    C125    1.438   .     S
C98    N105    1.373   .     A
C98    C478    1.418   .     S
C99    N105    1.363   .     A
C99    H103    1.083   .     S
C99    C475    1.418   .     S
C100   H104    1.083   .     S
C100   N106    1.363   .     A
C100   C854    1.418   1_554 S
N105   Zn115   2.014   .     S
N106   Zn116   2.014   .     S
O107   Zn115   1.994   .     S
O108   Zn116   1.994   .     S
O109   Zn116   1.988   .     S
O110   Zn115   1.988   .     S
O111   Zn115   1.983   .     S
O112   Zn116   1.983   .     S
O113   Zn116   1.991   .     S
O114   Zn115   1.991   .     S
F117   C5      1.365   1_655 S
C119   N120    1.157   .     T
C121   N122    1.157   .     T
C123   N124    1.158   .     T
C125   N126    1.158   .     T
C127   O151    1.283   .     A
C127   C138    1.413   .     S
C127   O149    1.282   .     A
C128   O152    1.282   .     A
C128   C137    1.413   .     S
C128   O150    1.282   .     A
C129   O153    1.277   .     A
C129   O155    1.283   .     A
C129   C131    1.402   .     S
C130   O156    1.283   .     A
C130   C132    1.402   .     S
C130   O154    1.277   .     A
C131   C216    1.341   1_455 S
C131   F243    1.365   1_455 S
C132   C173    1.341   .     S
C132   F202    1.365   .     S
C133   C138    1.395   .     A
C133   H143    1.086   .     S
C134   C137    1.395   .     A
C134   H144    1.086   .     S
C134   C262    1.374   .     S
C135   C137    1.404   .     A
C135   C161    1.447   .     S
C135   C259    1.374   .     S
C136   C138    1.404   .     A
C136   C163    1.447   .     S
C139   N148    1.373   .     A
C139   C165    1.438   .     S
C139   C897    1.418   1_554 S
C140   C167    1.438   .     S
C140   N147    1.373   .     A
C140   C520    1.418   .     S
C141   N147    1.363   .     A
C141   H145    1.083   .     S
C141   C517    1.418   .     S
C142   H146    1.083   .     S
C142   N148    1.363   .     A
C142   C896    1.418   1_554 S
N147   Zn157   2.014   .     S
N148   Zn158   2.014   .     S
O149   Zn157   1.994   .     S
O150   Zn158   1.994   .     S
O151   Zn158   1.988   .     S
O152   Zn157   1.988   .     S
O153   Zn157   1.983   .     S
O154   Zn158   1.983   .     S
O155   Zn158   1.991   .     S
O156   Zn157   1.991   .     S
F159   C173    1.365   .     S
F160   C216    1.365   1_455 S
C161   N162    1.157   .     T
C163   N164    1.157   .     T
C165   N166    1.158   .     T
C167   N168    1.158   .     T
C169   O193    1.283   .     A
C169   C180    1.413   .     S
C169   O191    1.282   .     A
C170   O194    1.282   .     A
C170   C179    1.413   .     S
C170   O192    1.282   .     A
C171   O195    1.277   .     A
C171   O197    1.283   .     A
C171   C173    1.402   .     S
C172   O198    1.283   .     A
C172   C174    1.402   .     S
C172   O196    1.277   .     A
C174   C215    1.341   .     S
C174   F244    1.365   .     S
C175   C180    1.395   .     A
C175   H185    1.086   .     S
C176   C179    1.395   .     A
C176   H186    1.086   .     S
C176   C304    1.374   .     S
C177   C179    1.404   .     A
C177   C203    1.447   .     S
C177   C301    1.374   .     S
C178   C180    1.404   .     A
C178   C205    1.447   .     S
C181   N190    1.373   .     A
C181   C207    1.438   .     S
C181   C939    1.418   1_554 S
C182   C209    1.438   .     S
C182   N189    1.373   .     A
C182   C562    1.418   .     S
C183   N189    1.363   .     A
C183   H187    1.083   .     S
C183   C559    1.418   .     S
C184   H188    1.083   .     S
C184   N190    1.363   .     A
C184   C938    1.418   1_554 S
N189   Zn199   2.014   .     S
N190   Zn200   2.014   .     S
O191   Zn199   1.994   .     S
O192   Zn200   1.994   .     S
O193   Zn200   1.988   .     S
O194   Zn199   1.988   .     S
O195   Zn199   1.983   .     S
O196   Zn200   1.983   .     S
O197   Zn200   1.991   .     S
O198   Zn199   1.991   .     S
F201   C215    1.365   .     S
C203   N204    1.157   .     T
C205   N206    1.157   .     T
C207   N208    1.158   .     T
C209   N210    1.158   .     T
C211   O235    1.283   .     A
C211   C222    1.413   .     S
C211   O233    1.282   .     A
C212   O236    1.282   .     A
C212   C221    1.413   .     S
C212   O234    1.282   .     A
C213   O237    1.277   .     A
C213   O239    1.283   .     A
C213   C215    1.402   .     S
C214   O240    1.283   .     A
C214   C216    1.402   .     S
C214   O238    1.277   .     A
C216   C131    1.341   1_655 S
C216   F160    1.365   1_655 S
C217   C222    1.395   .     A
C217   H227    1.086   .     S
C218   C221    1.395   .     A
C218   H228    1.086   .     S
C218   C346    1.374   .     S
C219   C221    1.404   .     A
C219   C245    1.447   .     S
C219   C343    1.374   .     S
C220   C222    1.404   .     A
C220   C247    1.447   .     S
C223   N232    1.373   .     A
C223   C249    1.438   .     S
C223   C981    1.418   1_554 S
C224   C251    1.438   .     S
C224   N231    1.373   .     A
C224   C604    1.418   .     S
C225   N231    1.363   .     A
C225   H229    1.083   .     S
C225   C601    1.418   .     S
C226   H230    1.083   .     S
C226   N232    1.363   .     A
C226   C980    1.418   1_554 S
N231   Zn241   2.014   .     S
N232   Zn242   2.014   .     S
O233   Zn241   1.994   .     S
O234   Zn242   1.994   .     S
O235   Zn242   1.988   .     S
O236   Zn241   1.988   .     S
O237   Zn241   1.983   .     S
O238   Zn242   1.983   .     S
O239   Zn242   1.991   .     S
O240   Zn241   1.991   .     S
F243   C131    1.365   1_655 S
C245   N246    1.157   .     T
C247   N248    1.157   .     T
C249   N250    1.158   .     T
C251   N252    1.158   .     T
C253   O277    1.283   .     A
C253   C264    1.413   .     S
C253   O275    1.282   .     A
C254   O278    1.282   .     A
C254   C263    1.413   .     S
C254   O276    1.282   .     A
C255   O279    1.277   .     A
C255   O281    1.283   .     A
C255   C257    1.402   .     S
C256   O282    1.283   .     A
C256   C258    1.402   .     S
C256   O280    1.277   .     A
C257   C342    1.341   1_455 S
C257   F369    1.365   1_455 S
C258   C299    1.341   .     S
C258   F328    1.365   .     S
C259   C264    1.395   .     A
C259   H269    1.086   .     S
C260   C263    1.395   .     A
C260   H270    1.086   .     S
C260   C10     1.374   1_565 S
C261   C263    1.404   .     A
C261   C287    1.447   .     S
C261   C7      1.374   1_565 S
C262   C264    1.404   .     A
C262   C289    1.447   .     S
C265   N274    1.373   .     A
C265   C291    1.438   .     S
C265   C1023   1.418   1_554 S
C266   C293    1.438   .     S
C266   N273    1.373   .     A
C266   C646    1.418   .     S
C267   N273    1.363   .     A
C267   H271    1.083   .     S
C267   C643    1.418   .     S
C268   H272    1.083   .     S
C268   N274    1.363   .     A
C268   C1022   1.418   1_554 S
N273   Zn283   2.014   .     S
N274   Zn284   2.014   .     S
O275   Zn283   1.994   .     S
O276   Zn284   1.994   .     S
O277   Zn284   1.988   .     S
O278   Zn283   1.988   .     S
O279   Zn283   1.983   .     S
O280   Zn284   1.983   .     S
O281   Zn284   1.991   .     S
O282   Zn283   1.991   .     S
F285   C299    1.365   .     S
F286   C342    1.365   1_455 S
C287   N288    1.157   .     T
C289   N290    1.157   .     T
C291   N292    1.158   .     T
C293   N294    1.158   .     T
C295   O319    1.283   .     A
C295   C306    1.413   .     S
C295   O317    1.282   .     A
C296   O320    1.282   .     A
C296   C305    1.413   .     S
C296   O318    1.282   .     A
C297   O321    1.277   .     A
C297   O323    1.283   .     A
C297   C299    1.402   .     S
C298   O324    1.283   .     A
C298   C300    1.402   .     S
C298   O322    1.277   .     A
C300   C341    1.341   .     S
C300   F370    1.365   .     S
C301   C306    1.395   .     A
C301   H311    1.086   .     S
C302   C305    1.395   .     A
C302   H312    1.086   .     S
C302   C52     1.374   1_565 S
C303   C305    1.404   .     A
C303   C329    1.447   .     S
C303   C49     1.374   1_565 S
C304   C306    1.404   .     A
C304   C331    1.447   .     S
C307   N316    1.373   .     A
C307   C333    1.438   .     S
C307   C1065   1.418   1_554 S
C308   C335    1.438   .     S
C308   N315    1.373   .     A
C308   C688    1.418   .     S
C309   N315    1.363   .     A
C309   H313    1.083   .     S
C309   C685    1.418   .     S
C310   H314    1.083   .     S
C310   N316    1.363   .     A
C310   C1064   1.418   1_554 S
N315   Zn325   2.014   .     S
N316   Zn326   2.014   .     S
O317   Zn325   1.994   .     S
O318   Zn326   1.994   .     S
O319   Zn326   1.988   .     S
O320   Zn325   1.988   .     S
O321   Zn325   1.983   .     S
O322   Zn326   1.983   .     S
O323   Zn326   1.991   .     S
O324   Zn325   1.991   .     S
F327   C341    1.365   .     S
C329   N330    1.157   .     T
C331   N332    1.157   .     T
C333   N334    1.158   .     T
C335   N336    1.158   .     T
C337   O361    1.283   .     A
C337   C348    1.413   .     S
C337   O359    1.282   .     A
C338   O362    1.282   .     A
C338   C347    1.413   .     S
C338   O360    1.282   .     A
C339   O363    1.277   .     A
C339   O365    1.283   .     A
C339   C341    1.402   .     S
C340   O366    1.283   .     A
C340   C342    1.402   .     S
C340   O364    1.277   .     A
C342   C257    1.341   1_655 S
C342   F286    1.365   1_655 S
C343   C348    1.395   .     A
C343   H353    1.086   .     S
C344   C347    1.395   .     A
C344   H354    1.086   .     S
C344   C94     1.374   1_565 S
C345   C347    1.404   .     A
C345   C371    1.447   .     S
C345   C91     1.374   1_565 S
C346   C348    1.404   .     A
C346   C373    1.447   .     S
C349   N358    1.373   .     A
C349   C375    1.438   .     S
C349   C1107   1.418   1_554 S
C350   C377    1.438   .     S
C350   N357    1.373   .     A
C350   C730    1.418   .     S
C351   N357    1.363   .     A
C351   H355    1.083   .     S
C351   C727    1.418   .     S
C352   H356    1.083   .     S
C352   N358    1.363   .     A
C352   C1106   1.418   1_554 S
N357   Zn367   2.014   .     S
N358   Zn368   2.014   .     S
O359   Zn367   1.994   .     S
O360   Zn368   1.994   .     S
O361   Zn368   1.988   .     S
O362   Zn367   1.988   .     S
O363   Zn367   1.983   .     S
O364   Zn368   1.983   .     S
O365   Zn368   1.991   .     S
O366   Zn367   1.991   .     S
F369   C257    1.365   1_655 S
C371   N372    1.157   .     T
C373   N374    1.157   .     T
C375   N376    1.158   .     T
C377   N378    1.158   .     T
C379   O403    1.283   .     A
C379   C390    1.413   .     S
C379   O401    1.282   .     A
C380   O404    1.282   .     A
C380   C389    1.413   .     S
C380   O402    1.282   .     A
C381   O405    1.277   .     A
C381   O407    1.283   .     A
C381   C383    1.402   .     S
C382   O408    1.283   .     A
C382   C384    1.402   .     S
C382   O406    1.277   .     A
C383   C468    1.341   1_455 S
C383   F495    1.365   1_455 S
C384   C425    1.341   .     S
C384   F454    1.365   .     S
C385   C390    1.395   .     A
C385   H395    1.086   .     S
C385   C639    1.374   1_545 S
C386   C389    1.395   .     A
C386   H396    1.086   .     S
C386   C514    1.374   .     S
C387   C389    1.404   .     A
C387   C413    1.447   .     S
C387   C511    1.374   .     S
C388   C390    1.404   .     A
C388   C415    1.447   .     S
C388   C638    1.374   1_545 S
C391   N400    1.373   .     A
C391   C417    1.438   .     S
C392   C419    1.438   .     S
C392   N399    1.373   .     A
C392   C772    1.418   .     S
C393   N399    1.363   .     A
C393   H397    1.083   .     S
C393   C769    1.418   .     S
C394   H398    1.083   .     S
C394   N400    1.363   .     A
N399   Zn409   2.014   .     S
N400   Zn410   2.014   .     S
O401   Zn409   1.994   .     S
O402   Zn410   1.994   .     S
O403   Zn410   1.988   .     S
O404   Zn409   1.988   .     S
O405   Zn409   1.983   .     S
O406   Zn410   1.983   .     S
O407   Zn410   1.991   .     S
O408   Zn409   1.991   .     S
F411   C425    1.365   .     S
F412   C468    1.365   1_455 S
C413   N414    1.157   .     T
C415   N416    1.157   .     T
C417   N418    1.158   .     T
C419   N420    1.158   .     T
C421   O445    1.283   .     A
C421   C432    1.413   .     S
C421   O443    1.282   .     A
C422   O446    1.282   .     A
C422   C431    1.413   .     S
C422   O444    1.282   .     A
C423   O447    1.277   .     A
C423   O449    1.283   .     A
C423   C425    1.402   .     S
C424   O450    1.283   .     A
C424   C426    1.402   .     S
C424   O448    1.277   .     A
C426   C467    1.341   .     S
C426   F496    1.365   .     S
C427   C432    1.395   .     A
C427   H437    1.086   .     S
C427   C681    1.374   1_545 S
C428   C431    1.395   .     A
C428   H438    1.086   .     S
C428   C556    1.374   .     S
C429   C431    1.404   .     A
C429   C455    1.447   .     S
C429   C553    1.374   .     S
C430   C432    1.404   .     A
C430   C457    1.447   .     S
C430   C680    1.374   1_545 S
C433   N442    1.373   .     A
C433   C459    1.438   .     S
C434   C461    1.438   .     S
C434   N441    1.373   .     A
C434   C814    1.418   .     S
C435   N441    1.363   .     A
C435   H439    1.083   .     S
C435   C811    1.418   .     S
C436   H440    1.083   .     S
C436   N442    1.363   .     A
N441   Zn451   2.014   .     S
N442   Zn452   2.014   .     S
O443   Zn451   1.994   .     S
O444   Zn452   1.994   .     S
O445   Zn452   1.988   .     S
O446   Zn451   1.988   .     S
O447   Zn451   1.983   .     S
O448   Zn452   1.983   .     S
O449   Zn452   1.991   .     S
O450   Zn451   1.991   .     S
F453   C467    1.365   .     S
C455   N456    1.157   .     T
C457   N458    1.157   .     T
C459   N460    1.158   .     T
C461   N462    1.158   .     T
C463   O487    1.283   .     A
C463   C474    1.413   .     S
C463   O485    1.282   .     A
C464   O488    1.282   .     A
C464   C473    1.413   .     S
C464   O486    1.282   .     A
C465   O489    1.277   .     A
C465   O491    1.283   .     A
C465   C467    1.402   .     S
C466   O492    1.283   .     A
C466   C468    1.402   .     S
C466   O490    1.277   .     A
C468   C383    1.341   1_655 S
C468   F412    1.365   1_655 S
C469   C474    1.395   .     A
C469   H479    1.086   .     S
C469   C723    1.374   1_545 S
C470   C473    1.395   .     A
C470   H480    1.086   .     S
C470   C598    1.374   .     S
C471   C473    1.404   .     A
C471   C497    1.447   .     S
C471   C595    1.374   .     S
C472   C474    1.404   .     A
C472   C499    1.447   .     S
C472   C722    1.374   1_545 S
C475   N484    1.373   .     A
C475   C501    1.438   .     S
C476   C503    1.438   .     S
C476   N483    1.373   .     A
C476   C856    1.418   .     S
C477   N483    1.363   .     A
C477   H481    1.083   .     S
C477   C853    1.418   .     S
C478   H482    1.083   .     S
C478   N484    1.363   .     A
N483   Zn493   2.014   .     S
N484   Zn494   2.014   .     S
O485   Zn493   1.994   .     S
O486   Zn494   1.994   .     S
O487   Zn494   1.988   .     S
O488   Zn493   1.988   .     S
O489   Zn493   1.983   .     S
O490   Zn494   1.983   .     S
O491   Zn494   1.991   .     S
O492   Zn493   1.991   .     S
F495   C383    1.365   1_655 S
C497   N498    1.157   .     T
C499   N500    1.157   .     T
C501   N502    1.158   .     T
C503   N504    1.158   .     T
C505   O529    1.283   .     A
C505   C516    1.413   .     S
C505   O527    1.282   .     A
C506   O530    1.282   .     A
C506   C515    1.413   .     S
C506   O528    1.282   .     A
C507   O531    1.277   .     A
C507   O533    1.283   .     A
C507   C509    1.402   .     S
C508   O534    1.283   .     A
C508   C510    1.402   .     S
C508   O532    1.277   .     A
C509   C594    1.341   1_455 S
C509   F621    1.365   1_455 S
C510   C551    1.341   .     S
C510   F580    1.365   .     S
C511   C516    1.395   .     A
C511   H521    1.086   .     S
C512   C515    1.395   .     A
C512   H522    1.086   .     S
C512   C640    1.374   .     S
C513   C515    1.404   .     A
C513   C539    1.447   .     S
C513   C637    1.374   .     S
C514   C516    1.404   .     A
C514   C541    1.447   .     S
C517   N526    1.373   .     A
C517   C543    1.438   .     S
C518   C545    1.438   .     S
C518   N525    1.373   .     A
C518   C898    1.418   .     S
C519   N525    1.363   .     A
C519   H523    1.083   .     S
C519   C895    1.418   .     S
C520   H524    1.083   .     S
C520   N526    1.363   .     A
N525   Zn535   2.014   .     S
N526   Zn536   2.014   .     S
O527   Zn535   1.994   .     S
O528   Zn536   1.994   .     S
O529   Zn536   1.988   .     S
O530   Zn535   1.988   .     S
O531   Zn535   1.983   .     S
O532   Zn536   1.983   .     S
O533   Zn536   1.991   .     S
O534   Zn535   1.991   .     S
F537   C551    1.365   .     S
F538   C594    1.365   1_455 S
C539   N540    1.157   .     T
C541   N542    1.157   .     T
C543   N544    1.158   .     T
C545   N546    1.158   .     T
C547   O571    1.283   .     A
C547   C558    1.413   .     S
C547   O569    1.282   .     A
C548   O572    1.282   .     A
C548   C557    1.413   .     S
C548   O570    1.282   .     A
C549   O573    1.277   .     A
C549   O575    1.283   .     A
C549   C551    1.402   .     S
C550   O576    1.283   .     A
C550   C552    1.402   .     S
C550   O574    1.277   .     A
C552   C593    1.341   .     S
C552   F622    1.365   .     S
C553   C558    1.395   .     A
C553   H563    1.086   .     S
C554   C557    1.395   .     A
C554   H564    1.086   .     S
C554   C682    1.374   .     S
C555   C557    1.404   .     A
C555   C581    1.447   .     S
C555   C679    1.374   .     S
C556   C558    1.404   .     A
C556   C583    1.447   .     S
C559   N568    1.373   .     A
C559   C585    1.438   .     S
C560   C587    1.438   .     S
C560   N567    1.373   .     A
C560   C940    1.418   .     S
C561   N567    1.363   .     A
C561   H565    1.083   .     S
C561   C937    1.418   .     S
C562   H566    1.083   .     S
C562   N568    1.363   .     A
N567   Zn577   2.014   .     S
N568   Zn578   2.014   .     S
O569   Zn577   1.994   .     S
O570   Zn578   1.994   .     S
O571   Zn578   1.988   .     S
O572   Zn577   1.988   .     S
O573   Zn577   1.983   .     S
O574   Zn578   1.983   .     S
O575   Zn578   1.991   .     S
O576   Zn577   1.991   .     S
F579   C593    1.365   .     S
C581   N582    1.157   .     T
C583   N584    1.157   .     T
C585   N586    1.158   .     T
C587   N588    1.158   .     T
C589   O613    1.283   .     A
C589   C600    1.413   .     S
C589   O611    1.282   .     A
C590   O614    1.282   .     A
C590   C599    1.413   .     S
C590   O612    1.282   .     A
C591   O615    1.277   .     A
C591   O617    1.283   .     A
C591   C593    1.402   .     S
C592   O618    1.283   .     A
C592   C594    1.402   .     S
C592   O616    1.277   .     A
C594   C509    1.341   1_655 S
C594   F538    1.365   1_655 S
C595   C600    1.395   .     A
C595   H605    1.086   .     S
C596   C599    1.395   .     A
C596   H606    1.086   .     S
C596   C724    1.374   .     S
C597   C599    1.404   .     A
C597   C623    1.447   .     S
C597   C721    1.374   .     S
C598   C600    1.404   .     A
C598   C625    1.447   .     S
C601   N610    1.373   .     A
C601   C627    1.438   .     S
C602   C629    1.438   .     S
C602   N609    1.373   .     A
C602   C982    1.418   .     S
C603   N609    1.363   .     A
C603   H607    1.083   .     S
C603   C979    1.418   .     S
C604   H608    1.083   .     S
C604   N610    1.363   .     A
N609   Zn619   2.014   .     S
N610   Zn620   2.014   .     S
O611   Zn619   1.994   .     S
O612   Zn620   1.994   .     S
O613   Zn620   1.988   .     S
O614   Zn619   1.988   .     S
O615   Zn619   1.983   .     S
O616   Zn620   1.983   .     S
O617   Zn620   1.991   .     S
O618   Zn619   1.991   .     S
F621   C509    1.365   1_655 S
C623   N624    1.157   .     T
C625   N626    1.157   .     T
C627   N628    1.158   .     T
C629   N630    1.158   .     T
C631   O655    1.283   .     A
C631   C642    1.413   .     S
C631   O653    1.282   .     A
C632   O656    1.282   .     A
C632   C641    1.413   .     S
C632   O654    1.282   .     A
C633   O657    1.277   .     A
C633   O659    1.283   .     A
C633   C635    1.402   .     S
C634   O660    1.283   .     A
C634   C636    1.402   .     S
C634   O658    1.277   .     A
C635   C720    1.341   1_455 S
C635   F747    1.365   1_455 S
C636   C677    1.341   .     S
C636   F706    1.365   .     S
C637   C642    1.395   .     A
C637   H647    1.086   .     S
C638   C641    1.395   .     A
C638   H648    1.086   .     S
C638   C388    1.374   1_565 S
C639   C641    1.404   .     A
C639   C665    1.447   .     S
C639   C385    1.374   1_565 S
C640   C642    1.404   .     A
C640   C667    1.447   .     S
C643   N652    1.373   .     A
C643   C669    1.438   .     S
C644   C671    1.438   .     S
C644   N651    1.373   .     A
C644   C1024   1.418   .     S
C645   N651    1.363   .     A
C645   H649    1.083   .     S
C645   C1021   1.418   .     S
C646   H650    1.083   .     S
C646   N652    1.363   .     A
N651   Zn661   2.014   .     S
N652   Zn662   2.014   .     S
O653   Zn661   1.994   .     S
O654   Zn662   1.994   .     S
O655   Zn662   1.988   .     S
O656   Zn661   1.988   .     S
O657   Zn661   1.983   .     S
O658   Zn662   1.983   .     S
O659   Zn662   1.991   .     S
O660   Zn661   1.991   .     S
F663   C677    1.365   .     S
F664   C720    1.365   1_455 S
C665   N666    1.157   .     T
C667   N668    1.157   .     T
C669   N670    1.158   .     T
C671   N672    1.158   .     T
C673   O697    1.283   .     A
C673   C684    1.413   .     S
C673   O695    1.282   .     A
C674   O698    1.282   .     A
C674   C683    1.413   .     S
C674   O696    1.282   .     A
C675   O699    1.277   .     A
C675   O701    1.283   .     A
C675   C677    1.402   .     S
C676   O702    1.283   .     A
C676   C678    1.402   .     S
C676   O700    1.277   .     A
C678   C719    1.341   .     S
C678   F748    1.365   .     S
C679   C684    1.395   .     A
C679   H689    1.086   .     S
C680   C683    1.395   .     A
C680   H690    1.086   .     S
C680   C430    1.374   1_565 S
C681   C683    1.404   .     A
C681   C707    1.447   .     S
C681   C427    1.374   1_565 S
C682   C684    1.404   .     A
C682   C709    1.447   .     S
C685   N694    1.373   .     A
C685   C711    1.438   .     S
C686   C713    1.438   .     S
C686   N693    1.373   .     A
C686   C1066   1.418   .     S
C687   N693    1.363   .     A
C687   H691    1.083   .     S
C687   C1063   1.418   .     S
C688   H692    1.083   .     S
C688   N694    1.363   .     A
N693   Zn703   2.014   .     S
N694   Zn704   2.014   .     S
O695   Zn703   1.994   .     S
O696   Zn704   1.994   .     S
O697   Zn704   1.988   .     S
O698   Zn703   1.988   .     S
O699   Zn703   1.983   .     S
O700   Zn704   1.983   .     S
O701   Zn704   1.991   .     S
O702   Zn703   1.991   .     S
F705   C719    1.365   .     S
C707   N708    1.157   .     T
C709   N710    1.157   .     T
C711   N712    1.158   .     T
C713   N714    1.158   .     T
C715   O739    1.283   .     A
C715   C726    1.413   .     S
C715   O737    1.282   .     A
C716   O740    1.282   .     A
C716   C725    1.413   .     S
C716   O738    1.282   .     A
C717   O741    1.277   .     A
C717   O743    1.283   .     A
C717   C719    1.402   .     S
C718   O744    1.283   .     A
C718   C720    1.402   .     S
C718   O742    1.277   .     A
C720   C635    1.341   1_655 S
C720   F664    1.365   1_655 S
C721   C726    1.395   .     A
C721   H731    1.086   .     S
C722   C725    1.395   .     A
C722   H732    1.086   .     S
C722   C472    1.374   1_565 S
C723   C725    1.404   .     A
C723   C749    1.447   .     S
C723   C469    1.374   1_565 S
C724   C726    1.404   .     A
C724   C751    1.447   .     S
C727   N736    1.373   .     A
C727   C753    1.438   .     S
C728   C755    1.438   .     S
C728   N735    1.373   .     A
C728   C1108   1.418   .     S
C729   N735    1.363   .     A
C729   H733    1.083   .     S
C729   C1105   1.418   .     S
C730   H734    1.083   .     S
C730   N736    1.363   .     A
N735   Zn745   2.014   .     S
N736   Zn746   2.014   .     S
O737   Zn745   1.994   .     S
O738   Zn746   1.994   .     S
O739   Zn746   1.988   .     S
O740   Zn745   1.988   .     S
O741   Zn745   1.983   .     S
O742   Zn746   1.983   .     S
O743   Zn746   1.991   .     S
O744   Zn745   1.991   .     S
F747   C635    1.365   1_655 S
C749   N750    1.157   .     T
C751   N752    1.157   .     T
C753   N754    1.158   .     T
C755   N756    1.158   .     T
C757   O781    1.283   .     A
C757   C768    1.413   .     S
C757   O779    1.282   .     A
C758   O782    1.282   .     A
C758   C767    1.413   .     S
C758   O780    1.282   .     A
C759   O783    1.277   .     A
C759   O785    1.283   .     A
C759   C761    1.402   .     S
C760   O786    1.283   .     A
C760   C762    1.402   .     S
C760   O784    1.277   .     A
C761   C846    1.341   1_455 S
C761   F873    1.365   1_455 S
C762   C803    1.341   .     S
C762   F832    1.365   .     S
C763   C768    1.395   .     A
C763   H773    1.086   .     S
C763   C1017   1.374   1_545 S
C764   C767    1.395   .     A
C764   H774    1.086   .     S
C764   C892    1.374   .     S
C765   C767    1.404   .     A
C765   C791    1.447   .     S
C765   C889    1.374   .     S
C766   C768    1.404   .     A
C766   C793    1.447   .     S
C766   C1016   1.374   1_545 S
C769   N778    1.373   .     A
C769   C795    1.438   .     S
C770   C797    1.438   .     S
C770   N777    1.373   .     A
C770   C16     1.418   1_556 S
C771   N777    1.363   .     A
C771   H775    1.083   .     S
C771   C13     1.418   1_556 S
C772   H776    1.083   .     S
C772   N778    1.363   .     A
N777   Zn787   2.014   .     S
N778   Zn788   2.014   .     S
O779   Zn787   1.994   .     S
O780   Zn788   1.994   .     S
O781   Zn788   1.988   .     S
O782   Zn787   1.988   .     S
O783   Zn787   1.983   .     S
O784   Zn788   1.983   .     S
O785   Zn788   1.991   .     S
O786   Zn787   1.991   .     S
F789   C803    1.365   .     S
F790   C846    1.365   1_455 S
C791   N792    1.157   .     T
C793   N794    1.157   .     T
C795   N796    1.158   .     T
C797   N798    1.158   .     T
C799   O823    1.283   .     A
C799   C810    1.413   .     S
C799   O821    1.282   .     A
C800   O824    1.282   .     A
C800   C809    1.413   .     S
C800   O822    1.282   .     A
C801   O825    1.277   .     A
C801   O827    1.283   .     A
C801   C803    1.402   .     S
C802   O828    1.283   .     A
C802   C804    1.402   .     S
C802   O826    1.277   .     A
C804   C845    1.341   .     S
C804   F874    1.365   .     S
C805   C810    1.395   .     A
C805   H815    1.086   .     S
C805   C1059   1.374   1_545 S
C806   C809    1.395   .     A
C806   H816    1.086   .     S
C806   C934    1.374   .     S
C807   C809    1.404   .     A
C807   C833    1.447   .     S
C807   C931    1.374   .     S
C808   C810    1.404   .     A
C808   C835    1.447   .     S
C808   C1058   1.374   1_545 S
C811   N820    1.373   .     A
C811   C837    1.438   .     S
C812   C839    1.438   .     S
C812   N819    1.373   .     A
C812   C58     1.418   1_556 S
C813   N819    1.363   .     A
C813   H817    1.083   .     S
C813   C55     1.418   1_556 S
C814   H818    1.083   .     S
C814   N820    1.363   .     A
N819   Zn829   2.014   .     S
N820   Zn830   2.014   .     S
O821   Zn829   1.994   .     S
O822   Zn830   1.994   .     S
O823   Zn830   1.988   .     S
O824   Zn829   1.988   .     S
O825   Zn829   1.983   .     S
O826   Zn830   1.983   .     S
O827   Zn830   1.991   .     S
O828   Zn829   1.991   .     S
F831   C845    1.365   .     S
C833   N834    1.157   .     T
C835   N836    1.157   .     T
C837   N838    1.158   .     T
C839   N840    1.158   .     T
C841   O865    1.283   .     A
C841   C852    1.413   .     S
C841   O863    1.282   .     A
C842   O866    1.282   .     A
C842   C851    1.413   .     S
C842   O864    1.282   .     A
C843   O867    1.277   .     A
C843   O869    1.283   .     A
C843   C845    1.402   .     S
C844   O870    1.283   .     A
C844   C846    1.402   .     S
C844   O868    1.277   .     A
C846   C761    1.341   1_655 S
C846   F790    1.365   1_655 S
C847   C852    1.395   .     A
C847   H857    1.086   .     S
C847   C1101   1.374   1_545 S
C848   C851    1.395   .     A
C848   H858    1.086   .     S
C848   C976    1.374   .     S
C849   C851    1.404   .     A
C849   C875    1.447   .     S
C849   C973    1.374   .     S
C850   C852    1.404   .     A
C850   C877    1.447   .     S
C850   C1100   1.374   1_545 S
C853   N862    1.373   .     A
C853   C879    1.438   .     S
C854   C881    1.438   .     S
C854   N861    1.373   .     A
C854   C100    1.418   1_556 S
C855   N861    1.363   .     A
C855   H859    1.083   .     S
C855   C97     1.418   1_556 S
C856   H860    1.083   .     S
C856   N862    1.363   .     A
N861   Zn871   2.014   .     S
N862   Zn872   2.014   .     S
O863   Zn871   1.994   .     S
O864   Zn872   1.994   .     S
O865   Zn872   1.988   .     S
O866   Zn871   1.988   .     S
O867   Zn871   1.983   .     S
O868   Zn872   1.983   .     S
O869   Zn872   1.991   .     S
O870   Zn871   1.991   .     S
F873   C761    1.365   1_655 S
C875   N876    1.157   .     T
C877   N878    1.157   .     T
C879   N880    1.158   .     T
C881   N882    1.158   .     T
C883   O907    1.283   .     A
C883   C894    1.413   .     S
C883   O905    1.282   .     A
C884   O908    1.282   .     A
C884   C893    1.413   .     S
C884   O906    1.282   .     A
C885   O909    1.277   .     A
C885   O911    1.283   .     A
C885   C887    1.402   .     S
C886   O912    1.283   .     A
C886   C888    1.402   .     S
C886   O910    1.277   .     A
C887   C972    1.341   1_455 S
C887   F999    1.365   1_455 S
C888   C929    1.341   .     S
C888   F958    1.365   .     S
C889   C894    1.395   .     A
C889   H899    1.086   .     S
C890   C893    1.395   .     A
C890   H900    1.086   .     S
C890   C1018   1.374   .     S
C891   C893    1.404   .     A
C891   C917    1.447   .     S
C891   C1015   1.374   .     S
C892   C894    1.404   .     A
C892   C919    1.447   .     S
C895   N904    1.373   .     A
C895   C921    1.438   .     S
C896   C923    1.438   .     S
C896   N903    1.373   .     A
C896   C142    1.418   1_556 S
C897   N903    1.363   .     A
C897   H901    1.083   .     S
C897   C139    1.418   1_556 S
C898   H902    1.083   .     S
C898   N904    1.363   .     A
N903   Zn913   2.014   .     S
N904   Zn914   2.014   .     S
O905   Zn913   1.994   .     S
O906   Zn914   1.994   .     S
O907   Zn914   1.988   .     S
O908   Zn913   1.988   .     S
O909   Zn913   1.983   .     S
O910   Zn914   1.983   .     S
O911   Zn914   1.991   .     S
O912   Zn913   1.991   .     S
F915   C929    1.365   .     S
F916   C972    1.365   1_455 S
C917   N918    1.157   .     T
C919   N920    1.157   .     T
C921   N922    1.158   .     T
C923   N924    1.158   .     T
C925   O949    1.283   .     A
C925   C936    1.413   .     S
C925   O947    1.282   .     A
C926   O950    1.282   .     A
C926   C935    1.413   .     S
C926   O948    1.282   .     A
C927   O951    1.277   .     A
C927   O953    1.283   .     A
C927   C929    1.402   .     S
C928   O954    1.283   .     A
C928   C930    1.402   .     S
C928   O952    1.277   .     A
C930   C971    1.341   .     S
C930   F1000   1.365   .     S
C931   C936    1.395   .     A
C931   H941    1.086   .     S
C932   C935    1.395   .     A
C932   H942    1.086   .     S
C932   C1060   1.374   .     S
C933   C935    1.404   .     A
C933   C959    1.447   .     S
C933   C1057   1.374   .     S
C934   C936    1.404   .     A
C934   C961    1.447   .     S
C937   N946    1.373   .     A
C937   C963    1.438   .     S
C938   C965    1.438   .     S
C938   N945    1.373   .     A
C938   C184    1.418   1_556 S
C939   N945    1.363   .     A
C939   H943    1.083   .     S
C939   C181    1.418   1_556 S
C940   H944    1.083   .     S
C940   N946    1.363   .     A
N945   Zn955   2.014   .     S
N946   Zn956   2.014   .     S
O947   Zn955   1.994   .     S
O948   Zn956   1.994   .     S
O949   Zn956   1.988   .     S
O950   Zn955   1.988   .     S
O951   Zn955   1.983   .     S
O952   Zn956   1.983   .     S
O953   Zn956   1.991   .     S
O954   Zn955   1.991   .     S
F957   C971    1.365   .     S
C959   N960    1.157   .     T
C961   N962    1.157   .     T
C963   N964    1.158   .     T
C965   N966    1.158   .     T
C967   O991    1.283   .     A
C967   C978    1.413   .     S
C967   O989    1.282   .     A
C968   O992    1.282   .     A
C968   C977    1.413   .     S
C968   O990    1.282   .     A
C969   O993    1.277   .     A
C969   O995    1.283   .     A
C969   C971    1.402   .     S
C970   O996    1.283   .     A
C970   C972    1.402   .     S
C970   O994    1.277   .     A
C972   C887    1.341   1_655 S
C972   F916    1.365   1_655 S
C973   C978    1.395   .     A
C973   H983    1.086   .     S
C974   C977    1.395   .     A
C974   H984    1.086   .     S
C974   C1102   1.374   .     S
C975   C977    1.404   .     A
C975   C1001   1.447   .     S
C975   C1099   1.374   .     S
C976   C978    1.404   .     A
C976   C1003   1.447   .     S
C979   N988    1.373   .     A
C979   C1005   1.438   .     S
C980   C1007   1.438   .     S
C980   N987    1.373   .     A
C980   C226    1.418   1_556 S
C981   N987    1.363   .     A
C981   H985    1.083   .     S
C981   C223    1.418   1_556 S
C982   H986    1.083   .     S
C982   N988    1.363   .     A
N987   Zn997   2.014   .     S
N988   Zn998   2.014   .     S
O989   Zn997   1.994   .     S
O990   Zn998   1.994   .     S
O991   Zn998   1.988   .     S
O992   Zn997   1.988   .     S
O993   Zn997   1.983   .     S
O994   Zn998   1.983   .     S
O995   Zn998   1.991   .     S
O996   Zn997   1.991   .     S
F999   C887    1.365   1_655 S
C1001  N1002   1.157   .     T
C1003  N1004   1.157   .     T
C1005  N1006   1.158   .     T
C1007  N1008   1.158   .     T
C1009  O1033   1.283   .     A
C1009  C1020   1.413   .     S
C1009  O1031   1.282   .     A
C1010  O1034   1.282   .     A
C1010  C1019   1.413   .     S
C1010  O1032   1.282   .     A
C1011  O1035   1.277   .     A
C1011  O1037   1.283   .     A
C1011  C1013   1.402   .     S
C1012  O1038   1.283   .     A
C1012  C1014   1.402   .     S
C1012  O1036   1.277   .     A
C1013  C1098   1.341   1_455 S
C1013  F1125   1.365   1_455 S
C1014  C1055   1.341   .     S
C1014  F1084   1.365   .     S
C1015  C1020   1.395   .     A
C1015  H1025   1.086   .     S
C1016  C1019   1.395   .     A
C1016  H1026   1.086   .     S
C1016  C766    1.374   1_565 S
C1017  C1019   1.404   .     A
C1017  C1043   1.447   .     S
C1017  C763    1.374   1_565 S
C1018  C1020   1.404   .     A
C1018  C1045   1.447   .     S
C1021  N1030   1.373   .     A
C1021  C1047   1.438   .     S
C1022  C1049   1.438   .     S
C1022  N1029   1.373   .     A
C1022  C268    1.418   1_556 S
C1023  N1029   1.363   .     A
C1023  H1027   1.083   .     S
C1023  C265    1.418   1_556 S
C1024  H1028   1.083   .     S
C1024  N1030   1.363   .     A
N1029  Zn1039  2.014   .     S
N1030  Zn1040  2.014   .     S
O1031  Zn1039  1.994   .     S
O1032  Zn1040  1.994   .     S
O1033  Zn1040  1.988   .     S
O1034  Zn1039  1.988   .     S
O1035  Zn1039  1.983   .     S
O1036  Zn1040  1.983   .     S
O1037  Zn1040  1.991   .     S
O1038  Zn1039  1.991   .     S
F1041  C1055   1.365   .     S
F1042  C1098   1.365   1_455 S
C1043  N1044   1.157   .     T
C1045  N1046   1.157   .     T
C1047  N1048   1.158   .     T
C1049  N1050   1.158   .     T
C1051  O1075   1.283   .     A
C1051  C1062   1.413   .     S
C1051  O1073   1.282   .     A
C1052  O1076   1.282   .     A
C1052  C1061   1.413   .     S
C1052  O1074   1.282   .     A
C1053  O1077   1.277   .     A
C1053  O1079   1.283   .     A
C1053  C1055   1.402   .     S
C1054  O1080   1.283   .     A
C1054  C1056   1.402   .     S
C1054  O1078   1.277   .     A
C1056  C1097   1.341   .     S
C1056  F1126   1.365   .     S
C1057  C1062   1.395   .     A
C1057  H1067   1.086   .     S
C1058  C1061   1.395   .     A
C1058  H1068   1.086   .     S
C1058  C808    1.374   1_565 S
C1059  C1061   1.404   .     A
C1059  C1085   1.447   .     S
C1059  C805    1.374   1_565 S
C1060  C1062   1.404   .     A
C1060  C1087   1.447   .     S
C1063  N1072   1.373   .     A
C1063  C1089   1.438   .     S
C1064  C1091   1.438   .     S
C1064  N1071   1.373   .     A
C1064  C310    1.418   1_556 S
C1065  N1071   1.363   .     A
C1065  H1069   1.083   .     S
C1065  C307    1.418   1_556 S
C1066  H1070   1.083   .     S
C1066  N1072   1.363   .     A
N1071  Zn1081  2.014   .     S
N1072  Zn1082  2.014   .     S
O1073  Zn1081  1.994   .     S
O1074  Zn1082  1.994   .     S
O1075  Zn1082  1.988   .     S
O1076  Zn1081  1.988   .     S
O1077  Zn1081  1.983   .     S
O1078  Zn1082  1.983   .     S
O1079  Zn1082  1.991   .     S
O1080  Zn1081  1.991   .     S
F1083  C1097   1.365   .     S
C1085  N1086   1.157   .     T
C1087  N1088   1.157   .     T
C1089  N1090   1.158   .     T
C1091  N1092   1.158   .     T
C1093  O1117   1.283   .     A
C1093  C1104   1.413   .     S
C1093  O1115   1.282   .     A
C1094  O1118   1.282   .     A
C1094  C1103   1.413   .     S
C1094  O1116   1.282   .     A
C1095  O1119   1.277   .     A
C1095  O1121   1.283   .     A
C1095  C1097   1.402   .     S
C1096  O1122   1.283   .     A
C1096  C1098   1.402   .     S
C1096  O1120   1.277   .     A
C1098  C1013   1.341   1_655 S
C1098  F1042   1.365   1_655 S
C1099  C1104   1.395   .     A
C1099  H1109   1.086   .     S
C1100  C1103   1.395   .     A
C1100  H1110   1.086   .     S
C1100  C850    1.374   1_565 S
C1101  C1103   1.404   .     A
C1101  C1127   1.447   .     S
C1101  C847    1.374   1_565 S
C1102  C1104   1.404   .     A
C1102  C1129   1.447   .     S
C1105  N1114   1.373   .     A
C1105  C1131   1.438   .     S
C1106  C1133   1.438   .     S
C1106  N1113   1.373   .     A
C1106  C352    1.418   1_556 S
C1107  N1113   1.363   .     A
C1107  H1111   1.083   .     S
C1107  C349    1.418   1_556 S
C1108  H1112   1.083   .     S
C1108  N1114   1.363   .     A
N1113  Zn1123  2.014   .     S
N1114  Zn1124  2.014   .     S
O1115  Zn1123  1.994   .     S
O1116  Zn1124  1.994   .     S
O1117  Zn1124  1.988   .     S
O1118  Zn1123  1.988   .     S
O1119  Zn1123  1.983   .     S
O1120  Zn1124  1.983   .     S
O1121  Zn1124  1.991   .     S
O1122  Zn1123  1.991   .     S
F1125  C1013   1.365   1_655 S
C1127  N1128   1.157   .     T
C1129  N1130   1.157   .     T
C1131  N1132   1.158   .     T
C1133  N1134   1.158   .     T
