data_str_m3_o1_o2_pcu_sym.71
_audit_creation_date              2020-01-03
_audit_creation_method            'Materials Studio'
_symmetry_space_group_name_H-M    'P1'
_symmetry_Int_Tables_number       1
_symmetry_cell_setting            triclinic
loop_
_symmetry_equiv_pos_as_xyz
  x,y,z
_cell_length_a                    32.4032
_cell_length_b                    29.4499
_cell_length_c                    29.8391
_cell_angle_alpha                 90.1640
_cell_angle_beta                  90.1123
_cell_angle_gamma                 90.1575
loop_
_atom_site_label
_atom_site_type_symbol
_atom_site_fract_x
_atom_site_fract_y
_atom_site_fract_z
_atom_site_U_iso_or_equiv
_atom_site_adp_type
_atom_site_occupancy
C1     C     0.08655   0.16663   0.24986   0.00000  Uiso   1.00
C2     C     0.31200   0.20661   0.23814   0.00000  Uiso   1.00
C3     C     0.31185   0.12741   0.26319   0.00000  Uiso   1.00
C4     C     0.02102   0.20766   0.24222   0.00000  Uiso   1.00
C5     C     0.20125   0.20017   0.04959   0.00000  Uiso   1.00
C6     C     0.20082   0.13294   0.45055   0.00000  Uiso   1.00
C7     C     0.16151   0.20374   0.45514   0.00000  Uiso   1.00
C8     C     0.16115   0.12963   0.04487   0.00000  Uiso   1.00
C9     C     0.19418   0.20147   0.09550   0.00000  Uiso   1.00
C10    C     0.19389   0.13174   0.40464   0.00000  Uiso   1.00
C11    C     0.15727   0.20357   0.40892   0.00000  Uiso   1.00
C12    C     0.24665   0.16675   0.25028   0.00000  Uiso   1.00
C13    C     0.15690   0.12982   0.09106   0.00000  Uiso   1.00
C14    C     0.17216   0.16635   0.11597   0.00000  Uiso   1.00
C15    C     0.17221   0.16698   0.38406   0.00000  Uiso   1.00
C16    C     0.18312   0.16518   0.02423   0.00000  Uiso   1.00
C17    C     0.18312   0.16805   0.47587   0.00000  Uiso   1.00
C18    C     0.29067   0.16697   0.25061   0.00000  Uiso   1.00
C19    C     0.04229   0.16668   0.24989   0.00000  Uiso   1.00
C20    C     0.26470   0.23236   0.04077   0.00000  Uiso   1.00
C21    C     0.26443   0.10323   0.46271   0.00000  Uiso   1.00
C22    C     0.10438   0.23323   0.48828   0.00000  Uiso   1.00
C23    C     0.16732   0.16661   0.16380   0.00000  Uiso   1.00
C24    C     0.10369   0.10040   0.01163   0.00000  Uiso   1.00
C25    C     0.03780   0.05989   0.22377   0.00000  Uiso   1.00
C26    C     0.28879   0.24527   0.17761   0.00000  Uiso   1.00
C27    C     0.29001   0.09063   0.32534   0.00000  Uiso   1.00
C28    C     0.04093   0.27317   0.27619   0.00000  Uiso   1.00
C29    C     0.16737   0.16673   0.33620   0.00000  Uiso   1.00
C30    C     0.18714   0.02416   0.28256   0.00000  Uiso   1.00
C31    C     0.14616   0.30917   0.21746   0.00000  Uiso   1.00
C32    C     0.14630   0.02385   0.21736   0.00000  Uiso   1.00
C33    C     0.18723   0.30948   0.28250   0.00000  Uiso   1.00
C34    C     0.02074   0.12591   0.25797   0.00000  Uiso   1.00
H35    H     0.20339   0.04252   0.30862   0.00000  Uiso   1.00
H36    H     0.26944   0.24302   0.07616   0.00000  Uiso   1.00
H37    H     0.28241   0.25618   0.01938   0.00000  Uiso   1.00
H38    H     0.27585   0.13734   0.47325   0.00000  Uiso   1.00
H39    H     0.27146   0.09711   0.42674   0.00000  Uiso   1.00
H40    H     0.28155   0.07757   0.48247   0.00000  Uiso   1.00
H41    H     0.09991   0.20520   0.01264   0.00000  Uiso   1.00
H42    H     0.08642   0.22665   0.45705   0.00000  Uiso   1.00
H43    H     0.09179   0.26453   0.00379   0.00000  Uiso   1.00
H44    H     0.09937   0.12854   0.48737   0.00000  Uiso   1.00
H45    H     0.08586   0.10692   0.04286   0.00000  Uiso   1.00
H46    H     0.12965   0.29083   0.19155   0.00000  Uiso   1.00
H47    H     0.09083   0.06920   0.49599   0.00000  Uiso   1.00
H48    H     0.00555   0.04854   0.21744   0.00000  Uiso   1.00
H49    H     0.04962   0.07953   0.19459   0.00000  Uiso   1.00
H50    H     0.05712   0.02913   0.22668   0.00000  Uiso   1.00
H51    H     0.27112   0.27557   0.16687   0.00000  Uiso   1.00
H52    H     0.31987   0.24728   0.16191   0.00000  Uiso   1.00
H53    H     0.27191   0.21473   0.16519   0.00000  Uiso   1.00
H54    H     0.27403   0.05976   0.33762   0.00000  Uiso   1.00
H55    H     0.32155   0.09084   0.34022   0.00000  Uiso   1.00
H56    H     0.27225   0.12063   0.33723   0.00000  Uiso   1.00
H57    H     0.13004   0.04196   0.19129   0.00000  Uiso   1.00
H58    H     0.06437   0.30054   0.27435   0.00000  Uiso   1.00
H59    H     0.01027   0.28917   0.28142   0.00000  Uiso   1.00
H60    H     0.04926   0.25190   0.30571   0.00000  Uiso   1.00
H61    H     0.20369   0.29138   0.30844   0.00000  Uiso   1.00
H62    H     0.20630   0.22950   0.11514   0.00000  Uiso   1.00
H63    H     0.20597   0.10370   0.38511   0.00000  Uiso   1.00
H64    H     0.14137   0.23141   0.39271   0.00000  Uiso   1.00
H65    H     0.14074   0.10207   0.10721   0.00000  Uiso   1.00
H66    H     0.27752   0.19775   0.03514   0.00000  Uiso   1.00
N67    N     0.16667   0.28573   0.25000   0.00000  Uiso   1.00
N68    N     0.16667   0.04760   0.25000   0.00000  Uiso   1.00
O69    O     0.10559   0.20487   0.25000   0.00000  Uiso   1.00
O70    O     0.22192   0.09807   0.47139   0.00000  Uiso   1.00
O71    O     0.14667   0.24014   0.47966   0.00000  Uiso   1.00
O72    O     0.14596   0.09333   0.02027   0.00000  Uiso   1.00
O73    O     0.04082   0.08496   0.26407   0.00000  Uiso   1.00
O74    O     0.29167   0.24560   0.22478   0.00000  Uiso   1.00
O75    O     0.29147   0.08896   0.27813   0.00000  Uiso   1.00
O76    O     0.04150   0.24841   0.23557   0.00000  Uiso   1.00
O77    O     0.22774   0.12846   0.25001   0.00000  Uiso   1.00
O78    O     0.22774   0.20487   0.25001   0.00000  Uiso   1.00
O79    O     0.10559   0.12846   0.25000   0.00000  Uiso   1.00
O80    O     0.16666   0.20489   0.18453   0.00000  Uiso   1.00
O81    O     0.16667   0.12845   0.31547   0.00000  Uiso   1.00
O82    O     0.16667   0.20489   0.31547   0.00000  Uiso   1.00
O83    O     0.16666   0.12845   0.18453   0.00000  Uiso   1.00
O84    O     0.22269   0.23482   0.02859   0.00000  Uiso   1.00
Zn85   Zn    0.16667   0.21771   0.25000   0.00000  Uiso   1.00
Zn86   Zn    0.16667   0.11563   0.25000   0.00000  Uiso   1.00
C87    C     0.41988   0.16663   0.24986   0.00000  Uiso   1.00
C88    C     0.64533   0.20661   0.23814   0.00000  Uiso   1.00
C89    C     0.64518   0.12741   0.26319   0.00000  Uiso   1.00
C90    C     0.35436   0.20766   0.24222   0.00000  Uiso   1.00
C91    C     0.53459   0.20017   0.04959   0.00000  Uiso   1.00
C92    C     0.53416   0.13294   0.45055   0.00000  Uiso   1.00
C93    C     0.49484   0.20374   0.45514   0.00000  Uiso   1.00
C94    C     0.49448   0.12963   0.04487   0.00000  Uiso   1.00
C95    C     0.52751   0.20147   0.09550   0.00000  Uiso   1.00
C96    C     0.52722   0.13174   0.40464   0.00000  Uiso   1.00
C97    C     0.49060   0.20357   0.40892   0.00000  Uiso   1.00
C98    C     0.57999   0.16675   0.25028   0.00000  Uiso   1.00
C99    C     0.49024   0.12982   0.09106   0.00000  Uiso   1.00
C100   C     0.50549   0.16635   0.11597   0.00000  Uiso   1.00
C101   C     0.50555   0.16698   0.38406   0.00000  Uiso   1.00
C102   C     0.51646   0.16518   0.02423   0.00000  Uiso   1.00
C103   C     0.51645   0.16805   0.47587   0.00000  Uiso   1.00
C104   C     0.62401   0.16697   0.25061   0.00000  Uiso   1.00
C105   C     0.37563   0.16668   0.24989   0.00000  Uiso   1.00
C106   C     0.59804   0.23236   0.04077   0.00000  Uiso   1.00
C107   C     0.59776   0.10323   0.46271   0.00000  Uiso   1.00
C108   C     0.43771   0.23323   0.48828   0.00000  Uiso   1.00
C109   C     0.50065   0.16661   0.16380   0.00000  Uiso   1.00
C110   C     0.43702   0.10040   0.01163   0.00000  Uiso   1.00
C111   C     0.37114   0.05989   0.22377   0.00000  Uiso   1.00
C112   C     0.62213   0.24527   0.17761   0.00000  Uiso   1.00
C113   C     0.62335   0.09063   0.32534   0.00000  Uiso   1.00
C114   C     0.37426   0.27317   0.27619   0.00000  Uiso   1.00
C115   C     0.50071   0.16673   0.33620   0.00000  Uiso   1.00
C116   C     0.52047   0.02416   0.28256   0.00000  Uiso   1.00
C117   C     0.47949   0.30917   0.21746   0.00000  Uiso   1.00
C118   C     0.47963   0.02385   0.21736   0.00000  Uiso   1.00
C119   C     0.52056   0.30948   0.28250   0.00000  Uiso   1.00
C120   C     0.35407   0.12591   0.25797   0.00000  Uiso   1.00
H121   H     0.53672   0.04252   0.30862   0.00000  Uiso   1.00
H122   H     0.60277   0.24302   0.07616   0.00000  Uiso   1.00
H123   H     0.61574   0.25618   0.01938   0.00000  Uiso   1.00
H124   H     0.60918   0.13734   0.47325   0.00000  Uiso   1.00
H125   H     0.60479   0.09711   0.42674   0.00000  Uiso   1.00
H126   H     0.61488   0.07757   0.48247   0.00000  Uiso   1.00
H127   H     0.43324   0.20520   0.01264   0.00000  Uiso   1.00
H128   H     0.41975   0.22665   0.45705   0.00000  Uiso   1.00
H129   H     0.42512   0.26453   0.00379   0.00000  Uiso   1.00
H130   H     0.43270   0.12854   0.48737   0.00000  Uiso   1.00
H131   H     0.41920   0.10692   0.04286   0.00000  Uiso   1.00
H132   H     0.46298   0.29083   0.19155   0.00000  Uiso   1.00
H133   H     0.42416   0.06920   0.49599   0.00000  Uiso   1.00
H134   H     0.33888   0.04854   0.21744   0.00000  Uiso   1.00
H135   H     0.38295   0.07953   0.19459   0.00000  Uiso   1.00
H136   H     0.39045   0.02913   0.22668   0.00000  Uiso   1.00
H137   H     0.60445   0.27557   0.16687   0.00000  Uiso   1.00
H138   H     0.65320   0.24728   0.16191   0.00000  Uiso   1.00
H139   H     0.60524   0.21473   0.16519   0.00000  Uiso   1.00
H140   H     0.60736   0.05976   0.33762   0.00000  Uiso   1.00
H141   H     0.65488   0.09084   0.34022   0.00000  Uiso   1.00
H142   H     0.60558   0.12063   0.33723   0.00000  Uiso   1.00
H143   H     0.46337   0.04196   0.19129   0.00000  Uiso   1.00
H144   H     0.39771   0.30054   0.27435   0.00000  Uiso   1.00
H145   H     0.34361   0.28917   0.28142   0.00000  Uiso   1.00
H146   H     0.38260   0.25190   0.30571   0.00000  Uiso   1.00
H147   H     0.53702   0.29138   0.30844   0.00000  Uiso   1.00
H148   H     0.53963   0.22950   0.11514   0.00000  Uiso   1.00
H149   H     0.53930   0.10370   0.38511   0.00000  Uiso   1.00
H150   H     0.47471   0.23141   0.39271   0.00000  Uiso   1.00
H151   H     0.47408   0.10207   0.10721   0.00000  Uiso   1.00
H152   H     0.61086   0.19775   0.03514   0.00000  Uiso   1.00
N153   N     0.50000   0.28573   0.25000   0.00000  Uiso   1.00
N154   N     0.50000   0.04760   0.25000   0.00000  Uiso   1.00
O155   O     0.43892   0.20487   0.25000   0.00000  Uiso   1.00
O156   O     0.55526   0.09807   0.47139   0.00000  Uiso   1.00
O157   O     0.48001   0.24014   0.47966   0.00000  Uiso   1.00
O158   O     0.47929   0.09333   0.02027   0.00000  Uiso   1.00
O159   O     0.37415   0.08496   0.26407   0.00000  Uiso   1.00
O160   O     0.62501   0.24560   0.22478   0.00000  Uiso   1.00
O161   O     0.62480   0.08896   0.27813   0.00000  Uiso   1.00
O162   O     0.37483   0.24841   0.23557   0.00000  Uiso   1.00
O163   O     0.56108   0.12846   0.25001   0.00000  Uiso   1.00
O164   O     0.56108   0.20487   0.25001   0.00000  Uiso   1.00
O165   O     0.43892   0.12846   0.25000   0.00000  Uiso   1.00
O166   O     0.50000   0.20489   0.18453   0.00000  Uiso   1.00
O167   O     0.50000   0.12845   0.31547   0.00000  Uiso   1.00
O168   O     0.50000   0.20489   0.31547   0.00000  Uiso   1.00
O169   O     0.50000   0.12845   0.18453   0.00000  Uiso   1.00
O170   O     0.55602   0.23482   0.02859   0.00000  Uiso   1.00
Zn171  Zn    0.50000   0.21771   0.25000   0.00000  Uiso   1.00
Zn172  Zn    0.50000   0.11563   0.25000   0.00000  Uiso   1.00
C173   C     0.75322   0.16663   0.24986   0.00000  Uiso   1.00
C174   C     0.97866   0.20661   0.23814   0.00000  Uiso   1.00
C175   C     0.97852   0.12741   0.26319   0.00000  Uiso   1.00
C176   C     0.68769   0.20766   0.24222   0.00000  Uiso   1.00
C177   C     0.86792   0.20017   0.04959   0.00000  Uiso   1.00
C178   C     0.86749   0.13294   0.45055   0.00000  Uiso   1.00
C179   C     0.82818   0.20374   0.45514   0.00000  Uiso   1.00
C180   C     0.82782   0.12963   0.04487   0.00000  Uiso   1.00
C181   C     0.86084   0.20147   0.09550   0.00000  Uiso   1.00
C182   C     0.86056   0.13174   0.40464   0.00000  Uiso   1.00
C183   C     0.82393   0.20357   0.40892   0.00000  Uiso   1.00
C184   C     0.91332   0.16675   0.25028   0.00000  Uiso   1.00
C185   C     0.82357   0.12982   0.09106   0.00000  Uiso   1.00
C186   C     0.83882   0.16635   0.11597   0.00000  Uiso   1.00
C187   C     0.83888   0.16698   0.38406   0.00000  Uiso   1.00
C188   C     0.84979   0.16518   0.02423   0.00000  Uiso   1.00
C189   C     0.84978   0.16805   0.47587   0.00000  Uiso   1.00
C190   C     0.95734   0.16697   0.25061   0.00000  Uiso   1.00
C191   C     0.70896   0.16668   0.24989   0.00000  Uiso   1.00
C192   C     0.93137   0.23236   0.04077   0.00000  Uiso   1.00
C193   C     0.93110   0.10323   0.46271   0.00000  Uiso   1.00
C194   C     0.77104   0.23323   0.48828   0.00000  Uiso   1.00
C195   C     0.83399   0.16661   0.16380   0.00000  Uiso   1.00
C196   C     0.77035   0.10040   0.01163   0.00000  Uiso   1.00
C197   C     0.70447   0.05989   0.22377   0.00000  Uiso   1.00
C198   C     0.95546   0.24527   0.17761   0.00000  Uiso   1.00
C199   C     0.95668   0.09063   0.32534   0.00000  Uiso   1.00
C200   C     0.70759   0.27317   0.27619   0.00000  Uiso   1.00
C201   C     0.83404   0.16673   0.33620   0.00000  Uiso   1.00
C202   C     0.85380   0.02416   0.28256   0.00000  Uiso   1.00
C203   C     0.81282   0.30917   0.21746   0.00000  Uiso   1.00
C204   C     0.81297   0.02385   0.21736   0.00000  Uiso   1.00
C205   C     0.85390   0.30948   0.28250   0.00000  Uiso   1.00
C206   C     0.68741   0.12591   0.25797   0.00000  Uiso   1.00
H207   H     0.87005   0.04252   0.30862   0.00000  Uiso   1.00
H208   H     0.93610   0.24302   0.07616   0.00000  Uiso   1.00
H209   H     0.94907   0.25618   0.01938   0.00000  Uiso   1.00
H210   H     0.94251   0.13734   0.47325   0.00000  Uiso   1.00
H211   H     0.93812   0.09711   0.42674   0.00000  Uiso   1.00
H212   H     0.94822   0.07757   0.48247   0.00000  Uiso   1.00
H213   H     0.76658   0.20520   0.01264   0.00000  Uiso   1.00
H214   H     0.75309   0.22665   0.45705   0.00000  Uiso   1.00
H215   H     0.75846   0.26453   0.00379   0.00000  Uiso   1.00
H216   H     0.76604   0.12854   0.48737   0.00000  Uiso   1.00
H217   H     0.75253   0.10692   0.04286   0.00000  Uiso   1.00
H218   H     0.79632   0.29083   0.19155   0.00000  Uiso   1.00
H219   H     0.75749   0.06920   0.49599   0.00000  Uiso   1.00
H220   H     0.67222   0.04854   0.21744   0.00000  Uiso   1.00
H221   H     0.71629   0.07953   0.19459   0.00000  Uiso   1.00
H222   H     0.72378   0.02913   0.22668   0.00000  Uiso   1.00
H223   H     0.93778   0.27557   0.16687   0.00000  Uiso   1.00
H224   H     0.98653   0.24728   0.16191   0.00000  Uiso   1.00
H225   H     0.93858   0.21473   0.16519   0.00000  Uiso   1.00
H226   H     0.94069   0.05976   0.33762   0.00000  Uiso   1.00
H227   H     0.98821   0.09084   0.34022   0.00000  Uiso   1.00
H228   H     0.93891   0.12063   0.33723   0.00000  Uiso   1.00
H229   H     0.79670   0.04196   0.19129   0.00000  Uiso   1.00
H230   H     0.73104   0.30054   0.27435   0.00000  Uiso   1.00
H231   H     0.67694   0.28917   0.28142   0.00000  Uiso   1.00
H232   H     0.71593   0.25190   0.30571   0.00000  Uiso   1.00
H233   H     0.87036   0.29138   0.30844   0.00000  Uiso   1.00
H234   H     0.87296   0.22950   0.11514   0.00000  Uiso   1.00
H235   H     0.87263   0.10370   0.38511   0.00000  Uiso   1.00
H236   H     0.80804   0.23141   0.39271   0.00000  Uiso   1.00
H237   H     0.80741   0.10207   0.10721   0.00000  Uiso   1.00
H238   H     0.94419   0.19775   0.03514   0.00000  Uiso   1.00
N239   N     0.83333   0.28573   0.25000   0.00000  Uiso   1.00
N240   N     0.83333   0.04760   0.25000   0.00000  Uiso   1.00
O241   O     0.77226   0.20487   0.25000   0.00000  Uiso   1.00
O242   O     0.88859   0.09807   0.47139   0.00000  Uiso   1.00
O243   O     0.81334   0.24014   0.47966   0.00000  Uiso   1.00
O244   O     0.81262   0.09333   0.02027   0.00000  Uiso   1.00
O245   O     0.70748   0.08496   0.26407   0.00000  Uiso   1.00
O246   O     0.95834   0.24560   0.22478   0.00000  Uiso   1.00
O247   O     0.95813   0.08896   0.27813   0.00000  Uiso   1.00
O248   O     0.70817   0.24841   0.23557   0.00000  Uiso   1.00
O249   O     0.89441   0.12846   0.25001   0.00000  Uiso   1.00
O250   O     0.89441   0.20487   0.25001   0.00000  Uiso   1.00
O251   O     0.77226   0.12846   0.25000   0.00000  Uiso   1.00
O252   O     0.83333   0.20489   0.18453   0.00000  Uiso   1.00
O253   O     0.83334   0.12845   0.31547   0.00000  Uiso   1.00
O254   O     0.83334   0.20489   0.31547   0.00000  Uiso   1.00
O255   O     0.83333   0.12845   0.18453   0.00000  Uiso   1.00
O256   O     0.88936   0.23482   0.02859   0.00000  Uiso   1.00
Zn257  Zn    0.83333   0.21771   0.25000   0.00000  Uiso   1.00
Zn258  Zn    0.83333   0.11563   0.25000   0.00000  Uiso   1.00
C259   C     0.08655   0.49997   0.24986   0.00000  Uiso   1.00
C260   C     0.31200   0.53994   0.23814   0.00000  Uiso   1.00
C261   C     0.31185   0.46075   0.26319   0.00000  Uiso   1.00
C262   C     0.02102   0.54099   0.24222   0.00000  Uiso   1.00
C263   C     0.20125   0.53350   0.04959   0.00000  Uiso   1.00
C264   C     0.20082   0.46627   0.45055   0.00000  Uiso   1.00
C265   C     0.16151   0.53708   0.45514   0.00000  Uiso   1.00
C266   C     0.16115   0.46296   0.04487   0.00000  Uiso   1.00
C267   C     0.19418   0.53480   0.09550   0.00000  Uiso   1.00
C268   C     0.19389   0.46507   0.40464   0.00000  Uiso   1.00
C269   C     0.15727   0.53690   0.40892   0.00000  Uiso   1.00
C270   C     0.24665   0.50008   0.25028   0.00000  Uiso   1.00
C271   C     0.15690   0.46315   0.09106   0.00000  Uiso   1.00
C272   C     0.17216   0.49968   0.11597   0.00000  Uiso   1.00
C273   C     0.17221   0.50031   0.38406   0.00000  Uiso   1.00
C274   C     0.18312   0.49851   0.02423   0.00000  Uiso   1.00
C275   C     0.18312   0.50139   0.47587   0.00000  Uiso   1.00
C276   C     0.29067   0.50030   0.25061   0.00000  Uiso   1.00
C277   C     0.04229   0.50001   0.24989   0.00000  Uiso   1.00
C278   C     0.26470   0.56569   0.04077   0.00000  Uiso   1.00
C279   C     0.26443   0.43656   0.46271   0.00000  Uiso   1.00
C280   C     0.10438   0.56656   0.48828   0.00000  Uiso   1.00
C281   C     0.16732   0.49994   0.16380   0.00000  Uiso   1.00
C282   C     0.10369   0.43373   0.01163   0.00000  Uiso   1.00
C283   C     0.03780   0.39322   0.22377   0.00000  Uiso   1.00
C284   C     0.28879   0.57860   0.17761   0.00000  Uiso   1.00
C285   C     0.29001   0.42397   0.32534   0.00000  Uiso   1.00
C286   C     0.04093   0.60651   0.27619   0.00000  Uiso   1.00
C287   C     0.16737   0.50006   0.33620   0.00000  Uiso   1.00
C288   C     0.18714   0.35749   0.28256   0.00000  Uiso   1.00
C289   C     0.14616   0.64251   0.21746   0.00000  Uiso   1.00
C290   C     0.14630   0.35718   0.21736   0.00000  Uiso   1.00
C291   C     0.18723   0.64282   0.28250   0.00000  Uiso   1.00
C292   C     0.02074   0.45925   0.25797   0.00000  Uiso   1.00
H293   H     0.20339   0.37585   0.30862   0.00000  Uiso   1.00
H294   H     0.26944   0.57636   0.07616   0.00000  Uiso   1.00
H295   H     0.28241   0.58951   0.01938   0.00000  Uiso   1.00
H296   H     0.27585   0.47067   0.47325   0.00000  Uiso   1.00
H297   H     0.27146   0.43045   0.42674   0.00000  Uiso   1.00
H298   H     0.28155   0.41090   0.48247   0.00000  Uiso   1.00
H299   H     0.09991   0.53853   0.01264   0.00000  Uiso   1.00
H300   H     0.08642   0.55998   0.45705   0.00000  Uiso   1.00
H301   H     0.09179   0.59786   0.00379   0.00000  Uiso   1.00
H302   H     0.09937   0.46187   0.48737   0.00000  Uiso   1.00
H303   H     0.08586   0.44025   0.04286   0.00000  Uiso   1.00
H304   H     0.12965   0.62416   0.19155   0.00000  Uiso   1.00
H305   H     0.09083   0.40253   0.49599   0.00000  Uiso   1.00
H306   H     0.00555   0.38187   0.21744   0.00000  Uiso   1.00
H307   H     0.04962   0.41286   0.19459   0.00000  Uiso   1.00
H308   H     0.05712   0.36247   0.22668   0.00000  Uiso   1.00
H309   H     0.27112   0.60890   0.16687   0.00000  Uiso   1.00
H310   H     0.31987   0.58061   0.16191   0.00000  Uiso   1.00
H311   H     0.27191   0.54806   0.16519   0.00000  Uiso   1.00
H312   H     0.27403   0.39309   0.33762   0.00000  Uiso   1.00
H313   H     0.32155   0.42417   0.34022   0.00000  Uiso   1.00
H314   H     0.27225   0.45397   0.33723   0.00000  Uiso   1.00
H315   H     0.13004   0.37529   0.19129   0.00000  Uiso   1.00
H316   H     0.06437   0.63388   0.27435   0.00000  Uiso   1.00
H317   H     0.01027   0.62250   0.28142   0.00000  Uiso   1.00
H318   H     0.04926   0.58524   0.30571   0.00000  Uiso   1.00
H319   H     0.20369   0.62471   0.30844   0.00000  Uiso   1.00
H320   H     0.20630   0.56284   0.11514   0.00000  Uiso   1.00
H321   H     0.20597   0.43703   0.38511   0.00000  Uiso   1.00
H322   H     0.14137   0.56475   0.39271   0.00000  Uiso   1.00
H323   H     0.14074   0.43540   0.10721   0.00000  Uiso   1.00
H324   H     0.27752   0.53108   0.03514   0.00000  Uiso   1.00
N325   N     0.16667   0.61907   0.25000   0.00000  Uiso   1.00
N326   N     0.16667   0.38093   0.25000   0.00000  Uiso   1.00
O327   O     0.10559   0.53821   0.25000   0.00000  Uiso   1.00
O328   O     0.22192   0.43140   0.47139   0.00000  Uiso   1.00
O329   O     0.14667   0.57347   0.47966   0.00000  Uiso   1.00
O330   O     0.14596   0.42666   0.02027   0.00000  Uiso   1.00
O331   O     0.04082   0.41829   0.26407   0.00000  Uiso   1.00
O332   O     0.29167   0.57893   0.22478   0.00000  Uiso   1.00
O333   O     0.29147   0.42230   0.27813   0.00000  Uiso   1.00
O334   O     0.04150   0.58174   0.23557   0.00000  Uiso   1.00
O335   O     0.22774   0.46179   0.25001   0.00000  Uiso   1.00
O336   O     0.22774   0.53821   0.25001   0.00000  Uiso   1.00
O337   O     0.10559   0.46179   0.25000   0.00000  Uiso   1.00
O338   O     0.16666   0.53822   0.18453   0.00000  Uiso   1.00
O339   O     0.16667   0.46178   0.31547   0.00000  Uiso   1.00
O340   O     0.16667   0.53822   0.31547   0.00000  Uiso   1.00
O341   O     0.16666   0.46178   0.18453   0.00000  Uiso   1.00
O342   O     0.22269   0.56816   0.02859   0.00000  Uiso   1.00
Zn343  Zn    0.16667   0.55104   0.25000   0.00000  Uiso   1.00
Zn344  Zn    0.16667   0.44896   0.25000   0.00000  Uiso   1.00
C345   C     0.41988   0.49997   0.24986   0.00000  Uiso   1.00
C346   C     0.64533   0.53994   0.23814   0.00000  Uiso   1.00
C347   C     0.64518   0.46075   0.26319   0.00000  Uiso   1.00
C348   C     0.35436   0.54099   0.24222   0.00000  Uiso   1.00
C349   C     0.53459   0.53350   0.04959   0.00000  Uiso   1.00
C350   C     0.53416   0.46627   0.45055   0.00000  Uiso   1.00
C351   C     0.49484   0.53708   0.45514   0.00000  Uiso   1.00
C352   C     0.49448   0.46296   0.04487   0.00000  Uiso   1.00
C353   C     0.52751   0.53480   0.09550   0.00000  Uiso   1.00
C354   C     0.52722   0.46507   0.40464   0.00000  Uiso   1.00
C355   C     0.49060   0.53690   0.40892   0.00000  Uiso   1.00
C356   C     0.57999   0.50008   0.25028   0.00000  Uiso   1.00
C357   C     0.49024   0.46315   0.09106   0.00000  Uiso   1.00
C358   C     0.50549   0.49968   0.11597   0.00000  Uiso   1.00
C359   C     0.50555   0.50031   0.38406   0.00000  Uiso   1.00
C360   C     0.51646   0.49851   0.02423   0.00000  Uiso   1.00
C361   C     0.51645   0.50139   0.47587   0.00000  Uiso   1.00
C362   C     0.62401   0.50030   0.25061   0.00000  Uiso   1.00
C363   C     0.37563   0.50001   0.24989   0.00000  Uiso   1.00
C364   C     0.59804   0.56569   0.04077   0.00000  Uiso   1.00
C365   C     0.59776   0.43656   0.46271   0.00000  Uiso   1.00
C366   C     0.43771   0.56656   0.48828   0.00000  Uiso   1.00
C367   C     0.50065   0.49994   0.16380   0.00000  Uiso   1.00
C368   C     0.43702   0.43373   0.01163   0.00000  Uiso   1.00
C369   C     0.37114   0.39322   0.22377   0.00000  Uiso   1.00
C370   C     0.62213   0.57860   0.17761   0.00000  Uiso   1.00
C371   C     0.62335   0.42397   0.32534   0.00000  Uiso   1.00
C372   C     0.37426   0.60651   0.27619   0.00000  Uiso   1.00
C373   C     0.50071   0.50006   0.33620   0.00000  Uiso   1.00
C374   C     0.52047   0.35749   0.28256   0.00000  Uiso   1.00
C375   C     0.47949   0.64251   0.21746   0.00000  Uiso   1.00
C376   C     0.47963   0.35718   0.21736   0.00000  Uiso   1.00
C377   C     0.52056   0.64282   0.28250   0.00000  Uiso   1.00
C378   C     0.35407   0.45925   0.25797   0.00000  Uiso   1.00
H379   H     0.53672   0.37585   0.30862   0.00000  Uiso   1.00
H380   H     0.60277   0.57636   0.07616   0.00000  Uiso   1.00
H381   H     0.61574   0.58951   0.01938   0.00000  Uiso   1.00
H382   H     0.60918   0.47067   0.47325   0.00000  Uiso   1.00
H383   H     0.60479   0.43045   0.42674   0.00000  Uiso   1.00
H384   H     0.61488   0.41090   0.48247   0.00000  Uiso   1.00
H385   H     0.43324   0.53853   0.01264   0.00000  Uiso   1.00
H386   H     0.41975   0.55998   0.45705   0.00000  Uiso   1.00
H387   H     0.42512   0.59786   0.00379   0.00000  Uiso   1.00
H388   H     0.43270   0.46187   0.48737   0.00000  Uiso   1.00
H389   H     0.41920   0.44025   0.04286   0.00000  Uiso   1.00
H390   H     0.46298   0.62416   0.19155   0.00000  Uiso   1.00
H391   H     0.42416   0.40253   0.49599   0.00000  Uiso   1.00
H392   H     0.33888   0.38187   0.21744   0.00000  Uiso   1.00
H393   H     0.38295   0.41286   0.19459   0.00000  Uiso   1.00
H394   H     0.39045   0.36247   0.22668   0.00000  Uiso   1.00
H395   H     0.60445   0.60890   0.16687   0.00000  Uiso   1.00
H396   H     0.65320   0.58061   0.16191   0.00000  Uiso   1.00
H397   H     0.60524   0.54806   0.16519   0.00000  Uiso   1.00
H398   H     0.60736   0.39309   0.33762   0.00000  Uiso   1.00
H399   H     0.65488   0.42417   0.34022   0.00000  Uiso   1.00
H400   H     0.60558   0.45397   0.33723   0.00000  Uiso   1.00
H401   H     0.46337   0.37529   0.19129   0.00000  Uiso   1.00
H402   H     0.39771   0.63388   0.27435   0.00000  Uiso   1.00
H403   H     0.34361   0.62250   0.28142   0.00000  Uiso   1.00
H404   H     0.38260   0.58524   0.30571   0.00000  Uiso   1.00
H405   H     0.53702   0.62471   0.30844   0.00000  Uiso   1.00
H406   H     0.53963   0.56284   0.11514   0.00000  Uiso   1.00
H407   H     0.53930   0.43703   0.38511   0.00000  Uiso   1.00
H408   H     0.47471   0.56475   0.39271   0.00000  Uiso   1.00
H409   H     0.47408   0.43540   0.10721   0.00000  Uiso   1.00
H410   H     0.61086   0.53108   0.03514   0.00000  Uiso   1.00
N411   N     0.50000   0.61907   0.25000   0.00000  Uiso   1.00
N412   N     0.50000   0.38093   0.25000   0.00000  Uiso   1.00
O413   O     0.43892   0.53821   0.25000   0.00000  Uiso   1.00
O414   O     0.55526   0.43140   0.47139   0.00000  Uiso   1.00
O415   O     0.48001   0.57347   0.47966   0.00000  Uiso   1.00
O416   O     0.47929   0.42666   0.02027   0.00000  Uiso   1.00
O417   O     0.37415   0.41829   0.26407   0.00000  Uiso   1.00
O418   O     0.62501   0.57893   0.22478   0.00000  Uiso   1.00
O419   O     0.62480   0.42230   0.27813   0.00000  Uiso   1.00
O420   O     0.37483   0.58174   0.23557   0.00000  Uiso   1.00
O421   O     0.56108   0.46179   0.25001   0.00000  Uiso   1.00
O422   O     0.56108   0.53821   0.25001   0.00000  Uiso   1.00
O423   O     0.43892   0.46179   0.25000   0.00000  Uiso   1.00
O424   O     0.50000   0.53822   0.18453   0.00000  Uiso   1.00
O425   O     0.50000   0.46178   0.31547   0.00000  Uiso   1.00
O426   O     0.50000   0.53822   0.31547   0.00000  Uiso   1.00
O427   O     0.50000   0.46178   0.18453   0.00000  Uiso   1.00
O428   O     0.55602   0.56816   0.02859   0.00000  Uiso   1.00
Zn429  Zn    0.50000   0.55104   0.25000   0.00000  Uiso   1.00
Zn430  Zn    0.50000   0.44896   0.25000   0.00000  Uiso   1.00
C431   C     0.75322   0.49997   0.24986   0.00000  Uiso   1.00
C432   C     0.97866   0.53994   0.23814   0.00000  Uiso   1.00
C433   C     0.97852   0.46075   0.26319   0.00000  Uiso   1.00
C434   C     0.68769   0.54099   0.24222   0.00000  Uiso   1.00
C435   C     0.86792   0.53350   0.04959   0.00000  Uiso   1.00
C436   C     0.86749   0.46627   0.45055   0.00000  Uiso   1.00
C437   C     0.82818   0.53708   0.45514   0.00000  Uiso   1.00
C438   C     0.82782   0.46296   0.04487   0.00000  Uiso   1.00
C439   C     0.86084   0.53480   0.09550   0.00000  Uiso   1.00
C440   C     0.86056   0.46507   0.40464   0.00000  Uiso   1.00
C441   C     0.82393   0.53690   0.40892   0.00000  Uiso   1.00
C442   C     0.91332   0.50008   0.25028   0.00000  Uiso   1.00
C443   C     0.82357   0.46315   0.09106   0.00000  Uiso   1.00
C444   C     0.83882   0.49968   0.11597   0.00000  Uiso   1.00
C445   C     0.83888   0.50031   0.38406   0.00000  Uiso   1.00
C446   C     0.84979   0.49851   0.02423   0.00000  Uiso   1.00
C447   C     0.84978   0.50139   0.47587   0.00000  Uiso   1.00
C448   C     0.95734   0.50030   0.25061   0.00000  Uiso   1.00
C449   C     0.70896   0.50001   0.24989   0.00000  Uiso   1.00
C450   C     0.93137   0.56569   0.04077   0.00000  Uiso   1.00
C451   C     0.93110   0.43656   0.46271   0.00000  Uiso   1.00
C452   C     0.77104   0.56656   0.48828   0.00000  Uiso   1.00
C453   C     0.83399   0.49994   0.16380   0.00000  Uiso   1.00
C454   C     0.77035   0.43373   0.01163   0.00000  Uiso   1.00
C455   C     0.70447   0.39322   0.22377   0.00000  Uiso   1.00
C456   C     0.95546   0.57860   0.17761   0.00000  Uiso   1.00
C457   C     0.95668   0.42397   0.32534   0.00000  Uiso   1.00
C458   C     0.70759   0.60651   0.27619   0.00000  Uiso   1.00
C459   C     0.83404   0.50006   0.33620   0.00000  Uiso   1.00
C460   C     0.85380   0.35749   0.28256   0.00000  Uiso   1.00
C461   C     0.81282   0.64251   0.21746   0.00000  Uiso   1.00
C462   C     0.81297   0.35718   0.21736   0.00000  Uiso   1.00
C463   C     0.85390   0.64282   0.28250   0.00000  Uiso   1.00
C464   C     0.68741   0.45925   0.25797   0.00000  Uiso   1.00
H465   H     0.87005   0.37585   0.30862   0.00000  Uiso   1.00
H466   H     0.93610   0.57636   0.07616   0.00000  Uiso   1.00
H467   H     0.94907   0.58951   0.01938   0.00000  Uiso   1.00
H468   H     0.94251   0.47067   0.47325   0.00000  Uiso   1.00
H469   H     0.93812   0.43045   0.42674   0.00000  Uiso   1.00
H470   H     0.94822   0.41090   0.48247   0.00000  Uiso   1.00
H471   H     0.76658   0.53853   0.01264   0.00000  Uiso   1.00
H472   H     0.75309   0.55998   0.45705   0.00000  Uiso   1.00
H473   H     0.75846   0.59786   0.00379   0.00000  Uiso   1.00
H474   H     0.76604   0.46187   0.48737   0.00000  Uiso   1.00
H475   H     0.75253   0.44025   0.04286   0.00000  Uiso   1.00
H476   H     0.79632   0.62416   0.19155   0.00000  Uiso   1.00
H477   H     0.75749   0.40253   0.49599   0.00000  Uiso   1.00
H478   H     0.67222   0.38187   0.21744   0.00000  Uiso   1.00
H479   H     0.71629   0.41286   0.19459   0.00000  Uiso   1.00
H480   H     0.72378   0.36247   0.22668   0.00000  Uiso   1.00
H481   H     0.93778   0.60890   0.16687   0.00000  Uiso   1.00
H482   H     0.98653   0.58061   0.16191   0.00000  Uiso   1.00
H483   H     0.93858   0.54806   0.16519   0.00000  Uiso   1.00
H484   H     0.94069   0.39309   0.33762   0.00000  Uiso   1.00
H485   H     0.98821   0.42417   0.34022   0.00000  Uiso   1.00
H486   H     0.93891   0.45397   0.33723   0.00000  Uiso   1.00
H487   H     0.79670   0.37529   0.19129   0.00000  Uiso   1.00
H488   H     0.73104   0.63388   0.27435   0.00000  Uiso   1.00
H489   H     0.67694   0.62250   0.28142   0.00000  Uiso   1.00
H490   H     0.71593   0.58524   0.30571   0.00000  Uiso   1.00
H491   H     0.87036   0.62471   0.30844   0.00000  Uiso   1.00
H492   H     0.87296   0.56284   0.11514   0.00000  Uiso   1.00
H493   H     0.87263   0.43703   0.38511   0.00000  Uiso   1.00
H494   H     0.80804   0.56475   0.39271   0.00000  Uiso   1.00
H495   H     0.80741   0.43540   0.10721   0.00000  Uiso   1.00
H496   H     0.94419   0.53108   0.03514   0.00000  Uiso   1.00
N497   N     0.83333   0.61907   0.25000   0.00000  Uiso   1.00
N498   N     0.83333   0.38093   0.25000   0.00000  Uiso   1.00
O499   O     0.77226   0.53821   0.25000   0.00000  Uiso   1.00
O500   O     0.88859   0.43140   0.47139   0.00000  Uiso   1.00
O501   O     0.81334   0.57347   0.47966   0.00000  Uiso   1.00
O502   O     0.81262   0.42666   0.02027   0.00000  Uiso   1.00
O503   O     0.70748   0.41829   0.26407   0.00000  Uiso   1.00
O504   O     0.95834   0.57893   0.22478   0.00000  Uiso   1.00
O505   O     0.95813   0.42230   0.27813   0.00000  Uiso   1.00
O506   O     0.70817   0.58174   0.23557   0.00000  Uiso   1.00
O507   O     0.89441   0.46179   0.25001   0.00000  Uiso   1.00
O508   O     0.89441   0.53821   0.25001   0.00000  Uiso   1.00
O509   O     0.77226   0.46179   0.25000   0.00000  Uiso   1.00
O510   O     0.83333   0.53822   0.18453   0.00000  Uiso   1.00
O511   O     0.83334   0.46178   0.31547   0.00000  Uiso   1.00
O512   O     0.83334   0.53822   0.31547   0.00000  Uiso   1.00
O513   O     0.83333   0.46178   0.18453   0.00000  Uiso   1.00
O514   O     0.88936   0.56816   0.02859   0.00000  Uiso   1.00
Zn515  Zn    0.83333   0.55104   0.25000   0.00000  Uiso   1.00
Zn516  Zn    0.83333   0.44896   0.25000   0.00000  Uiso   1.00
C517   C     0.08655   0.83330   0.24986   0.00000  Uiso   1.00
C518   C     0.31200   0.87327   0.23814   0.00000  Uiso   1.00
C519   C     0.31185   0.79408   0.26319   0.00000  Uiso   1.00
C520   C     0.02102   0.87432   0.24222   0.00000  Uiso   1.00
C521   C     0.20125   0.86684   0.04959   0.00000  Uiso   1.00
C522   C     0.20082   0.79961   0.45055   0.00000  Uiso   1.00
C523   C     0.16151   0.87041   0.45514   0.00000  Uiso   1.00
C524   C     0.16115   0.79629   0.04487   0.00000  Uiso   1.00
C525   C     0.19418   0.86813   0.09550   0.00000  Uiso   1.00
C526   C     0.19389   0.79840   0.40464   0.00000  Uiso   1.00
C527   C     0.15727   0.87024   0.40892   0.00000  Uiso   1.00
C528   C     0.24665   0.83342   0.25028   0.00000  Uiso   1.00
C529   C     0.15690   0.79649   0.09106   0.00000  Uiso   1.00
C530   C     0.17216   0.83302   0.11597   0.00000  Uiso   1.00
C531   C     0.17221   0.83364   0.38406   0.00000  Uiso   1.00
C532   C     0.18312   0.83185   0.02423   0.00000  Uiso   1.00
C533   C     0.18312   0.83472   0.47587   0.00000  Uiso   1.00
C534   C     0.29067   0.83363   0.25061   0.00000  Uiso   1.00
C535   C     0.04229   0.83335   0.24989   0.00000  Uiso   1.00
C536   C     0.26470   0.89902   0.04077   0.00000  Uiso   1.00
C537   C     0.26443   0.76990   0.46271   0.00000  Uiso   1.00
C538   C     0.10438   0.89989   0.48828   0.00000  Uiso   1.00
C539   C     0.16732   0.83327   0.16380   0.00000  Uiso   1.00
C540   C     0.10369   0.76707   0.01163   0.00000  Uiso   1.00
C541   C     0.03780   0.72656   0.22377   0.00000  Uiso   1.00
C542   C     0.28879   0.91194   0.17761   0.00000  Uiso   1.00
C543   C     0.29001   0.75730   0.32534   0.00000  Uiso   1.00
C544   C     0.04093   0.93984   0.27619   0.00000  Uiso   1.00
C545   C     0.16737   0.83340   0.33620   0.00000  Uiso   1.00
C546   C     0.18714   0.69083   0.28256   0.00000  Uiso   1.00
C547   C     0.14616   0.97584   0.21746   0.00000  Uiso   1.00
C548   C     0.14630   0.69052   0.21736   0.00000  Uiso   1.00
C549   C     0.18723   0.97615   0.28250   0.00000  Uiso   1.00
C550   C     0.02074   0.79258   0.25797   0.00000  Uiso   1.00
H551   H     0.20339   0.70919   0.30862   0.00000  Uiso   1.00
H552   H     0.26944   0.90969   0.07616   0.00000  Uiso   1.00
H553   H     0.28241   0.92284   0.01938   0.00000  Uiso   1.00
H554   H     0.27585   0.80401   0.47325   0.00000  Uiso   1.00
H555   H     0.27146   0.76378   0.42674   0.00000  Uiso   1.00
H556   H     0.28155   0.74424   0.48247   0.00000  Uiso   1.00
H557   H     0.09991   0.87186   0.01264   0.00000  Uiso   1.00
H558   H     0.08642   0.89332   0.45705   0.00000  Uiso   1.00
H559   H     0.09179   0.93119   0.00379   0.00000  Uiso   1.00
H560   H     0.09937   0.79521   0.48737   0.00000  Uiso   1.00
H561   H     0.08586   0.77358   0.04286   0.00000  Uiso   1.00
H562   H     0.12965   0.95749   0.19155   0.00000  Uiso   1.00
H563   H     0.09083   0.73587   0.49599   0.00000  Uiso   1.00
H564   H     0.00555   0.71520   0.21744   0.00000  Uiso   1.00
H565   H     0.04962   0.74620   0.19459   0.00000  Uiso   1.00
H566   H     0.05712   0.69580   0.22668   0.00000  Uiso   1.00
H567   H     0.27112   0.94223   0.16687   0.00000  Uiso   1.00
H568   H     0.31987   0.91395   0.16191   0.00000  Uiso   1.00
H569   H     0.27191   0.88139   0.16519   0.00000  Uiso   1.00
H570   H     0.27403   0.72642   0.33762   0.00000  Uiso   1.00
H571   H     0.32155   0.75750   0.34022   0.00000  Uiso   1.00
H572   H     0.27225   0.78730   0.33723   0.00000  Uiso   1.00
H573   H     0.13004   0.70863   0.19129   0.00000  Uiso   1.00
H574   H     0.06437   0.96721   0.27435   0.00000  Uiso   1.00
H575   H     0.01027   0.95583   0.28142   0.00000  Uiso   1.00
H576   H     0.04926   0.91857   0.30571   0.00000  Uiso   1.00
H577   H     0.20369   0.95805   0.30844   0.00000  Uiso   1.00
H578   H     0.20630   0.89617   0.11514   0.00000  Uiso   1.00
H579   H     0.20597   0.77037   0.38511   0.00000  Uiso   1.00
H580   H     0.14137   0.89808   0.39271   0.00000  Uiso   1.00
H581   H     0.14074   0.76874   0.10721   0.00000  Uiso   1.00
H582   H     0.27752   0.86441   0.03514   0.00000  Uiso   1.00
N583   N     0.16667   0.95240   0.25000   0.00000  Uiso   1.00
N584   N     0.16667   0.71427   0.25000   0.00000  Uiso   1.00
O585   O     0.10559   0.87154   0.25000   0.00000  Uiso   1.00
O586   O     0.22192   0.76474   0.47139   0.00000  Uiso   1.00
O587   O     0.14667   0.90680   0.47966   0.00000  Uiso   1.00
O588   O     0.14596   0.75999   0.02027   0.00000  Uiso   1.00
O589   O     0.04082   0.75163   0.26407   0.00000  Uiso   1.00
O590   O     0.29167   0.91227   0.22478   0.00000  Uiso   1.00
O591   O     0.29147   0.75563   0.27813   0.00000  Uiso   1.00
O592   O     0.04150   0.91507   0.23557   0.00000  Uiso   1.00
O593   O     0.22774   0.79513   0.25001   0.00000  Uiso   1.00
O594   O     0.22774   0.87154   0.25001   0.00000  Uiso   1.00
O595   O     0.10559   0.79513   0.25000   0.00000  Uiso   1.00
O596   O     0.16666   0.87155   0.18453   0.00000  Uiso   1.00
O597   O     0.16667   0.79511   0.31547   0.00000  Uiso   1.00
O598   O     0.16667   0.87155   0.31547   0.00000  Uiso   1.00
O599   O     0.16666   0.79511   0.18453   0.00000  Uiso   1.00
O600   O     0.22269   0.90149   0.02859   0.00000  Uiso   1.00
Zn601  Zn    0.16667   0.88437   0.25000   0.00000  Uiso   1.00
Zn602  Zn    0.16667   0.78229   0.25000   0.00000  Uiso   1.00
C603   C     0.41988   0.83330   0.24986   0.00000  Uiso   1.00
C604   C     0.64533   0.87327   0.23814   0.00000  Uiso   1.00
C605   C     0.64518   0.79408   0.26319   0.00000  Uiso   1.00
C606   C     0.35436   0.87432   0.24222   0.00000  Uiso   1.00
C607   C     0.53459   0.86684   0.04959   0.00000  Uiso   1.00
C608   C     0.53416   0.79961   0.45055   0.00000  Uiso   1.00
C609   C     0.49484   0.87041   0.45514   0.00000  Uiso   1.00
C610   C     0.49448   0.79629   0.04487   0.00000  Uiso   1.00
C611   C     0.52751   0.86813   0.09550   0.00000  Uiso   1.00
C612   C     0.52722   0.79840   0.40464   0.00000  Uiso   1.00
C613   C     0.49060   0.87024   0.40892   0.00000  Uiso   1.00
C614   C     0.57999   0.83342   0.25028   0.00000  Uiso   1.00
C615   C     0.49024   0.79649   0.09106   0.00000  Uiso   1.00
C616   C     0.50549   0.83302   0.11597   0.00000  Uiso   1.00
C617   C     0.50555   0.83364   0.38406   0.00000  Uiso   1.00
C618   C     0.51646   0.83185   0.02423   0.00000  Uiso   1.00
C619   C     0.51645   0.83472   0.47587   0.00000  Uiso   1.00
C620   C     0.62401   0.83363   0.25061   0.00000  Uiso   1.00
C621   C     0.37563   0.83335   0.24989   0.00000  Uiso   1.00
C622   C     0.59804   0.89902   0.04077   0.00000  Uiso   1.00
C623   C     0.59776   0.76990   0.46271   0.00000  Uiso   1.00
C624   C     0.43771   0.89989   0.48828   0.00000  Uiso   1.00
C625   C     0.50065   0.83327   0.16380   0.00000  Uiso   1.00
C626   C     0.43702   0.76707   0.01163   0.00000  Uiso   1.00
C627   C     0.37114   0.72656   0.22377   0.00000  Uiso   1.00
C628   C     0.62213   0.91194   0.17761   0.00000  Uiso   1.00
C629   C     0.62335   0.75730   0.32534   0.00000  Uiso   1.00
C630   C     0.37426   0.93984   0.27619   0.00000  Uiso   1.00
C631   C     0.50071   0.83340   0.33620   0.00000  Uiso   1.00
C632   C     0.52047   0.69083   0.28256   0.00000  Uiso   1.00
C633   C     0.47949   0.97584   0.21746   0.00000  Uiso   1.00
C634   C     0.47963   0.69052   0.21736   0.00000  Uiso   1.00
C635   C     0.52056   0.97615   0.28250   0.00000  Uiso   1.00
C636   C     0.35407   0.79258   0.25797   0.00000  Uiso   1.00
H637   H     0.53672   0.70919   0.30862   0.00000  Uiso   1.00
H638   H     0.60277   0.90969   0.07616   0.00000  Uiso   1.00
H639   H     0.61574   0.92284   0.01938   0.00000  Uiso   1.00
H640   H     0.60918   0.80401   0.47325   0.00000  Uiso   1.00
H641   H     0.60479   0.76378   0.42674   0.00000  Uiso   1.00
H642   H     0.61488   0.74424   0.48247   0.00000  Uiso   1.00
H643   H     0.43324   0.87186   0.01264   0.00000  Uiso   1.00
H644   H     0.41975   0.89332   0.45705   0.00000  Uiso   1.00
H645   H     0.42512   0.93119   0.00379   0.00000  Uiso   1.00
H646   H     0.43270   0.79521   0.48737   0.00000  Uiso   1.00
H647   H     0.41920   0.77358   0.04286   0.00000  Uiso   1.00
H648   H     0.46298   0.95749   0.19155   0.00000  Uiso   1.00
H649   H     0.42416   0.73587   0.49599   0.00000  Uiso   1.00
H650   H     0.33888   0.71520   0.21744   0.00000  Uiso   1.00
H651   H     0.38295   0.74620   0.19459   0.00000  Uiso   1.00
H652   H     0.39045   0.69580   0.22668   0.00000  Uiso   1.00
H653   H     0.60445   0.94223   0.16687   0.00000  Uiso   1.00
H654   H     0.65320   0.91395   0.16191   0.00000  Uiso   1.00
H655   H     0.60524   0.88139   0.16519   0.00000  Uiso   1.00
H656   H     0.60736   0.72642   0.33762   0.00000  Uiso   1.00
H657   H     0.65488   0.75750   0.34022   0.00000  Uiso   1.00
H658   H     0.60558   0.78730   0.33723   0.00000  Uiso   1.00
H659   H     0.46337   0.70863   0.19129   0.00000  Uiso   1.00
H660   H     0.39771   0.96721   0.27435   0.00000  Uiso   1.00
H661   H     0.34361   0.95583   0.28142   0.00000  Uiso   1.00
H662   H     0.38260   0.91857   0.30571   0.00000  Uiso   1.00
H663   H     0.53702   0.95805   0.30844   0.00000  Uiso   1.00
H664   H     0.53963   0.89617   0.11514   0.00000  Uiso   1.00
H665   H     0.53930   0.77037   0.38511   0.00000  Uiso   1.00
H666   H     0.47471   0.89808   0.39271   0.00000  Uiso   1.00
H667   H     0.47408   0.76874   0.10721   0.00000  Uiso   1.00
H668   H     0.61086   0.86441   0.03514   0.00000  Uiso   1.00
N669   N     0.50000   0.95240   0.25000   0.00000  Uiso   1.00
N670   N     0.50000   0.71427   0.25000   0.00000  Uiso   1.00
O671   O     0.43892   0.87154   0.25000   0.00000  Uiso   1.00
O672   O     0.55526   0.76474   0.47139   0.00000  Uiso   1.00
O673   O     0.48001   0.90680   0.47966   0.00000  Uiso   1.00
O674   O     0.47929   0.75999   0.02027   0.00000  Uiso   1.00
O675   O     0.37415   0.75163   0.26407   0.00000  Uiso   1.00
O676   O     0.62501   0.91227   0.22478   0.00000  Uiso   1.00
O677   O     0.62480   0.75563   0.27813   0.00000  Uiso   1.00
O678   O     0.37483   0.91507   0.23557   0.00000  Uiso   1.00
O679   O     0.56108   0.79513   0.25001   0.00000  Uiso   1.00
O680   O     0.56108   0.87154   0.25001   0.00000  Uiso   1.00
O681   O     0.43892   0.79513   0.25000   0.00000  Uiso   1.00
O682   O     0.50000   0.87155   0.18453   0.00000  Uiso   1.00
O683   O     0.50000   0.79511   0.31547   0.00000  Uiso   1.00
O684   O     0.50000   0.87155   0.31547   0.00000  Uiso   1.00
O685   O     0.50000   0.79511   0.18453   0.00000  Uiso   1.00
O686   O     0.55602   0.90149   0.02859   0.00000  Uiso   1.00
Zn687  Zn    0.50000   0.88437   0.25000   0.00000  Uiso   1.00
Zn688  Zn    0.50000   0.78229   0.25000   0.00000  Uiso   1.00
C689   C     0.75322   0.83330   0.24986   0.00000  Uiso   1.00
C690   C     0.97866   0.87327   0.23814   0.00000  Uiso   1.00
C691   C     0.97852   0.79408   0.26319   0.00000  Uiso   1.00
C692   C     0.68769   0.87432   0.24222   0.00000  Uiso   1.00
C693   C     0.86792   0.86684   0.04959   0.00000  Uiso   1.00
C694   C     0.86749   0.79961   0.45055   0.00000  Uiso   1.00
C695   C     0.82818   0.87041   0.45514   0.00000  Uiso   1.00
C696   C     0.82782   0.79629   0.04487   0.00000  Uiso   1.00
C697   C     0.86084   0.86813   0.09550   0.00000  Uiso   1.00
C698   C     0.86056   0.79840   0.40464   0.00000  Uiso   1.00
C699   C     0.82393   0.87024   0.40892   0.00000  Uiso   1.00
C700   C     0.91332   0.83342   0.25028   0.00000  Uiso   1.00
C701   C     0.82357   0.79649   0.09106   0.00000  Uiso   1.00
C702   C     0.83882   0.83302   0.11597   0.00000  Uiso   1.00
C703   C     0.83888   0.83364   0.38406   0.00000  Uiso   1.00
C704   C     0.84979   0.83185   0.02423   0.00000  Uiso   1.00
C705   C     0.84978   0.83472   0.47587   0.00000  Uiso   1.00
C706   C     0.95734   0.83363   0.25061   0.00000  Uiso   1.00
C707   C     0.70896   0.83335   0.24989   0.00000  Uiso   1.00
C708   C     0.93137   0.89902   0.04077   0.00000  Uiso   1.00
C709   C     0.93110   0.76990   0.46271   0.00000  Uiso   1.00
C710   C     0.77104   0.89989   0.48828   0.00000  Uiso   1.00
C711   C     0.83399   0.83327   0.16380   0.00000  Uiso   1.00
C712   C     0.77035   0.76707   0.01163   0.00000  Uiso   1.00
C713   C     0.70447   0.72656   0.22377   0.00000  Uiso   1.00
C714   C     0.95546   0.91194   0.17761   0.00000  Uiso   1.00
C715   C     0.95668   0.75730   0.32534   0.00000  Uiso   1.00
C716   C     0.70759   0.93984   0.27619   0.00000  Uiso   1.00
C717   C     0.83404   0.83340   0.33620   0.00000  Uiso   1.00
C718   C     0.85380   0.69083   0.28256   0.00000  Uiso   1.00
C719   C     0.81282   0.97584   0.21746   0.00000  Uiso   1.00
C720   C     0.81297   0.69052   0.21736   0.00000  Uiso   1.00
C721   C     0.85390   0.97615   0.28250   0.00000  Uiso   1.00
C722   C     0.68741   0.79258   0.25797   0.00000  Uiso   1.00
H723   H     0.87005   0.70919   0.30862   0.00000  Uiso   1.00
H724   H     0.93610   0.90969   0.07616   0.00000  Uiso   1.00
H725   H     0.94907   0.92284   0.01938   0.00000  Uiso   1.00
H726   H     0.94251   0.80401   0.47325   0.00000  Uiso   1.00
H727   H     0.93812   0.76378   0.42674   0.00000  Uiso   1.00
H728   H     0.94822   0.74424   0.48247   0.00000  Uiso   1.00
H729   H     0.76658   0.87186   0.01264   0.00000  Uiso   1.00
H730   H     0.75309   0.89332   0.45705   0.00000  Uiso   1.00
H731   H     0.75846   0.93119   0.00379   0.00000  Uiso   1.00
H732   H     0.76604   0.79521   0.48737   0.00000  Uiso   1.00
H733   H     0.75253   0.77358   0.04286   0.00000  Uiso   1.00
H734   H     0.79632   0.95749   0.19155   0.00000  Uiso   1.00
H735   H     0.75749   0.73587   0.49599   0.00000  Uiso   1.00
H736   H     0.67222   0.71520   0.21744   0.00000  Uiso   1.00
H737   H     0.71629   0.74620   0.19459   0.00000  Uiso   1.00
H738   H     0.72378   0.69580   0.22668   0.00000  Uiso   1.00
H739   H     0.93778   0.94223   0.16687   0.00000  Uiso   1.00
H740   H     0.98653   0.91395   0.16191   0.00000  Uiso   1.00
H741   H     0.93858   0.88139   0.16519   0.00000  Uiso   1.00
H742   H     0.94069   0.72642   0.33762   0.00000  Uiso   1.00
H743   H     0.98821   0.75750   0.34022   0.00000  Uiso   1.00
H744   H     0.93891   0.78730   0.33723   0.00000  Uiso   1.00
H745   H     0.79670   0.70863   0.19129   0.00000  Uiso   1.00
H746   H     0.73104   0.96721   0.27435   0.00000  Uiso   1.00
H747   H     0.67694   0.95583   0.28142   0.00000  Uiso   1.00
H748   H     0.71593   0.91857   0.30571   0.00000  Uiso   1.00
H749   H     0.87036   0.95805   0.30844   0.00000  Uiso   1.00
H750   H     0.87296   0.89617   0.11514   0.00000  Uiso   1.00
H751   H     0.87263   0.77037   0.38511   0.00000  Uiso   1.00
H752   H     0.80804   0.89808   0.39271   0.00000  Uiso   1.00
H753   H     0.80741   0.76874   0.10721   0.00000  Uiso   1.00
H754   H     0.94419   0.86441   0.03514   0.00000  Uiso   1.00
N755   N     0.83333   0.95240   0.25000   0.00000  Uiso   1.00
N756   N     0.83333   0.71427   0.25000   0.00000  Uiso   1.00
O757   O     0.77226   0.87154   0.25000   0.00000  Uiso   1.00
O758   O     0.88859   0.76474   0.47139   0.00000  Uiso   1.00
O759   O     0.81334   0.90680   0.47966   0.00000  Uiso   1.00
O760   O     0.81262   0.75999   0.02027   0.00000  Uiso   1.00
O761   O     0.70748   0.75163   0.26407   0.00000  Uiso   1.00
O762   O     0.95834   0.91227   0.22478   0.00000  Uiso   1.00
O763   O     0.95813   0.75563   0.27813   0.00000  Uiso   1.00
O764   O     0.70817   0.91507   0.23557   0.00000  Uiso   1.00
O765   O     0.89441   0.79513   0.25001   0.00000  Uiso   1.00
O766   O     0.89441   0.87154   0.25001   0.00000  Uiso   1.00
O767   O     0.77226   0.79513   0.25000   0.00000  Uiso   1.00
O768   O     0.83333   0.87155   0.18453   0.00000  Uiso   1.00
O769   O     0.83334   0.79511   0.31547   0.00000  Uiso   1.00
O770   O     0.83334   0.87155   0.31547   0.00000  Uiso   1.00
O771   O     0.83333   0.79511   0.18453   0.00000  Uiso   1.00
O772   O     0.88936   0.90149   0.02859   0.00000  Uiso   1.00
Zn773  Zn    0.83333   0.88437   0.25000   0.00000  Uiso   1.00
Zn774  Zn    0.83333   0.78229   0.25000   0.00000  Uiso   1.00
C775   C     0.08655   0.16663   0.74986   0.00000  Uiso   1.00
C776   C     0.31200   0.20661   0.73814   0.00000  Uiso   1.00
C777   C     0.31185   0.12741   0.76319   0.00000  Uiso   1.00
C778   C     0.02102   0.20766   0.74222   0.00000  Uiso   1.00
C779   C     0.20125   0.20017   0.54959   0.00000  Uiso   1.00
C780   C     0.20082   0.13294   0.95055   0.00000  Uiso   1.00
C781   C     0.16151   0.20374   0.95514   0.00000  Uiso   1.00
C782   C     0.16115   0.12963   0.54487   0.00000  Uiso   1.00
C783   C     0.19418   0.20147   0.59550   0.00000  Uiso   1.00
C784   C     0.19389   0.13174   0.90464   0.00000  Uiso   1.00
C785   C     0.15727   0.20357   0.90892   0.00000  Uiso   1.00
C786   C     0.24665   0.16675   0.75028   0.00000  Uiso   1.00
C787   C     0.15690   0.12982   0.59106   0.00000  Uiso   1.00
C788   C     0.17216   0.16635   0.61597   0.00000  Uiso   1.00
C789   C     0.17221   0.16698   0.88406   0.00000  Uiso   1.00
C790   C     0.18312   0.16518   0.52423   0.00000  Uiso   1.00
C791   C     0.18312   0.16805   0.97587   0.00000  Uiso   1.00
C792   C     0.29067   0.16697   0.75061   0.00000  Uiso   1.00
C793   C     0.04229   0.16668   0.74989   0.00000  Uiso   1.00
C794   C     0.26470   0.23236   0.54077   0.00000  Uiso   1.00
C795   C     0.26443   0.10323   0.96271   0.00000  Uiso   1.00
C796   C     0.10438   0.23323   0.98828   0.00000  Uiso   1.00
C797   C     0.16732   0.16661   0.66380   0.00000  Uiso   1.00
C798   C     0.10369   0.10040   0.51163   0.00000  Uiso   1.00
C799   C     0.03780   0.05989   0.72377   0.00000  Uiso   1.00
C800   C     0.28879   0.24527   0.67761   0.00000  Uiso   1.00
C801   C     0.29001   0.09063   0.82534   0.00000  Uiso   1.00
C802   C     0.04093   0.27317   0.77619   0.00000  Uiso   1.00
C803   C     0.16737   0.16673   0.83620   0.00000  Uiso   1.00
C804   C     0.18714   0.02416   0.78256   0.00000  Uiso   1.00
C805   C     0.14616   0.30917   0.71746   0.00000  Uiso   1.00
C806   C     0.14630   0.02385   0.71736   0.00000  Uiso   1.00
C807   C     0.18723   0.30948   0.78250   0.00000  Uiso   1.00
C808   C     0.02074   0.12591   0.75797   0.00000  Uiso   1.00
H809   H     0.20339   0.04252   0.80862   0.00000  Uiso   1.00
H810   H     0.26944   0.24302   0.57616   0.00000  Uiso   1.00
H811   H     0.28241   0.25618   0.51938   0.00000  Uiso   1.00
H812   H     0.27585   0.13734   0.97325   0.00000  Uiso   1.00
H813   H     0.27146   0.09711   0.92674   0.00000  Uiso   1.00
H814   H     0.28155   0.07757   0.98247   0.00000  Uiso   1.00
H815   H     0.09991   0.20520   0.51264   0.00000  Uiso   1.00
H816   H     0.08642   0.22665   0.95705   0.00000  Uiso   1.00
H817   H     0.09179   0.26453   0.50379   0.00000  Uiso   1.00
H818   H     0.09937   0.12854   0.98737   0.00000  Uiso   1.00
H819   H     0.08586   0.10692   0.54286   0.00000  Uiso   1.00
H820   H     0.12965   0.29083   0.69155   0.00000  Uiso   1.00
H821   H     0.09083   0.06920   0.99599   0.00000  Uiso   1.00
H822   H     0.00555   0.04854   0.71744   0.00000  Uiso   1.00
H823   H     0.04962   0.07953   0.69459   0.00000  Uiso   1.00
H824   H     0.05712   0.02913   0.72668   0.00000  Uiso   1.00
H825   H     0.27112   0.27557   0.66687   0.00000  Uiso   1.00
H826   H     0.31987   0.24728   0.66191   0.00000  Uiso   1.00
H827   H     0.27191   0.21473   0.66519   0.00000  Uiso   1.00
H828   H     0.27403   0.05976   0.83762   0.00000  Uiso   1.00
H829   H     0.32155   0.09084   0.84022   0.00000  Uiso   1.00
H830   H     0.27225   0.12063   0.83723   0.00000  Uiso   1.00
H831   H     0.13004   0.04196   0.69129   0.00000  Uiso   1.00
H832   H     0.06437   0.30054   0.77435   0.00000  Uiso   1.00
H833   H     0.01027   0.28917   0.78142   0.00000  Uiso   1.00
H834   H     0.04926   0.25190   0.80571   0.00000  Uiso   1.00
H835   H     0.20369   0.29138   0.80844   0.00000  Uiso   1.00
H836   H     0.20630   0.22950   0.61514   0.00000  Uiso   1.00
H837   H     0.20597   0.10370   0.88511   0.00000  Uiso   1.00
H838   H     0.14137   0.23141   0.89271   0.00000  Uiso   1.00
H839   H     0.14074   0.10207   0.60721   0.00000  Uiso   1.00
H840   H     0.27752   0.19775   0.53514   0.00000  Uiso   1.00
N841   N     0.16667   0.28573   0.75000   0.00000  Uiso   1.00
N842   N     0.16667   0.04760   0.75000   0.00000  Uiso   1.00
O843   O     0.10559   0.20487   0.75000   0.00000  Uiso   1.00
O844   O     0.22192   0.09807   0.97139   0.00000  Uiso   1.00
O845   O     0.14667   0.24014   0.97966   0.00000  Uiso   1.00
O846   O     0.14596   0.09333   0.52027   0.00000  Uiso   1.00
O847   O     0.04082   0.08496   0.76407   0.00000  Uiso   1.00
O848   O     0.29167   0.24560   0.72478   0.00000  Uiso   1.00
O849   O     0.29147   0.08896   0.77813   0.00000  Uiso   1.00
O850   O     0.04150   0.24841   0.73557   0.00000  Uiso   1.00
O851   O     0.22774   0.12846   0.75001   0.00000  Uiso   1.00
O852   O     0.22774   0.20487   0.75001   0.00000  Uiso   1.00
O853   O     0.10559   0.12846   0.75000   0.00000  Uiso   1.00
O854   O     0.16666   0.20489   0.68453   0.00000  Uiso   1.00
O855   O     0.16667   0.12845   0.81547   0.00000  Uiso   1.00
O856   O     0.16667   0.20489   0.81547   0.00000  Uiso   1.00
O857   O     0.16666   0.12845   0.68453   0.00000  Uiso   1.00
O858   O     0.22269   0.23482   0.52859   0.00000  Uiso   1.00
Zn859  Zn    0.16667   0.21771   0.75000   0.00000  Uiso   1.00
Zn860  Zn    0.16667   0.11563   0.75000   0.00000  Uiso   1.00
C861   C     0.41988   0.16663   0.74986   0.00000  Uiso   1.00
C862   C     0.64533   0.20661   0.73814   0.00000  Uiso   1.00
C863   C     0.64518   0.12741   0.76319   0.00000  Uiso   1.00
C864   C     0.35436   0.20766   0.74222   0.00000  Uiso   1.00
C865   C     0.53459   0.20017   0.54959   0.00000  Uiso   1.00
C866   C     0.53416   0.13294   0.95055   0.00000  Uiso   1.00
C867   C     0.49484   0.20374   0.95514   0.00000  Uiso   1.00
C868   C     0.49448   0.12963   0.54487   0.00000  Uiso   1.00
C869   C     0.52751   0.20147   0.59550   0.00000  Uiso   1.00
C870   C     0.52722   0.13174   0.90464   0.00000  Uiso   1.00
C871   C     0.49060   0.20357   0.90892   0.00000  Uiso   1.00
C872   C     0.57999   0.16675   0.75028   0.00000  Uiso   1.00
C873   C     0.49024   0.12982   0.59106   0.00000  Uiso   1.00
C874   C     0.50549   0.16635   0.61597   0.00000  Uiso   1.00
C875   C     0.50555   0.16698   0.88406   0.00000  Uiso   1.00
C876   C     0.51646   0.16518   0.52423   0.00000  Uiso   1.00
C877   C     0.51645   0.16805   0.97587   0.00000  Uiso   1.00
C878   C     0.62401   0.16697   0.75061   0.00000  Uiso   1.00
C879   C     0.37563   0.16668   0.74989   0.00000  Uiso   1.00
C880   C     0.59804   0.23236   0.54077   0.00000  Uiso   1.00
C881   C     0.59776   0.10323   0.96271   0.00000  Uiso   1.00
C882   C     0.43771   0.23323   0.98828   0.00000  Uiso   1.00
C883   C     0.50065   0.16661   0.66380   0.00000  Uiso   1.00
C884   C     0.43702   0.10040   0.51163   0.00000  Uiso   1.00
C885   C     0.37114   0.05989   0.72377   0.00000  Uiso   1.00
C886   C     0.62213   0.24527   0.67761   0.00000  Uiso   1.00
C887   C     0.62335   0.09063   0.82534   0.00000  Uiso   1.00
C888   C     0.37426   0.27317   0.77619   0.00000  Uiso   1.00
C889   C     0.50071   0.16673   0.83620   0.00000  Uiso   1.00
C890   C     0.52047   0.02416   0.78256   0.00000  Uiso   1.00
C891   C     0.47949   0.30917   0.71746   0.00000  Uiso   1.00
C892   C     0.47963   0.02385   0.71736   0.00000  Uiso   1.00
C893   C     0.52056   0.30948   0.78250   0.00000  Uiso   1.00
C894   C     0.35407   0.12591   0.75797   0.00000  Uiso   1.00
H895   H     0.53672   0.04252   0.80862   0.00000  Uiso   1.00
H896   H     0.60277   0.24302   0.57616   0.00000  Uiso   1.00
H897   H     0.61574   0.25618   0.51938   0.00000  Uiso   1.00
H898   H     0.60918   0.13734   0.97325   0.00000  Uiso   1.00
H899   H     0.60479   0.09711   0.92674   0.00000  Uiso   1.00
H900   H     0.61488   0.07757   0.98247   0.00000  Uiso   1.00
H901   H     0.43324   0.20520   0.51264   0.00000  Uiso   1.00
H902   H     0.41975   0.22665   0.95705   0.00000  Uiso   1.00
H903   H     0.42512   0.26453   0.50379   0.00000  Uiso   1.00
H904   H     0.43270   0.12854   0.98737   0.00000  Uiso   1.00
H905   H     0.41920   0.10692   0.54286   0.00000  Uiso   1.00
H906   H     0.46298   0.29083   0.69155   0.00000  Uiso   1.00
H907   H     0.42416   0.06920   0.99599   0.00000  Uiso   1.00
H908   H     0.33888   0.04854   0.71744   0.00000  Uiso   1.00
H909   H     0.38295   0.07953   0.69459   0.00000  Uiso   1.00
H910   H     0.39045   0.02913   0.72668   0.00000  Uiso   1.00
H911   H     0.60445   0.27557   0.66687   0.00000  Uiso   1.00
H912   H     0.65320   0.24728   0.66191   0.00000  Uiso   1.00
H913   H     0.60524   0.21473   0.66519   0.00000  Uiso   1.00
H914   H     0.60736   0.05976   0.83762   0.00000  Uiso   1.00
H915   H     0.65488   0.09084   0.84022   0.00000  Uiso   1.00
H916   H     0.60558   0.12063   0.83723   0.00000  Uiso   1.00
H917   H     0.46337   0.04196   0.69129   0.00000  Uiso   1.00
H918   H     0.39771   0.30054   0.77435   0.00000  Uiso   1.00
H919   H     0.34361   0.28917   0.78142   0.00000  Uiso   1.00
H920   H     0.38260   0.25190   0.80571   0.00000  Uiso   1.00
H921   H     0.53702   0.29138   0.80844   0.00000  Uiso   1.00
H922   H     0.53963   0.22950   0.61514   0.00000  Uiso   1.00
H923   H     0.53930   0.10370   0.88511   0.00000  Uiso   1.00
H924   H     0.47471   0.23141   0.89271   0.00000  Uiso   1.00
H925   H     0.47408   0.10207   0.60721   0.00000  Uiso   1.00
H926   H     0.61086   0.19775   0.53514   0.00000  Uiso   1.00
N927   N     0.50000   0.28573   0.75000   0.00000  Uiso   1.00
N928   N     0.50000   0.04760   0.75000   0.00000  Uiso   1.00
O929   O     0.43892   0.20487   0.75000   0.00000  Uiso   1.00
O930   O     0.55526   0.09807   0.97139   0.00000  Uiso   1.00
O931   O     0.48001   0.24014   0.97966   0.00000  Uiso   1.00
O932   O     0.47929   0.09333   0.52027   0.00000  Uiso   1.00
O933   O     0.37415   0.08496   0.76407   0.00000  Uiso   1.00
O934   O     0.62501   0.24560   0.72478   0.00000  Uiso   1.00
O935   O     0.62480   0.08896   0.77813   0.00000  Uiso   1.00
O936   O     0.37483   0.24841   0.73557   0.00000  Uiso   1.00
O937   O     0.56108   0.12846   0.75001   0.00000  Uiso   1.00
O938   O     0.56108   0.20487   0.75001   0.00000  Uiso   1.00
O939   O     0.43892   0.12846   0.75000   0.00000  Uiso   1.00
O940   O     0.50000   0.20489   0.68453   0.00000  Uiso   1.00
O941   O     0.50000   0.12845   0.81547   0.00000  Uiso   1.00
O942   O     0.50000   0.20489   0.81547   0.00000  Uiso   1.00
O943   O     0.50000   0.12845   0.68453   0.00000  Uiso   1.00
O944   O     0.55602   0.23482   0.52859   0.00000  Uiso   1.00
Zn945  Zn    0.50000   0.21771   0.75000   0.00000  Uiso   1.00
Zn946  Zn    0.50000   0.11563   0.75000   0.00000  Uiso   1.00
C947   C     0.75322   0.16663   0.74986   0.00000  Uiso   1.00
C948   C     0.97866   0.20661   0.73814   0.00000  Uiso   1.00
C949   C     0.97852   0.12741   0.76319   0.00000  Uiso   1.00
C950   C     0.68769   0.20766   0.74222   0.00000  Uiso   1.00
C951   C     0.86792   0.20017   0.54959   0.00000  Uiso   1.00
C952   C     0.86749   0.13294   0.95055   0.00000  Uiso   1.00
C953   C     0.82818   0.20374   0.95514   0.00000  Uiso   1.00
C954   C     0.82782   0.12963   0.54487   0.00000  Uiso   1.00
C955   C     0.86084   0.20147   0.59550   0.00000  Uiso   1.00
C956   C     0.86056   0.13174   0.90464   0.00000  Uiso   1.00
C957   C     0.82393   0.20357   0.90892   0.00000  Uiso   1.00
C958   C     0.91332   0.16675   0.75028   0.00000  Uiso   1.00
C959   C     0.82357   0.12982   0.59106   0.00000  Uiso   1.00
C960   C     0.83882   0.16635   0.61597   0.00000  Uiso   1.00
C961   C     0.83888   0.16698   0.88406   0.00000  Uiso   1.00
C962   C     0.84979   0.16518   0.52423   0.00000  Uiso   1.00
C963   C     0.84978   0.16805   0.97587   0.00000  Uiso   1.00
C964   C     0.95734   0.16697   0.75061   0.00000  Uiso   1.00
C965   C     0.70896   0.16668   0.74989   0.00000  Uiso   1.00
C966   C     0.93137   0.23236   0.54077   0.00000  Uiso   1.00
C967   C     0.93110   0.10323   0.96271   0.00000  Uiso   1.00
C968   C     0.77104   0.23323   0.98828   0.00000  Uiso   1.00
C969   C     0.83399   0.16661   0.66380   0.00000  Uiso   1.00
C970   C     0.77035   0.10040   0.51163   0.00000  Uiso   1.00
C971   C     0.70447   0.05989   0.72377   0.00000  Uiso   1.00
C972   C     0.95546   0.24527   0.67761   0.00000  Uiso   1.00
C973   C     0.95668   0.09063   0.82534   0.00000  Uiso   1.00
C974   C     0.70759   0.27317   0.77619   0.00000  Uiso   1.00
C975   C     0.83404   0.16673   0.83620   0.00000  Uiso   1.00
C976   C     0.85380   0.02416   0.78256   0.00000  Uiso   1.00
C977   C     0.81282   0.30917   0.71746   0.00000  Uiso   1.00
C978   C     0.81297   0.02385   0.71736   0.00000  Uiso   1.00
C979   C     0.85390   0.30948   0.78250   0.00000  Uiso   1.00
C980   C     0.68741   0.12591   0.75797   0.00000  Uiso   1.00
H981   H     0.87005   0.04252   0.80862   0.00000  Uiso   1.00
H982   H     0.93610   0.24302   0.57616   0.00000  Uiso   1.00
H983   H     0.94907   0.25618   0.51938   0.00000  Uiso   1.00
H984   H     0.94251   0.13734   0.97325   0.00000  Uiso   1.00
H985   H     0.93812   0.09711   0.92674   0.00000  Uiso   1.00
H986   H     0.94822   0.07757   0.98247   0.00000  Uiso   1.00
H987   H     0.76658   0.20520   0.51264   0.00000  Uiso   1.00
H988   H     0.75309   0.22665   0.95705   0.00000  Uiso   1.00
H989   H     0.75846   0.26453   0.50379   0.00000  Uiso   1.00
H990   H     0.76604   0.12854   0.98737   0.00000  Uiso   1.00
H991   H     0.75253   0.10692   0.54286   0.00000  Uiso   1.00
H992   H     0.79632   0.29083   0.69155   0.00000  Uiso   1.00
H993   H     0.75749   0.06920   0.99599   0.00000  Uiso   1.00
H994   H     0.67222   0.04854   0.71744   0.00000  Uiso   1.00
H995   H     0.71629   0.07953   0.69459   0.00000  Uiso   1.00
H996   H     0.72378   0.02913   0.72668   0.00000  Uiso   1.00
H997   H     0.93778   0.27557   0.66687   0.00000  Uiso   1.00
H998   H     0.98653   0.24728   0.66191   0.00000  Uiso   1.00
H999   H     0.93858   0.21473   0.66519   0.00000  Uiso   1.00
H1000  H     0.94069   0.05976   0.83762   0.00000  Uiso   1.00
H1001  H     0.98821   0.09084   0.84022   0.00000  Uiso   1.00
H1002  H     0.93891   0.12063   0.83723   0.00000  Uiso   1.00
H1003  H     0.79670   0.04196   0.69129   0.00000  Uiso   1.00
H1004  H     0.73104   0.30054   0.77435   0.00000  Uiso   1.00
H1005  H     0.67694   0.28917   0.78142   0.00000  Uiso   1.00
H1006  H     0.71593   0.25190   0.80571   0.00000  Uiso   1.00
H1007  H     0.87036   0.29138   0.80844   0.00000  Uiso   1.00
H1008  H     0.87296   0.22950   0.61514   0.00000  Uiso   1.00
H1009  H     0.87263   0.10370   0.88511   0.00000  Uiso   1.00
H1010  H     0.80804   0.23141   0.89271   0.00000  Uiso   1.00
H1011  H     0.80741   0.10207   0.60721   0.00000  Uiso   1.00
H1012  H     0.94419   0.19775   0.53514   0.00000  Uiso   1.00
N1013  N     0.83333   0.28573   0.75000   0.00000  Uiso   1.00
N1014  N     0.83333   0.04760   0.75000   0.00000  Uiso   1.00
O1015  O     0.77226   0.20487   0.75000   0.00000  Uiso   1.00
O1016  O     0.88859   0.09807   0.97139   0.00000  Uiso   1.00
O1017  O     0.81334   0.24014   0.97966   0.00000  Uiso   1.00
O1018  O     0.81262   0.09333   0.52027   0.00000  Uiso   1.00
O1019  O     0.70748   0.08496   0.76407   0.00000  Uiso   1.00
O1020  O     0.95834   0.24560   0.72478   0.00000  Uiso   1.00
O1021  O     0.95813   0.08896   0.77813   0.00000  Uiso   1.00
O1022  O     0.70817   0.24841   0.73557   0.00000  Uiso   1.00
O1023  O     0.89441   0.12846   0.75001   0.00000  Uiso   1.00
O1024  O     0.89441   0.20487   0.75001   0.00000  Uiso   1.00
O1025  O     0.77226   0.12846   0.75000   0.00000  Uiso   1.00
O1026  O     0.83333   0.20489   0.68453   0.00000  Uiso   1.00
O1027  O     0.83334   0.12845   0.81547   0.00000  Uiso   1.00
O1028  O     0.83334   0.20489   0.81547   0.00000  Uiso   1.00
O1029  O     0.83333   0.12845   0.68453   0.00000  Uiso   1.00
O1030  O     0.88936   0.23482   0.52859   0.00000  Uiso   1.00
Zn1031 Zn    0.83333   0.21771   0.75000   0.00000  Uiso   1.00
Zn1032 Zn    0.83333   0.11563   0.75000   0.00000  Uiso   1.00
C1033  C     0.08655   0.49997   0.74986   0.00000  Uiso   1.00
C1034  C     0.31200   0.53994   0.73814   0.00000  Uiso   1.00
C1035  C     0.31185   0.46075   0.76319   0.00000  Uiso   1.00
C1036  C     0.02102   0.54099   0.74222   0.00000  Uiso   1.00
C1037  C     0.20125   0.53350   0.54959   0.00000  Uiso   1.00
C1038  C     0.20082   0.46627   0.95055   0.00000  Uiso   1.00
C1039  C     0.16151   0.53708   0.95514   0.00000  Uiso   1.00
C1040  C     0.16115   0.46296   0.54487   0.00000  Uiso   1.00
C1041  C     0.19418   0.53480   0.59550   0.00000  Uiso   1.00
C1042  C     0.19389   0.46507   0.90464   0.00000  Uiso   1.00
C1043  C     0.15727   0.53690   0.90892   0.00000  Uiso   1.00
C1044  C     0.24665   0.50008   0.75028   0.00000  Uiso   1.00
C1045  C     0.15690   0.46315   0.59106   0.00000  Uiso   1.00
C1046  C     0.17216   0.49968   0.61597   0.00000  Uiso   1.00
C1047  C     0.17221   0.50031   0.88406   0.00000  Uiso   1.00
C1048  C     0.18312   0.49851   0.52423   0.00000  Uiso   1.00
C1049  C     0.18312   0.50139   0.97587   0.00000  Uiso   1.00
C1050  C     0.29067   0.50030   0.75061   0.00000  Uiso   1.00
C1051  C     0.04229   0.50001   0.74989   0.00000  Uiso   1.00
C1052  C     0.26470   0.56569   0.54077   0.00000  Uiso   1.00
C1053  C     0.26443   0.43656   0.96271   0.00000  Uiso   1.00
C1054  C     0.10438   0.56656   0.98828   0.00000  Uiso   1.00
C1055  C     0.16732   0.49994   0.66380   0.00000  Uiso   1.00
C1056  C     0.10369   0.43373   0.51163   0.00000  Uiso   1.00
C1057  C     0.03780   0.39322   0.72377   0.00000  Uiso   1.00
C1058  C     0.28879   0.57860   0.67761   0.00000  Uiso   1.00
C1059  C     0.29001   0.42397   0.82534   0.00000  Uiso   1.00
C1060  C     0.04093   0.60651   0.77619   0.00000  Uiso   1.00
C1061  C     0.16737   0.50006   0.83620   0.00000  Uiso   1.00
C1062  C     0.18714   0.35749   0.78256   0.00000  Uiso   1.00
C1063  C     0.14616   0.64251   0.71746   0.00000  Uiso   1.00
C1064  C     0.14630   0.35718   0.71736   0.00000  Uiso   1.00
C1065  C     0.18723   0.64282   0.78250   0.00000  Uiso   1.00
C1066  C     0.02074   0.45925   0.75797   0.00000  Uiso   1.00
H1067  H     0.20339   0.37585   0.80862   0.00000  Uiso   1.00
H1068  H     0.26944   0.57636   0.57616   0.00000  Uiso   1.00
H1069  H     0.28241   0.58951   0.51938   0.00000  Uiso   1.00
H1070  H     0.27585   0.47067   0.97325   0.00000  Uiso   1.00
H1071  H     0.27146   0.43045   0.92674   0.00000  Uiso   1.00
H1072  H     0.28155   0.41090   0.98247   0.00000  Uiso   1.00
H1073  H     0.09991   0.53853   0.51264   0.00000  Uiso   1.00
H1074  H     0.08642   0.55998   0.95705   0.00000  Uiso   1.00
H1075  H     0.09179   0.59786   0.50379   0.00000  Uiso   1.00
H1076  H     0.09937   0.46187   0.98737   0.00000  Uiso   1.00
H1077  H     0.08586   0.44025   0.54286   0.00000  Uiso   1.00
H1078  H     0.12965   0.62416   0.69155   0.00000  Uiso   1.00
H1079  H     0.09083   0.40253   0.99599   0.00000  Uiso   1.00
H1080  H     0.00555   0.38187   0.71744   0.00000  Uiso   1.00
H1081  H     0.04962   0.41286   0.69459   0.00000  Uiso   1.00
H1082  H     0.05712   0.36247   0.72668   0.00000  Uiso   1.00
H1083  H     0.27112   0.60890   0.66687   0.00000  Uiso   1.00
H1084  H     0.31987   0.58061   0.66191   0.00000  Uiso   1.00
H1085  H     0.27191   0.54806   0.66519   0.00000  Uiso   1.00
H1086  H     0.27403   0.39309   0.83762   0.00000  Uiso   1.00
H1087  H     0.32155   0.42417   0.84022   0.00000  Uiso   1.00
H1088  H     0.27225   0.45397   0.83723   0.00000  Uiso   1.00
H1089  H     0.13004   0.37529   0.69129   0.00000  Uiso   1.00
H1090  H     0.06437   0.63388   0.77435   0.00000  Uiso   1.00
H1091  H     0.01027   0.62250   0.78142   0.00000  Uiso   1.00
H1092  H     0.04926   0.58524   0.80571   0.00000  Uiso   1.00
H1093  H     0.20369   0.62471   0.80844   0.00000  Uiso   1.00
H1094  H     0.20630   0.56284   0.61514   0.00000  Uiso   1.00
H1095  H     0.20597   0.43703   0.88511   0.00000  Uiso   1.00
H1096  H     0.14137   0.56475   0.89271   0.00000  Uiso   1.00
H1097  H     0.14074   0.43540   0.60721   0.00000  Uiso   1.00
H1098  H     0.27752   0.53108   0.53514   0.00000  Uiso   1.00
N1099  N     0.16667   0.61907   0.75000   0.00000  Uiso   1.00
N1100  N     0.16667   0.38093   0.75000   0.00000  Uiso   1.00
O1101  O     0.10559   0.53821   0.75000   0.00000  Uiso   1.00
O1102  O     0.22192   0.43140   0.97139   0.00000  Uiso   1.00
O1103  O     0.14667   0.57347   0.97966   0.00000  Uiso   1.00
O1104  O     0.14596   0.42666   0.52027   0.00000  Uiso   1.00
O1105  O     0.04082   0.41829   0.76407   0.00000  Uiso   1.00
O1106  O     0.29167   0.57893   0.72478   0.00000  Uiso   1.00
O1107  O     0.29147   0.42230   0.77813   0.00000  Uiso   1.00
O1108  O     0.04150   0.58174   0.73557   0.00000  Uiso   1.00
O1109  O     0.22774   0.46179   0.75001   0.00000  Uiso   1.00
O1110  O     0.22774   0.53821   0.75001   0.00000  Uiso   1.00
O1111  O     0.10559   0.46179   0.75000   0.00000  Uiso   1.00
O1112  O     0.16666   0.53822   0.68453   0.00000  Uiso   1.00
O1113  O     0.16667   0.46178   0.81547   0.00000  Uiso   1.00
O1114  O     0.16667   0.53822   0.81547   0.00000  Uiso   1.00
O1115  O     0.16666   0.46178   0.68453   0.00000  Uiso   1.00
O1116  O     0.22269   0.56816   0.52859   0.00000  Uiso   1.00
Zn1117 Zn    0.16667   0.55104   0.75000   0.00000  Uiso   1.00
Zn1118 Zn    0.16667   0.44896   0.75000   0.00000  Uiso   1.00
C1119  C     0.41988   0.49997   0.74986   0.00000  Uiso   1.00
C1120  C     0.64533   0.53994   0.73814   0.00000  Uiso   1.00
C1121  C     0.64518   0.46075   0.76319   0.00000  Uiso   1.00
C1122  C     0.35436   0.54099   0.74222   0.00000  Uiso   1.00
C1123  C     0.53459   0.53350   0.54959   0.00000  Uiso   1.00
C1124  C     0.53416   0.46627   0.95055   0.00000  Uiso   1.00
C1125  C     0.49484   0.53708   0.95514   0.00000  Uiso   1.00
C1126  C     0.49448   0.46296   0.54487   0.00000  Uiso   1.00
C1127  C     0.52751   0.53480   0.59550   0.00000  Uiso   1.00
C1128  C     0.52722   0.46507   0.90464   0.00000  Uiso   1.00
C1129  C     0.49060   0.53690   0.90892   0.00000  Uiso   1.00
C1130  C     0.57999   0.50008   0.75028   0.00000  Uiso   1.00
C1131  C     0.49024   0.46315   0.59106   0.00000  Uiso   1.00
C1132  C     0.50549   0.49968   0.61597   0.00000  Uiso   1.00
C1133  C     0.50555   0.50031   0.88406   0.00000  Uiso   1.00
C1134  C     0.51646   0.49851   0.52423   0.00000  Uiso   1.00
C1135  C     0.51645   0.50139   0.97587   0.00000  Uiso   1.00
C1136  C     0.62401   0.50030   0.75061   0.00000  Uiso   1.00
C1137  C     0.37563   0.50001   0.74989   0.00000  Uiso   1.00
C1138  C     0.59804   0.56569   0.54077   0.00000  Uiso   1.00
C1139  C     0.59776   0.43656   0.96271   0.00000  Uiso   1.00
C1140  C     0.43771   0.56656   0.98828   0.00000  Uiso   1.00
C1141  C     0.50065   0.49994   0.66380   0.00000  Uiso   1.00
C1142  C     0.43702   0.43373   0.51163   0.00000  Uiso   1.00
C1143  C     0.37114   0.39322   0.72377   0.00000  Uiso   1.00
C1144  C     0.62213   0.57860   0.67761   0.00000  Uiso   1.00
C1145  C     0.62335   0.42397   0.82534   0.00000  Uiso   1.00
C1146  C     0.37426   0.60651   0.77619   0.00000  Uiso   1.00
C1147  C     0.50071   0.50006   0.83620   0.00000  Uiso   1.00
C1148  C     0.52047   0.35749   0.78256   0.00000  Uiso   1.00
C1149  C     0.47949   0.64251   0.71746   0.00000  Uiso   1.00
C1150  C     0.47963   0.35718   0.71736   0.00000  Uiso   1.00
C1151  C     0.52056   0.64282   0.78250   0.00000  Uiso   1.00
C1152  C     0.35407   0.45925   0.75797   0.00000  Uiso   1.00
H1153  H     0.53672   0.37585   0.80862   0.00000  Uiso   1.00
H1154  H     0.60277   0.57636   0.57616   0.00000  Uiso   1.00
H1155  H     0.61574   0.58951   0.51938   0.00000  Uiso   1.00
H1156  H     0.60918   0.47067   0.97325   0.00000  Uiso   1.00
H1157  H     0.60479   0.43045   0.92674   0.00000  Uiso   1.00
H1158  H     0.61488   0.41090   0.98247   0.00000  Uiso   1.00
H1159  H     0.43324   0.53853   0.51264   0.00000  Uiso   1.00
H1160  H     0.41975   0.55998   0.95705   0.00000  Uiso   1.00
H1161  H     0.42512   0.59786   0.50379   0.00000  Uiso   1.00
H1162  H     0.43270   0.46187   0.98737   0.00000  Uiso   1.00
H1163  H     0.41920   0.44025   0.54286   0.00000  Uiso   1.00
H1164  H     0.46298   0.62416   0.69155   0.00000  Uiso   1.00
H1165  H     0.42416   0.40253   0.99599   0.00000  Uiso   1.00
H1166  H     0.33888   0.38187   0.71744   0.00000  Uiso   1.00
H1167  H     0.38295   0.41286   0.69459   0.00000  Uiso   1.00
H1168  H     0.39045   0.36247   0.72668   0.00000  Uiso   1.00
H1169  H     0.60445   0.60890   0.66687   0.00000  Uiso   1.00
H1170  H     0.65320   0.58061   0.66191   0.00000  Uiso   1.00
H1171  H     0.60524   0.54806   0.66519   0.00000  Uiso   1.00
H1172  H     0.60736   0.39309   0.83762   0.00000  Uiso   1.00
H1173  H     0.65488   0.42417   0.84022   0.00000  Uiso   1.00
H1174  H     0.60558   0.45397   0.83723   0.00000  Uiso   1.00
H1175  H     0.46337   0.37529   0.69129   0.00000  Uiso   1.00
H1176  H     0.39771   0.63388   0.77435   0.00000  Uiso   1.00
H1177  H     0.34361   0.62250   0.78142   0.00000  Uiso   1.00
H1178  H     0.38260   0.58524   0.80571   0.00000  Uiso   1.00
H1179  H     0.53702   0.62471   0.80844   0.00000  Uiso   1.00
H1180  H     0.53963   0.56284   0.61514   0.00000  Uiso   1.00
H1181  H     0.53930   0.43703   0.88511   0.00000  Uiso   1.00
H1182  H     0.47471   0.56475   0.89271   0.00000  Uiso   1.00
H1183  H     0.47408   0.43540   0.60721   0.00000  Uiso   1.00
H1184  H     0.61086   0.53108   0.53514   0.00000  Uiso   1.00
N1185  N     0.50000   0.61907   0.75000   0.00000  Uiso   1.00
N1186  N     0.50000   0.38093   0.75000   0.00000  Uiso   1.00
O1187  O     0.43892   0.53821   0.75000   0.00000  Uiso   1.00
O1188  O     0.55526   0.43140   0.97139   0.00000  Uiso   1.00
O1189  O     0.48001   0.57347   0.97966   0.00000  Uiso   1.00
O1190  O     0.47929   0.42666   0.52027   0.00000  Uiso   1.00
O1191  O     0.37415   0.41829   0.76407   0.00000  Uiso   1.00
O1192  O     0.62501   0.57893   0.72478   0.00000  Uiso   1.00
O1193  O     0.62480   0.42230   0.77813   0.00000  Uiso   1.00
O1194  O     0.37483   0.58174   0.73557   0.00000  Uiso   1.00
O1195  O     0.56108   0.46179   0.75001   0.00000  Uiso   1.00
O1196  O     0.56108   0.53821   0.75001   0.00000  Uiso   1.00
O1197  O     0.43892   0.46179   0.75000   0.00000  Uiso   1.00
O1198  O     0.50000   0.53822   0.68453   0.00000  Uiso   1.00
O1199  O     0.50000   0.46178   0.81547   0.00000  Uiso   1.00
O1200  O     0.50000   0.53822   0.81547   0.00000  Uiso   1.00
O1201  O     0.50000   0.46178   0.68453   0.00000  Uiso   1.00
O1202  O     0.55602   0.56816   0.52859   0.00000  Uiso   1.00
Zn1203 Zn    0.50000   0.55104   0.75000   0.00000  Uiso   1.00
Zn1204 Zn    0.50000   0.44896   0.75000   0.00000  Uiso   1.00
C1205  C     0.75322   0.49997   0.74986   0.00000  Uiso   1.00
C1206  C     0.97866   0.53994   0.73814   0.00000  Uiso   1.00
C1207  C     0.97852   0.46075   0.76319   0.00000  Uiso   1.00
C1208  C     0.68769   0.54099   0.74222   0.00000  Uiso   1.00
C1209  C     0.86792   0.53350   0.54959   0.00000  Uiso   1.00
C1210  C     0.86749   0.46627   0.95055   0.00000  Uiso   1.00
C1211  C     0.82818   0.53708   0.95514   0.00000  Uiso   1.00
C1212  C     0.82782   0.46296   0.54487   0.00000  Uiso   1.00
C1213  C     0.86084   0.53480   0.59550   0.00000  Uiso   1.00
C1214  C     0.86056   0.46507   0.90464   0.00000  Uiso   1.00
C1215  C     0.82393   0.53690   0.90892   0.00000  Uiso   1.00
C1216  C     0.91332   0.50008   0.75028   0.00000  Uiso   1.00
C1217  C     0.82357   0.46315   0.59106   0.00000  Uiso   1.00
C1218  C     0.83882   0.49968   0.61597   0.00000  Uiso   1.00
C1219  C     0.83888   0.50031   0.88406   0.00000  Uiso   1.00
C1220  C     0.84979   0.49851   0.52423   0.00000  Uiso   1.00
C1221  C     0.84978   0.50139   0.97587   0.00000  Uiso   1.00
C1222  C     0.95734   0.50030   0.75061   0.00000  Uiso   1.00
C1223  C     0.70896   0.50001   0.74989   0.00000  Uiso   1.00
C1224  C     0.93137   0.56569   0.54077   0.00000  Uiso   1.00
C1225  C     0.93110   0.43656   0.96271   0.00000  Uiso   1.00
C1226  C     0.77104   0.56656   0.98828   0.00000  Uiso   1.00
C1227  C     0.83399   0.49994   0.66380   0.00000  Uiso   1.00
C1228  C     0.77035   0.43373   0.51163   0.00000  Uiso   1.00
C1229  C     0.70447   0.39322   0.72377   0.00000  Uiso   1.00
C1230  C     0.95546   0.57860   0.67761   0.00000  Uiso   1.00
C1231  C     0.95668   0.42397   0.82534   0.00000  Uiso   1.00
C1232  C     0.70759   0.60651   0.77619   0.00000  Uiso   1.00
C1233  C     0.83404   0.50006   0.83620   0.00000  Uiso   1.00
C1234  C     0.85380   0.35749   0.78256   0.00000  Uiso   1.00
C1235  C     0.81282   0.64251   0.71746   0.00000  Uiso   1.00
C1236  C     0.81297   0.35718   0.71736   0.00000  Uiso   1.00
C1237  C     0.85390   0.64282   0.78250   0.00000  Uiso   1.00
C1238  C     0.68741   0.45925   0.75797   0.00000  Uiso   1.00
H1239  H     0.87005   0.37585   0.80862   0.00000  Uiso   1.00
H1240  H     0.93610   0.57636   0.57616   0.00000  Uiso   1.00
H1241  H     0.94907   0.58951   0.51938   0.00000  Uiso   1.00
H1242  H     0.94251   0.47067   0.97325   0.00000  Uiso   1.00
H1243  H     0.93812   0.43045   0.92674   0.00000  Uiso   1.00
H1244  H     0.94822   0.41090   0.98247   0.00000  Uiso   1.00
H1245  H     0.76658   0.53853   0.51264   0.00000  Uiso   1.00
H1246  H     0.75309   0.55998   0.95705   0.00000  Uiso   1.00
H1247  H     0.75846   0.59786   0.50379   0.00000  Uiso   1.00
H1248  H     0.76604   0.46187   0.98737   0.00000  Uiso   1.00
H1249  H     0.75253   0.44025   0.54286   0.00000  Uiso   1.00
H1250  H     0.79632   0.62416   0.69155   0.00000  Uiso   1.00
H1251  H     0.75749   0.40253   0.99599   0.00000  Uiso   1.00
H1252  H     0.67222   0.38187   0.71744   0.00000  Uiso   1.00
H1253  H     0.71629   0.41286   0.69459   0.00000  Uiso   1.00
H1254  H     0.72378   0.36247   0.72668   0.00000  Uiso   1.00
H1255  H     0.93778   0.60890   0.66687   0.00000  Uiso   1.00
H1256  H     0.98653   0.58061   0.66191   0.00000  Uiso   1.00
H1257  H     0.93858   0.54806   0.66519   0.00000  Uiso   1.00
H1258  H     0.94069   0.39309   0.83762   0.00000  Uiso   1.00
H1259  H     0.98821   0.42417   0.84022   0.00000  Uiso   1.00
H1260  H     0.93891   0.45397   0.83723   0.00000  Uiso   1.00
H1261  H     0.79670   0.37529   0.69129   0.00000  Uiso   1.00
H1262  H     0.73104   0.63388   0.77435   0.00000  Uiso   1.00
H1263  H     0.67694   0.62250   0.78142   0.00000  Uiso   1.00
H1264  H     0.71593   0.58524   0.80571   0.00000  Uiso   1.00
H1265  H     0.87036   0.62471   0.80844   0.00000  Uiso   1.00
H1266  H     0.87296   0.56284   0.61514   0.00000  Uiso   1.00
H1267  H     0.87263   0.43703   0.88511   0.00000  Uiso   1.00
H1268  H     0.80804   0.56475   0.89271   0.00000  Uiso   1.00
H1269  H     0.80741   0.43540   0.60721   0.00000  Uiso   1.00
H1270  H     0.94419   0.53108   0.53514   0.00000  Uiso   1.00
N1271  N     0.83333   0.61907   0.75000   0.00000  Uiso   1.00
N1272  N     0.83333   0.38093   0.75000   0.00000  Uiso   1.00
O1273  O     0.77226   0.53821   0.75000   0.00000  Uiso   1.00
O1274  O     0.88859   0.43140   0.97139   0.00000  Uiso   1.00
O1275  O     0.81334   0.57347   0.97966   0.00000  Uiso   1.00
O1276  O     0.81262   0.42666   0.52027   0.00000  Uiso   1.00
O1277  O     0.70748   0.41829   0.76407   0.00000  Uiso   1.00
O1278  O     0.95834   0.57893   0.72478   0.00000  Uiso   1.00
O1279  O     0.95813   0.42230   0.77813   0.00000  Uiso   1.00
O1280  O     0.70817   0.58174   0.73557   0.00000  Uiso   1.00
O1281  O     0.89441   0.46179   0.75001   0.00000  Uiso   1.00
O1282  O     0.89441   0.53821   0.75001   0.00000  Uiso   1.00
O1283  O     0.77226   0.46179   0.75000   0.00000  Uiso   1.00
O1284  O     0.83333   0.53822   0.68453   0.00000  Uiso   1.00
O1285  O     0.83334   0.46178   0.81547   0.00000  Uiso   1.00
O1286  O     0.83334   0.53822   0.81547   0.00000  Uiso   1.00
O1287  O     0.83333   0.46178   0.68453   0.00000  Uiso   1.00
O1288  O     0.88936   0.56816   0.52859   0.00000  Uiso   1.00
Zn1289 Zn    0.83333   0.55104   0.75000   0.00000  Uiso   1.00
Zn1290 Zn    0.83333   0.44896   0.75000   0.00000  Uiso   1.00
C1291  C     0.08655   0.83330   0.74986   0.00000  Uiso   1.00
C1292  C     0.31200   0.87327   0.73814   0.00000  Uiso   1.00
C1293  C     0.31185   0.79408   0.76319   0.00000  Uiso   1.00
C1294  C     0.02102   0.87432   0.74222   0.00000  Uiso   1.00
C1295  C     0.20125   0.86684   0.54959   0.00000  Uiso   1.00
C1296  C     0.20082   0.79961   0.95055   0.00000  Uiso   1.00
C1297  C     0.16151   0.87041   0.95514   0.00000  Uiso   1.00
C1298  C     0.16115   0.79629   0.54487   0.00000  Uiso   1.00
C1299  C     0.19418   0.86813   0.59550   0.00000  Uiso   1.00
C1300  C     0.19389   0.79840   0.90464   0.00000  Uiso   1.00
C1301  C     0.15727   0.87024   0.90892   0.00000  Uiso   1.00
C1302  C     0.24665   0.83342   0.75028   0.00000  Uiso   1.00
C1303  C     0.15690   0.79649   0.59106   0.00000  Uiso   1.00
C1304  C     0.17216   0.83302   0.61597   0.00000  Uiso   1.00
C1305  C     0.17221   0.83364   0.88406   0.00000  Uiso   1.00
C1306  C     0.18312   0.83185   0.52423   0.00000  Uiso   1.00
C1307  C     0.18312   0.83472   0.97587   0.00000  Uiso   1.00
C1308  C     0.29067   0.83363   0.75061   0.00000  Uiso   1.00
C1309  C     0.04229   0.83335   0.74989   0.00000  Uiso   1.00
C1310  C     0.26470   0.89902   0.54077   0.00000  Uiso   1.00
C1311  C     0.26443   0.76990   0.96271   0.00000  Uiso   1.00
C1312  C     0.10438   0.89989   0.98828   0.00000  Uiso   1.00
C1313  C     0.16732   0.83327   0.66380   0.00000  Uiso   1.00
C1314  C     0.10369   0.76707   0.51163   0.00000  Uiso   1.00
C1315  C     0.03780   0.72656   0.72377   0.00000  Uiso   1.00
C1316  C     0.28879   0.91194   0.67761   0.00000  Uiso   1.00
C1317  C     0.29001   0.75730   0.82534   0.00000  Uiso   1.00
C1318  C     0.04093   0.93984   0.77619   0.00000  Uiso   1.00
C1319  C     0.16737   0.83340   0.83620   0.00000  Uiso   1.00
C1320  C     0.18714   0.69083   0.78256   0.00000  Uiso   1.00
C1321  C     0.14616   0.97584   0.71746   0.00000  Uiso   1.00
C1322  C     0.14630   0.69052   0.71736   0.00000  Uiso   1.00
C1323  C     0.18723   0.97615   0.78250   0.00000  Uiso   1.00
C1324  C     0.02074   0.79258   0.75797   0.00000  Uiso   1.00
H1325  H     0.20339   0.70919   0.80862   0.00000  Uiso   1.00
H1326  H     0.26944   0.90969   0.57616   0.00000  Uiso   1.00
H1327  H     0.28241   0.92284   0.51938   0.00000  Uiso   1.00
H1328  H     0.27585   0.80401   0.97325   0.00000  Uiso   1.00
H1329  H     0.27146   0.76378   0.92674   0.00000  Uiso   1.00
H1330  H     0.28155   0.74424   0.98247   0.00000  Uiso   1.00
H1331  H     0.09991   0.87186   0.51264   0.00000  Uiso   1.00
H1332  H     0.08642   0.89332   0.95705   0.00000  Uiso   1.00
H1333  H     0.09179   0.93119   0.50379   0.00000  Uiso   1.00
H1334  H     0.09937   0.79521   0.98737   0.00000  Uiso   1.00
H1335  H     0.08586   0.77358   0.54286   0.00000  Uiso   1.00
H1336  H     0.12965   0.95749   0.69155   0.00000  Uiso   1.00
H1337  H     0.09083   0.73587   0.99599   0.00000  Uiso   1.00
H1338  H     0.00555   0.71520   0.71744   0.00000  Uiso   1.00
H1339  H     0.04962   0.74620   0.69459   0.00000  Uiso   1.00
H1340  H     0.05712   0.69580   0.72668   0.00000  Uiso   1.00
H1341  H     0.27112   0.94223   0.66687   0.00000  Uiso   1.00
H1342  H     0.31987   0.91395   0.66191   0.00000  Uiso   1.00
H1343  H     0.27191   0.88139   0.66519   0.00000  Uiso   1.00
H1344  H     0.27403   0.72642   0.83762   0.00000  Uiso   1.00
H1345  H     0.32155   0.75750   0.84022   0.00000  Uiso   1.00
H1346  H     0.27225   0.78730   0.83723   0.00000  Uiso   1.00
H1347  H     0.13004   0.70863   0.69129   0.00000  Uiso   1.00
H1348  H     0.06437   0.96721   0.77435   0.00000  Uiso   1.00
H1349  H     0.01027   0.95583   0.78142   0.00000  Uiso   1.00
H1350  H     0.04926   0.91857   0.80571   0.00000  Uiso   1.00
H1351  H     0.20369   0.95805   0.80844   0.00000  Uiso   1.00
H1352  H     0.20630   0.89617   0.61514   0.00000  Uiso   1.00
H1353  H     0.20597   0.77037   0.88511   0.00000  Uiso   1.00
H1354  H     0.14137   0.89808   0.89271   0.00000  Uiso   1.00
H1355  H     0.14074   0.76874   0.60721   0.00000  Uiso   1.00
H1356  H     0.27752   0.86441   0.53514   0.00000  Uiso   1.00
N1357  N     0.16667   0.95240   0.75000   0.00000  Uiso   1.00
N1358  N     0.16667   0.71427   0.75000   0.00000  Uiso   1.00
O1359  O     0.10559   0.87154   0.75000   0.00000  Uiso   1.00
O1360  O     0.22192   0.76474   0.97139   0.00000  Uiso   1.00
O1361  O     0.14667   0.90680   0.97966   0.00000  Uiso   1.00
O1362  O     0.14596   0.75999   0.52027   0.00000  Uiso   1.00
O1363  O     0.04082   0.75163   0.76407   0.00000  Uiso   1.00
O1364  O     0.29167   0.91227   0.72478   0.00000  Uiso   1.00
O1365  O     0.29147   0.75563   0.77813   0.00000  Uiso   1.00
O1366  O     0.04150   0.91507   0.73557   0.00000  Uiso   1.00
O1367  O     0.22774   0.79513   0.75001   0.00000  Uiso   1.00
O1368  O     0.22774   0.87154   0.75001   0.00000  Uiso   1.00
O1369  O     0.10559   0.79513   0.75000   0.00000  Uiso   1.00
O1370  O     0.16666   0.87155   0.68453   0.00000  Uiso   1.00
O1371  O     0.16667   0.79511   0.81547   0.00000  Uiso   1.00
O1372  O     0.16667   0.87155   0.81547   0.00000  Uiso   1.00
O1373  O     0.16666   0.79511   0.68453   0.00000  Uiso   1.00
O1374  O     0.22269   0.90149   0.52859   0.00000  Uiso   1.00
Zn1375 Zn    0.16667   0.88437   0.75000   0.00000  Uiso   1.00
Zn1376 Zn    0.16667   0.78229   0.75000   0.00000  Uiso   1.00
C1377  C     0.41988   0.83330   0.74986   0.00000  Uiso   1.00
C1378  C     0.64533   0.87327   0.73814   0.00000  Uiso   1.00
C1379  C     0.64518   0.79408   0.76319   0.00000  Uiso   1.00
C1380  C     0.35436   0.87432   0.74222   0.00000  Uiso   1.00
C1381  C     0.53459   0.86684   0.54959   0.00000  Uiso   1.00
C1382  C     0.53416   0.79961   0.95055   0.00000  Uiso   1.00
C1383  C     0.49484   0.87041   0.95514   0.00000  Uiso   1.00
C1384  C     0.49448   0.79629   0.54487   0.00000  Uiso   1.00
C1385  C     0.52751   0.86813   0.59550   0.00000  Uiso   1.00
C1386  C     0.52722   0.79840   0.90464   0.00000  Uiso   1.00
C1387  C     0.49060   0.87024   0.90892   0.00000  Uiso   1.00
C1388  C     0.57999   0.83342   0.75028   0.00000  Uiso   1.00
C1389  C     0.49024   0.79649   0.59106   0.00000  Uiso   1.00
C1390  C     0.50549   0.83302   0.61597   0.00000  Uiso   1.00
C1391  C     0.50555   0.83364   0.88406   0.00000  Uiso   1.00
C1392  C     0.51646   0.83185   0.52423   0.00000  Uiso   1.00
C1393  C     0.51645   0.83472   0.97587   0.00000  Uiso   1.00
C1394  C     0.62401   0.83363   0.75061   0.00000  Uiso   1.00
C1395  C     0.37563   0.83335   0.74989   0.00000  Uiso   1.00
C1396  C     0.59804   0.89902   0.54077   0.00000  Uiso   1.00
C1397  C     0.59776   0.76990   0.96271   0.00000  Uiso   1.00
C1398  C     0.43771   0.89989   0.98828   0.00000  Uiso   1.00
C1399  C     0.50065   0.83327   0.66380   0.00000  Uiso   1.00
C1400  C     0.43702   0.76707   0.51163   0.00000  Uiso   1.00
C1401  C     0.37114   0.72656   0.72377   0.00000  Uiso   1.00
C1402  C     0.62213   0.91194   0.67761   0.00000  Uiso   1.00
C1403  C     0.62335   0.75730   0.82534   0.00000  Uiso   1.00
C1404  C     0.37426   0.93984   0.77619   0.00000  Uiso   1.00
C1405  C     0.50071   0.83340   0.83620   0.00000  Uiso   1.00
C1406  C     0.52047   0.69083   0.78256   0.00000  Uiso   1.00
C1407  C     0.47949   0.97584   0.71746   0.00000  Uiso   1.00
C1408  C     0.47963   0.69052   0.71736   0.00000  Uiso   1.00
C1409  C     0.52056   0.97615   0.78250   0.00000  Uiso   1.00
C1410  C     0.35407   0.79258   0.75797   0.00000  Uiso   1.00
H1411  H     0.53672   0.70919   0.80862   0.00000  Uiso   1.00
H1412  H     0.60277   0.90969   0.57616   0.00000  Uiso   1.00
H1413  H     0.61574   0.92284   0.51938   0.00000  Uiso   1.00
H1414  H     0.60918   0.80401   0.97325   0.00000  Uiso   1.00
H1415  H     0.60479   0.76378   0.92674   0.00000  Uiso   1.00
H1416  H     0.61488   0.74424   0.98247   0.00000  Uiso   1.00
H1417  H     0.43324   0.87186   0.51264   0.00000  Uiso   1.00
H1418  H     0.41975   0.89332   0.95705   0.00000  Uiso   1.00
H1419  H     0.42512   0.93119   0.50379   0.00000  Uiso   1.00
H1420  H     0.43270   0.79521   0.98737   0.00000  Uiso   1.00
H1421  H     0.41920   0.77358   0.54286   0.00000  Uiso   1.00
H1422  H     0.46298   0.95749   0.69155   0.00000  Uiso   1.00
H1423  H     0.42416   0.73587   0.99599   0.00000  Uiso   1.00
H1424  H     0.33888   0.71520   0.71744   0.00000  Uiso   1.00
H1425  H     0.38295   0.74620   0.69459   0.00000  Uiso   1.00
H1426  H     0.39045   0.69580   0.72668   0.00000  Uiso   1.00
H1427  H     0.60445   0.94223   0.66687   0.00000  Uiso   1.00
H1428  H     0.65320   0.91395   0.66191   0.00000  Uiso   1.00
H1429  H     0.60524   0.88139   0.66519   0.00000  Uiso   1.00
H1430  H     0.60736   0.72642   0.83762   0.00000  Uiso   1.00
H1431  H     0.65488   0.75750   0.84022   0.00000  Uiso   1.00
H1432  H     0.60558   0.78730   0.83723   0.00000  Uiso   1.00
H1433  H     0.46337   0.70863   0.69129   0.00000  Uiso   1.00
H1434  H     0.39771   0.96721   0.77435   0.00000  Uiso   1.00
H1435  H     0.34361   0.95583   0.78142   0.00000  Uiso   1.00
H1436  H     0.38260   0.91857   0.80571   0.00000  Uiso   1.00
H1437  H     0.53702   0.95805   0.80844   0.00000  Uiso   1.00
H1438  H     0.53963   0.89617   0.61514   0.00000  Uiso   1.00
H1439  H     0.53930   0.77037   0.88511   0.00000  Uiso   1.00
H1440  H     0.47471   0.89808   0.89271   0.00000  Uiso   1.00
H1441  H     0.47408   0.76874   0.60721   0.00000  Uiso   1.00
H1442  H     0.61086   0.86441   0.53514   0.00000  Uiso   1.00
N1443  N     0.50000   0.95240   0.75000   0.00000  Uiso   1.00
N1444  N     0.50000   0.71427   0.75000   0.00000  Uiso   1.00
O1445  O     0.43892   0.87154   0.75000   0.00000  Uiso   1.00
O1446  O     0.55526   0.76474   0.97139   0.00000  Uiso   1.00
O1447  O     0.48001   0.90680   0.97966   0.00000  Uiso   1.00
O1448  O     0.47929   0.75999   0.52027   0.00000  Uiso   1.00
O1449  O     0.37415   0.75163   0.76407   0.00000  Uiso   1.00
O1450  O     0.62501   0.91227   0.72478   0.00000  Uiso   1.00
O1451  O     0.62480   0.75563   0.77813   0.00000  Uiso   1.00
O1452  O     0.37483   0.91507   0.73557   0.00000  Uiso   1.00
O1453  O     0.56108   0.79513   0.75001   0.00000  Uiso   1.00
O1454  O     0.56108   0.87154   0.75001   0.00000  Uiso   1.00
O1455  O     0.43892   0.79513   0.75000   0.00000  Uiso   1.00
O1456  O     0.50000   0.87155   0.68453   0.00000  Uiso   1.00
O1457  O     0.50000   0.79511   0.81547   0.00000  Uiso   1.00
O1458  O     0.50000   0.87155   0.81547   0.00000  Uiso   1.00
O1459  O     0.50000   0.79511   0.68453   0.00000  Uiso   1.00
O1460  O     0.55602   0.90149   0.52859   0.00000  Uiso   1.00
Zn1461 Zn    0.50000   0.88437   0.75000   0.00000  Uiso   1.00
Zn1462 Zn    0.50000   0.78229   0.75000   0.00000  Uiso   1.00
C1463  C     0.75322   0.83330   0.74986   0.00000  Uiso   1.00
C1464  C     0.97866   0.87327   0.73814   0.00000  Uiso   1.00
C1465  C     0.97852   0.79408   0.76319   0.00000  Uiso   1.00
C1466  C     0.68769   0.87432   0.74222   0.00000  Uiso   1.00
C1467  C     0.86792   0.86684   0.54959   0.00000  Uiso   1.00
C1468  C     0.86749   0.79961   0.95055   0.00000  Uiso   1.00
C1469  C     0.82818   0.87041   0.95514   0.00000  Uiso   1.00
C1470  C     0.82782   0.79629   0.54487   0.00000  Uiso   1.00
C1471  C     0.86084   0.86813   0.59550   0.00000  Uiso   1.00
C1472  C     0.86056   0.79840   0.90464   0.00000  Uiso   1.00
C1473  C     0.82393   0.87024   0.90892   0.00000  Uiso   1.00
C1474  C     0.91332   0.83342   0.75028   0.00000  Uiso   1.00
C1475  C     0.82357   0.79649   0.59106   0.00000  Uiso   1.00
C1476  C     0.83882   0.83302   0.61597   0.00000  Uiso   1.00
C1477  C     0.83888   0.83364   0.88406   0.00000  Uiso   1.00
C1478  C     0.84979   0.83185   0.52423   0.00000  Uiso   1.00
C1479  C     0.84978   0.83472   0.97587   0.00000  Uiso   1.00
C1480  C     0.95734   0.83363   0.75061   0.00000  Uiso   1.00
C1481  C     0.70896   0.83335   0.74989   0.00000  Uiso   1.00
C1482  C     0.93137   0.89902   0.54077   0.00000  Uiso   1.00
C1483  C     0.93110   0.76990   0.96271   0.00000  Uiso   1.00
C1484  C     0.77104   0.89989   0.98828   0.00000  Uiso   1.00
C1485  C     0.83399   0.83327   0.66380   0.00000  Uiso   1.00
C1486  C     0.77035   0.76707   0.51163   0.00000  Uiso   1.00
C1487  C     0.70447   0.72656   0.72377   0.00000  Uiso   1.00
C1488  C     0.95546   0.91194   0.67761   0.00000  Uiso   1.00
C1489  C     0.95668   0.75730   0.82534   0.00000  Uiso   1.00
C1490  C     0.70759   0.93984   0.77619   0.00000  Uiso   1.00
C1491  C     0.83404   0.83340   0.83620   0.00000  Uiso   1.00
C1492  C     0.85380   0.69083   0.78256   0.00000  Uiso   1.00
C1493  C     0.81282   0.97584   0.71746   0.00000  Uiso   1.00
C1494  C     0.81297   0.69052   0.71736   0.00000  Uiso   1.00
C1495  C     0.85390   0.97615   0.78250   0.00000  Uiso   1.00
C1496  C     0.68741   0.79258   0.75797   0.00000  Uiso   1.00
H1497  H     0.87005   0.70919   0.80862   0.00000  Uiso   1.00
H1498  H     0.93610   0.90969   0.57616   0.00000  Uiso   1.00
H1499  H     0.94907   0.92284   0.51938   0.00000  Uiso   1.00
H1500  H     0.94251   0.80401   0.97325   0.00000  Uiso   1.00
H1501  H     0.93812   0.76378   0.92674   0.00000  Uiso   1.00
H1502  H     0.94822   0.74424   0.98247   0.00000  Uiso   1.00
H1503  H     0.76658   0.87186   0.51264   0.00000  Uiso   1.00
H1504  H     0.75309   0.89332   0.95705   0.00000  Uiso   1.00
H1505  H     0.75846   0.93119   0.50379   0.00000  Uiso   1.00
H1506  H     0.76604   0.79521   0.98737   0.00000  Uiso   1.00
H1507  H     0.75253   0.77358   0.54286   0.00000  Uiso   1.00
H1508  H     0.79632   0.95749   0.69155   0.00000  Uiso   1.00
H1509  H     0.75749   0.73587   0.99599   0.00000  Uiso   1.00
H1510  H     0.67222   0.71520   0.71744   0.00000  Uiso   1.00
H1511  H     0.71629   0.74620   0.69459   0.00000  Uiso   1.00
H1512  H     0.72378   0.69580   0.72668   0.00000  Uiso   1.00
H1513  H     0.93778   0.94223   0.66687   0.00000  Uiso   1.00
H1514  H     0.98653   0.91395   0.66191   0.00000  Uiso   1.00
H1515  H     0.93858   0.88139   0.66519   0.00000  Uiso   1.00
H1516  H     0.94069   0.72642   0.83762   0.00000  Uiso   1.00
H1517  H     0.98821   0.75750   0.84022   0.00000  Uiso   1.00
H1518  H     0.93891   0.78730   0.83723   0.00000  Uiso   1.00
H1519  H     0.79670   0.70863   0.69129   0.00000  Uiso   1.00
H1520  H     0.73104   0.96721   0.77435   0.00000  Uiso   1.00
H1521  H     0.67694   0.95583   0.78142   0.00000  Uiso   1.00
H1522  H     0.71593   0.91857   0.80571   0.00000  Uiso   1.00
H1523  H     0.87036   0.95805   0.80844   0.00000  Uiso   1.00
H1524  H     0.87296   0.89617   0.61514   0.00000  Uiso   1.00
H1525  H     0.87263   0.77037   0.88511   0.00000  Uiso   1.00
H1526  H     0.80804   0.89808   0.89271   0.00000  Uiso   1.00
H1527  H     0.80741   0.76874   0.60721   0.00000  Uiso   1.00
H1528  H     0.94419   0.86441   0.53514   0.00000  Uiso   1.00
N1529  N     0.83333   0.95240   0.75000   0.00000  Uiso   1.00
N1530  N     0.83333   0.71427   0.75000   0.00000  Uiso   1.00
O1531  O     0.77226   0.87154   0.75000   0.00000  Uiso   1.00
O1532  O     0.88859   0.76474   0.97139   0.00000  Uiso   1.00
O1533  O     0.81334   0.90680   0.97966   0.00000  Uiso   1.00
O1534  O     0.81262   0.75999   0.52027   0.00000  Uiso   1.00
O1535  O     0.70748   0.75163   0.76407   0.00000  Uiso   1.00
O1536  O     0.95834   0.91227   0.72478   0.00000  Uiso   1.00
O1537  O     0.95813   0.75563   0.77813   0.00000  Uiso   1.00
O1538  O     0.70817   0.91507   0.73557   0.00000  Uiso   1.00
O1539  O     0.89441   0.79513   0.75001   0.00000  Uiso   1.00
O1540  O     0.89441   0.87154   0.75001   0.00000  Uiso   1.00
O1541  O     0.77226   0.79513   0.75000   0.00000  Uiso   1.00
O1542  O     0.83333   0.87155   0.68453   0.00000  Uiso   1.00
O1543  O     0.83334   0.79511   0.81547   0.00000  Uiso   1.00
O1544  O     0.83334   0.87155   0.81547   0.00000  Uiso   1.00
O1545  O     0.83333   0.79511   0.68453   0.00000  Uiso   1.00
O1546  O     0.88936   0.90149   0.52859   0.00000  Uiso   1.00
Zn1547 Zn    0.83333   0.88437   0.75000   0.00000  Uiso   1.00
Zn1548 Zn    0.83333   0.78229   0.75000   0.00000  Uiso   1.00
loop_
_geom_bond_atom_site_label_1
_geom_bond_atom_site_label_2
_geom_bond_distance
_geom_bond_site_symmetry_2
_ccdc_geom_bond_type
C1     C19     1.434   .     S
C1     O69     1.283   .     A
C1     O79     1.284   .     A
C2     C18     1.406   .     A
C2     O74     1.385   .     S
C2     C90     1.378   .     S
C3     C18     1.405   .     A
C3     O75     1.385   .     S
C3     C120    1.378   .     S
C4     C19     1.410   .     A
C4     O76     1.385   .     S
C4     C174    1.378   1_455 S
C5     C16     1.404   .     A
C5     O84     1.385   .     S
C5     C9      1.390   .     A
C6     O70     1.384   .     S
C6     C17     1.404   .     A
C6     C10     1.388   .     A
C7     C11     1.386   .     A
C7     O71     1.384   .     S
C7     C17     1.408   .     A
C8     C13     1.385   .     A
C8     C16     1.408   .     A
C8     O72     1.384   .     S
C9     H62     1.083   .     S
C9     C14     1.398   .     A
C10    H63     1.084   .     S
C10    C15     1.398   .     A
C11    C15     1.395   .     A
C11    H64     1.084   .     S
C12    O78     1.281   .     A
C12    O77     1.282   .     A
C12    C18     1.426   .     S
C13    H65     1.084   .     S
C13    C14     1.395   .     A
C14    C23     1.436   .     S
C15    C29     1.436   .     S
C16    C791    1.446   1_554 S
C17    C790    1.446   .     S
C19    C34     1.409   .     A
C20    H66     1.114   .     S
C20    O84     1.410   .     S
C20    H37     1.109   .     S
C20    H36     1.111   .     S
C21    H38     1.114   .     S
C21    H39     1.112   .     S
C21    O70     1.410   .     S
C21    H40     1.109   .     S
C22    O71     1.409   .     S
C22    H42     1.114   .     S
C22    H815    1.111   .     S
C22    H817    1.109   .     S
C23    O83     1.284   .     A
C23    O80     1.285   .     A
C24    O72     1.409   .     S
C24    H45     1.114   .     S
C24    H818    1.111   1_554 S
C24    H821    1.109   1_554 S
C25    H50     1.106   .     S
C25    H48     1.112   .     S
C25    O73     1.412   .     S
C25    H49     1.114   .     S
C26    H52     1.113   .     S
C26    H53     1.114   .     S
C26    H51     1.109   .     S
C26    O74     1.410   .     S
C27    H54     1.109   .     S
C27    H55     1.113   .     S
C27    O75     1.410   .     S
C27    H56     1.113   .     S
C28    H60     1.115   .     S
C28    O76     1.413   .     S
C28    H59     1.111   .     S
C28    H58     1.108   .     S
C29    O81     1.285   .     A
C29    O82     1.285   .     A
C30    H35     1.081   .     S
C30    N68     1.365   .     A
C30    C549    1.414   1_545 S
C31    H46     1.082   .     S
C31    N67     1.366   .     A
C31    C290    1.414   .     S
C32    N68     1.365   .     A
C32    H57     1.082   .     S
C32    C547    1.414   1_545 S
C33    N67     1.366   .     A
C33    H61     1.082   .     S
C33    C288    1.414   .     S
C34    O73     1.384   .     S
C34    C175    1.378   1_455 S
H41    C796    1.111   1_554 S
H43    C796    1.109   1_554 S
H44    C798    1.111   .     S
H47    C798    1.109   .     S
N67    Zn85    2.003   .     S
N68    Zn86    2.003   .     S
O69    Zn85    2.014   .     S
O77    Zn86    2.014   .     S
O78    Zn85    2.016   .     S
O79    Zn86    2.016   .     S
O80    Zn85    1.989   .     S
O81    Zn86    1.989   .     S
O82    Zn85    1.991   .     S
O83    Zn86    1.991   .     S
C87    C105    1.434   .     S
C87    O155    1.283   .     A
C87    O165    1.284   .     A
C88    C104    1.406   .     A
C88    O160    1.385   .     S
C88    C176    1.378   .     S
C89    C104    1.405   .     A
C89    O161    1.385   .     S
C89    C206    1.378   .     S
C90    C105    1.410   .     A
C90    O162    1.385   .     S
C91    C102    1.404   .     A
C91    O170    1.385   .     S
C91    C95     1.390   .     A
C92    O156    1.384   .     S
C92    C103    1.404   .     A
C92    C96     1.388   .     A
C93    C97     1.386   .     A
C93    O157    1.384   .     S
C93    C103    1.408   .     A
C94    C99     1.385   .     A
C94    C102    1.408   .     A
C94    O158    1.384   .     S
C95    H148    1.083   .     S
C95    C100    1.398   .     A
C96    H149    1.084   .     S
C96    C101    1.398   .     A
C97    C101    1.395   .     A
C97    H150    1.084   .     S
C98    O164    1.281   .     A
C98    O163    1.282   .     A
C98    C104    1.426   .     S
C99    H151    1.084   .     S
C99    C100    1.395   .     A
C100   C109    1.436   .     S
C101   C115    1.436   .     S
C102   C877    1.446   1_554 S
C103   C876    1.446   .     S
C105   C120    1.409   .     A
C106   H152    1.114   .     S
C106   O170    1.410   .     S
C106   H123    1.109   .     S
C106   H122    1.111   .     S
C107   H124    1.114   .     S
C107   H125    1.112   .     S
C107   O156    1.410   .     S
C107   H126    1.109   .     S
C108   O157    1.409   .     S
C108   H128    1.114   .     S
C108   H901    1.111   .     S
C108   H903    1.109   .     S
C109   O169    1.284   .     A
C109   O166    1.285   .     A
C110   O158    1.409   .     S
C110   H131    1.114   .     S
C110   H904    1.111   1_554 S
C110   H907    1.109   1_554 S
C111   H136    1.106   .     S
C111   H134    1.112   .     S
C111   O159    1.412   .     S
C111   H135    1.114   .     S
C112   H138    1.113   .     S
C112   H139    1.114   .     S
C112   H137    1.109   .     S
C112   O160    1.410   .     S
C113   H140    1.109   .     S
C113   H141    1.113   .     S
C113   O161    1.410   .     S
C113   H142    1.113   .     S
C114   H146    1.115   .     S
C114   O162    1.413   .     S
C114   H145    1.111   .     S
C114   H144    1.108   .     S
C115   O167    1.285   .     A
C115   O168    1.285   .     A
C116   H121    1.081   .     S
C116   N154    1.365   .     A
C116   C635    1.414   1_545 S
C117   H132    1.082   .     S
C117   N153    1.366   .     A
C117   C376    1.414   .     S
C118   N154    1.365   .     A
C118   H143    1.082   .     S
C118   C633    1.414   1_545 S
C119   N153    1.366   .     A
C119   H147    1.082   .     S
C119   C374    1.414   .     S
C120   O159    1.384   .     S
H127   C882    1.111   1_554 S
H129   C882    1.109   1_554 S
H130   C884    1.111   .     S
H133   C884    1.109   .     S
N153   Zn171   2.003   .     S
N154   Zn172   2.003   .     S
O155   Zn171   2.014   .     S
O163   Zn172   2.014   .     S
O164   Zn171   2.016   .     S
O165   Zn172   2.016   .     S
O166   Zn171   1.989   .     S
O167   Zn172   1.989   .     S
O168   Zn171   1.991   .     S
O169   Zn172   1.991   .     S
C173   C191    1.434   .     S
C173   O241    1.283   .     A
C173   O251    1.284   .     A
C174   C190    1.406   .     A
C174   O246    1.385   .     S
C174   C4      1.378   1_655 S
C175   C190    1.405   .     A
C175   O247    1.385   .     S
C175   C34     1.378   1_655 S
C176   C191    1.410   .     A
C176   O248    1.385   .     S
C177   C188    1.404   .     A
C177   O256    1.385   .     S
C177   C181    1.390   .     A
C178   O242    1.384   .     S
C178   C189    1.404   .     A
C178   C182    1.388   .     A
C179   C183    1.386   .     A
C179   O243    1.384   .     S
C179   C189    1.408   .     A
C180   C185    1.385   .     A
C180   C188    1.408   .     A
C180   O244    1.384   .     S
C181   H234    1.083   .     S
C181   C186    1.398   .     A
C182   H235    1.084   .     S
C182   C187    1.398   .     A
C183   C187    1.395   .     A
C183   H236    1.084   .     S
C184   O250    1.281   .     A
C184   O249    1.282   .     A
C184   C190    1.426   .     S
C185   H237    1.084   .     S
C185   C186    1.395   .     A
C186   C195    1.436   .     S
C187   C201    1.436   .     S
C188   C963    1.446   1_554 S
C189   C962    1.446   .     S
C191   C206    1.409   .     A
C192   H238    1.114   .     S
C192   O256    1.410   .     S
C192   H209    1.109   .     S
C192   H208    1.111   .     S
C193   H210    1.114   .     S
C193   H211    1.112   .     S
C193   O242    1.410   .     S
C193   H212    1.109   .     S
C194   O243    1.409   .     S
C194   H214    1.114   .     S
C194   H987    1.111   .     S
C194   H989    1.109   .     S
C195   O255    1.284   .     A
C195   O252    1.285   .     A
C196   O244    1.409   .     S
C196   H217    1.114   .     S
C196   H990    1.111   1_554 S
C196   H993    1.109   1_554 S
C197   H222    1.106   .     S
C197   H220    1.112   .     S
C197   O245    1.412   .     S
C197   H221    1.114   .     S
C198   H224    1.113   .     S
C198   H225    1.114   .     S
C198   H223    1.109   .     S
C198   O246    1.410   .     S
C199   H226    1.109   .     S
C199   H227    1.113   .     S
C199   O247    1.410   .     S
C199   H228    1.113   .     S
C200   H232    1.115   .     S
C200   O248    1.413   .     S
C200   H231    1.111   .     S
C200   H230    1.108   .     S
C201   O253    1.285   .     A
C201   O254    1.285   .     A
C202   H207    1.081   .     S
C202   N240    1.365   .     A
C202   C721    1.414   1_545 S
C203   H218    1.082   .     S
C203   N239    1.366   .     A
C203   C462    1.414   .     S
C204   N240    1.365   .     A
C204   H229    1.082   .     S
C204   C719    1.414   1_545 S
C205   N239    1.366   .     A
C205   H233    1.082   .     S
C205   C460    1.414   .     S
C206   O245    1.384   .     S
H213   C968    1.111   1_554 S
H215   C968    1.109   1_554 S
H216   C970    1.111   .     S
H219   C970    1.109   .     S
N239   Zn257   2.003   .     S
N240   Zn258   2.003   .     S
O241   Zn257   2.014   .     S
O249   Zn258   2.014   .     S
O250   Zn257   2.016   .     S
O251   Zn258   2.016   .     S
O252   Zn257   1.989   .     S
O253   Zn258   1.989   .     S
O254   Zn257   1.991   .     S
O255   Zn258   1.991   .     S
C259   C277    1.434   .     S
C259   O327    1.283   .     A
C259   O337    1.284   .     A
C260   C276    1.406   .     A
C260   O332    1.385   .     S
C260   C348    1.378   .     S
C261   C276    1.405   .     A
C261   O333    1.385   .     S
C261   C378    1.378   .     S
C262   C277    1.410   .     A
C262   O334    1.385   .     S
C262   C432    1.378   1_455 S
C263   C274    1.404   .     A
C263   O342    1.385   .     S
C263   C267    1.390   .     A
C264   O328    1.384   .     S
C264   C275    1.404   .     A
C264   C268    1.388   .     A
C265   C269    1.386   .     A
C265   O329    1.384   .     S
C265   C275    1.408   .     A
C266   C271    1.385   .     A
C266   C274    1.408   .     A
C266   O330    1.384   .     S
C267   H320    1.083   .     S
C267   C272    1.398   .     A
C268   H321    1.084   .     S
C268   C273    1.398   .     A
C269   C273    1.395   .     A
C269   H322    1.084   .     S
C270   O336    1.281   .     A
C270   O335    1.282   .     A
C270   C276    1.426   .     S
C271   H323    1.084   .     S
C271   C272    1.395   .     A
C272   C281    1.436   .     S
C273   C287    1.436   .     S
C274   C1049   1.446   1_554 S
C275   C1048   1.446   .     S
C277   C292    1.409   .     A
C278   H324    1.114   .     S
C278   O342    1.410   .     S
C278   H295    1.109   .     S
C278   H294    1.111   .     S
C279   H296    1.114   .     S
C279   H297    1.112   .     S
C279   O328    1.410   .     S
C279   H298    1.109   .     S
C280   O329    1.409   .     S
C280   H300    1.114   .     S
C280   H1073   1.111   .     S
C280   H1075   1.109   .     S
C281   O341    1.284   .     A
C281   O338    1.285   .     A
C282   O330    1.409   .     S
C282   H303    1.114   .     S
C282   H1076   1.111   1_554 S
C282   H1079   1.109   1_554 S
C283   H308    1.106   .     S
C283   H306    1.112   .     S
C283   O331    1.412   .     S
C283   H307    1.114   .     S
C284   H310    1.113   .     S
C284   H311    1.114   .     S
C284   H309    1.109   .     S
C284   O332    1.410   .     S
C285   H312    1.109   .     S
C285   H313    1.113   .     S
C285   O333    1.410   .     S
C285   H314    1.113   .     S
C286   H318    1.115   .     S
C286   O334    1.413   .     S
C286   H317    1.111   .     S
C286   H316    1.108   .     S
C287   O339    1.285   .     A
C287   O340    1.285   .     A
C288   H293    1.081   .     S
C288   N326    1.365   .     A
C289   H304    1.082   .     S
C289   N325    1.366   .     A
C289   C548    1.414   .     S
C290   N326    1.365   .     A
C290   H315    1.082   .     S
C291   N325    1.366   .     A
C291   H319    1.082   .     S
C291   C546    1.414   .     S
C292   O331    1.384   .     S
C292   C433    1.378   1_455 S
H299   C1054   1.111   1_554 S
H301   C1054   1.109   1_554 S
H302   C1056   1.111   .     S
H305   C1056   1.109   .     S
N325   Zn343   2.003   .     S
N326   Zn344   2.003   .     S
O327   Zn343   2.014   .     S
O335   Zn344   2.014   .     S
O336   Zn343   2.016   .     S
O337   Zn344   2.016   .     S
O338   Zn343   1.989   .     S
O339   Zn344   1.989   .     S
O340   Zn343   1.991   .     S
O341   Zn344   1.991   .     S
C345   C363    1.434   .     S
C345   O413    1.283   .     A
C345   O423    1.284   .     A
C346   C362    1.406   .     A
C346   O418    1.385   .     S
C346   C434    1.378   .     S
C347   C362    1.405   .     A
C347   O419    1.385   .     S
C347   C464    1.378   .     S
C348   C363    1.410   .     A
C348   O420    1.385   .     S
C349   C360    1.404   .     A
C349   O428    1.385   .     S
C349   C353    1.390   .     A
C350   O414    1.384   .     S
C350   C361    1.404   .     A
C350   C354    1.388   .     A
C351   C355    1.386   .     A
C351   O415    1.384   .     S
C351   C361    1.408   .     A
C352   C357    1.385   .     A
C352   C360    1.408   .     A
C352   O416    1.384   .     S
C353   H406    1.083   .     S
C353   C358    1.398   .     A
C354   H407    1.084   .     S
C354   C359    1.398   .     A
C355   C359    1.395   .     A
C355   H408    1.084   .     S
C356   O422    1.281   .     A
C356   O421    1.282   .     A
C356   C362    1.426   .     S
C357   H409    1.084   .     S
C357   C358    1.395   .     A
C358   C367    1.436   .     S
C359   C373    1.436   .     S
C360   C1135   1.446   1_554 S
C361   C1134   1.446   .     S
C363   C378    1.409   .     A
C364   H410    1.114   .     S
C364   O428    1.410   .     S
C364   H381    1.109   .     S
C364   H380    1.111   .     S
C365   H382    1.114   .     S
C365   H383    1.112   .     S
C365   O414    1.410   .     S
C365   H384    1.109   .     S
C366   O415    1.409   .     S
C366   H386    1.114   .     S
C366   H1159   1.111   .     S
C366   H1161   1.109   .     S
C367   O427    1.284   .     A
C367   O424    1.285   .     A
C368   O416    1.409   .     S
C368   H389    1.114   .     S
C368   H1162   1.111   1_554 S
C368   H1165   1.109   1_554 S
C369   H394    1.106   .     S
C369   H392    1.112   .     S
C369   O417    1.412   .     S
C369   H393    1.114   .     S
C370   H396    1.113   .     S
C370   H397    1.114   .     S
C370   H395    1.109   .     S
C370   O418    1.410   .     S
C371   H398    1.109   .     S
C371   H399    1.113   .     S
C371   O419    1.410   .     S
C371   H400    1.113   .     S
C372   H404    1.115   .     S
C372   O420    1.413   .     S
C372   H403    1.111   .     S
C372   H402    1.108   .     S
C373   O425    1.285   .     A
C373   O426    1.285   .     A
C374   H379    1.081   .     S
C374   N412    1.365   .     A
C375   H390    1.082   .     S
C375   N411    1.366   .     A
C375   C634    1.414   .     S
C376   N412    1.365   .     A
C376   H401    1.082   .     S
C377   N411    1.366   .     A
C377   H405    1.082   .     S
C377   C632    1.414   .     S
C378   O417    1.384   .     S
H385   C1140   1.111   1_554 S
H387   C1140   1.109   1_554 S
H388   C1142   1.111   .     S
H391   C1142   1.109   .     S
N411   Zn429   2.003   .     S
N412   Zn430   2.003   .     S
O413   Zn429   2.014   .     S
O421   Zn430   2.014   .     S
O422   Zn429   2.016   .     S
O423   Zn430   2.016   .     S
O424   Zn429   1.989   .     S
O425   Zn430   1.989   .     S
O426   Zn429   1.991   .     S
O427   Zn430   1.991   .     S
C431   C449    1.434   .     S
C431   O499    1.283   .     A
C431   O509    1.284   .     A
C432   C448    1.406   .     A
C432   O504    1.385   .     S
C432   C262    1.378   1_655 S
C433   C448    1.405   .     A
C433   O505    1.385   .     S
C433   C292    1.378   1_655 S
C434   C449    1.410   .     A
C434   O506    1.385   .     S
C435   C446    1.404   .     A
C435   O514    1.385   .     S
C435   C439    1.390   .     A
C436   O500    1.384   .     S
C436   C447    1.404   .     A
C436   C440    1.388   .     A
C437   C441    1.386   .     A
C437   O501    1.384   .     S
C437   C447    1.408   .     A
C438   C443    1.385   .     A
C438   C446    1.408   .     A
C438   O502    1.384   .     S
C439   H492    1.083   .     S
C439   C444    1.398   .     A
C440   H493    1.084   .     S
C440   C445    1.398   .     A
C441   C445    1.395   .     A
C441   H494    1.084   .     S
C442   O508    1.281   .     A
C442   O507    1.282   .     A
C442   C448    1.426   .     S
C443   H495    1.084   .     S
C443   C444    1.395   .     A
C444   C453    1.436   .     S
C445   C459    1.436   .     S
C446   C1221   1.446   1_554 S
C447   C1220   1.446   .     S
C449   C464    1.409   .     A
C450   H496    1.114   .     S
C450   O514    1.410   .     S
C450   H467    1.109   .     S
C450   H466    1.111   .     S
C451   H468    1.114   .     S
C451   H469    1.112   .     S
C451   O500    1.410   .     S
C451   H470    1.109   .     S
C452   O501    1.409   .     S
C452   H472    1.114   .     S
C452   H1245   1.111   .     S
C452   H1247   1.109   .     S
C453   O513    1.284   .     A
C453   O510    1.285   .     A
C454   O502    1.409   .     S
C454   H475    1.114   .     S
C454   H1248   1.111   1_554 S
C454   H1251   1.109   1_554 S
C455   H480    1.106   .     S
C455   H478    1.112   .     S
C455   O503    1.412   .     S
C455   H479    1.114   .     S
C456   H482    1.113   .     S
C456   H483    1.114   .     S
C456   H481    1.109   .     S
C456   O504    1.410   .     S
C457   H484    1.109   .     S
C457   H485    1.113   .     S
C457   O505    1.410   .     S
C457   H486    1.113   .     S
C458   H490    1.115   .     S
C458   O506    1.413   .     S
C458   H489    1.111   .     S
C458   H488    1.108   .     S
C459   O511    1.285   .     A
C459   O512    1.285   .     A
C460   H465    1.081   .     S
C460   N498    1.365   .     A
C461   H476    1.082   .     S
C461   N497    1.366   .     A
C461   C720    1.414   .     S
C462   N498    1.365   .     A
C462   H487    1.082   .     S
C463   N497    1.366   .     A
C463   H491    1.082   .     S
C463   C718    1.414   .     S
C464   O503    1.384   .     S
H471   C1226   1.111   1_554 S
H473   C1226   1.109   1_554 S
H474   C1228   1.111   .     S
H477   C1228   1.109   .     S
N497   Zn515   2.003   .     S
N498   Zn516   2.003   .     S
O499   Zn515   2.014   .     S
O507   Zn516   2.014   .     S
O508   Zn515   2.016   .     S
O509   Zn516   2.016   .     S
O510   Zn515   1.989   .     S
O511   Zn516   1.989   .     S
O512   Zn515   1.991   .     S
O513   Zn516   1.991   .     S
C517   C535    1.434   .     S
C517   O585    1.283   .     A
C517   O595    1.284   .     A
C518   C534    1.406   .     A
C518   O590    1.385   .     S
C518   C606    1.378   .     S
C519   C534    1.405   .     A
C519   O591    1.385   .     S
C519   C636    1.378   .     S
C520   C535    1.410   .     A
C520   O592    1.385   .     S
C520   C690    1.378   1_455 S
C521   C532    1.404   .     A
C521   O600    1.385   .     S
C521   C525    1.390   .     A
C522   O586    1.384   .     S
C522   C533    1.404   .     A
C522   C526    1.388   .     A
C523   C527    1.386   .     A
C523   O587    1.384   .     S
C523   C533    1.408   .     A
C524   C529    1.385   .     A
C524   C532    1.408   .     A
C524   O588    1.384   .     S
C525   H578    1.083   .     S
C525   C530    1.398   .     A
C526   H579    1.084   .     S
C526   C531    1.398   .     A
C527   C531    1.395   .     A
C527   H580    1.084   .     S
C528   O594    1.281   .     A
C528   O593    1.282   .     A
C528   C534    1.426   .     S
C529   H581    1.084   .     S
C529   C530    1.395   .     A
C530   C539    1.436   .     S
C531   C545    1.436   .     S
C532   C1307   1.446   1_554 S
C533   C1306   1.446   .     S
C535   C550    1.409   .     A
C536   H582    1.114   .     S
C536   O600    1.410   .     S
C536   H553    1.109   .     S
C536   H552    1.111   .     S
C537   H554    1.114   .     S
C537   H555    1.112   .     S
C537   O586    1.410   .     S
C537   H556    1.109   .     S
C538   O587    1.409   .     S
C538   H558    1.114   .     S
C538   H1331   1.111   .     S
C538   H1333   1.109   .     S
C539   O599    1.284   .     A
C539   O596    1.285   .     A
C540   O588    1.409   .     S
C540   H561    1.114   .     S
C540   H1334   1.111   1_554 S
C540   H1337   1.109   1_554 S
C541   H566    1.106   .     S
C541   H564    1.112   .     S
C541   O589    1.412   .     S
C541   H565    1.114   .     S
C542   H568    1.113   .     S
C542   H569    1.114   .     S
C542   H567    1.109   .     S
C542   O590    1.410   .     S
C543   H570    1.109   .     S
C543   H571    1.113   .     S
C543   O591    1.410   .     S
C543   H572    1.113   .     S
C544   H576    1.115   .     S
C544   O592    1.413   .     S
C544   H575    1.111   .     S
C544   H574    1.108   .     S
C545   O597    1.285   .     A
C545   O598    1.285   .     A
C546   H551    1.081   .     S
C546   N584    1.365   .     A
C547   H562    1.082   .     S
C547   N583    1.366   .     A
C547   C32     1.414   1_565 S
C548   N584    1.365   .     A
C548   H573    1.082   .     S
C549   N583    1.366   .     A
C549   H577    1.082   .     S
C549   C30     1.414   1_565 S
C550   O589    1.384   .     S
C550   C691    1.378   1_455 S
H557   C1312   1.111   1_554 S
H559   C1312   1.109   1_554 S
H560   C1314   1.111   .     S
H563   C1314   1.109   .     S
N583   Zn601   2.003   .     S
N584   Zn602   2.003   .     S
O585   Zn601   2.014   .     S
O593   Zn602   2.014   .     S
O594   Zn601   2.016   .     S
O595   Zn602   2.016   .     S
O596   Zn601   1.989   .     S
O597   Zn602   1.989   .     S
O598   Zn601   1.991   .     S
O599   Zn602   1.991   .     S
C603   C621    1.434   .     S
C603   O671    1.283   .     A
C603   O681    1.284   .     A
C604   C620    1.406   .     A
C604   O676    1.385   .     S
C604   C692    1.378   .     S
C605   C620    1.405   .     A
C605   O677    1.385   .     S
C605   C722    1.378   .     S
C606   C621    1.410   .     A
C606   O678    1.385   .     S
C607   C618    1.404   .     A
C607   O686    1.385   .     S
C607   C611    1.390   .     A
C608   O672    1.384   .     S
C608   C619    1.404   .     A
C608   C612    1.388   .     A
C609   C613    1.386   .     A
C609   O673    1.384   .     S
C609   C619    1.408   .     A
C610   C615    1.385   .     A
C610   C618    1.408   .     A
C610   O674    1.384   .     S
C611   H664    1.083   .     S
C611   C616    1.398   .     A
C612   H665    1.084   .     S
C612   C617    1.398   .     A
C613   C617    1.395   .     A
C613   H666    1.084   .     S
C614   O680    1.281   .     A
C614   O679    1.282   .     A
C614   C620    1.426   .     S
C615   H667    1.084   .     S
C615   C616    1.395   .     A
C616   C625    1.436   .     S
C617   C631    1.436   .     S
C618   C1393   1.446   1_554 S
C619   C1392   1.446   .     S
C621   C636    1.409   .     A
C622   H668    1.114   .     S
C622   O686    1.410   .     S
C622   H639    1.109   .     S
C622   H638    1.111   .     S
C623   H640    1.114   .     S
C623   H641    1.112   .     S
C623   O672    1.410   .     S
C623   H642    1.109   .     S
C624   O673    1.409   .     S
C624   H644    1.114   .     S
C624   H1417   1.111   .     S
C624   H1419   1.109   .     S
C625   O685    1.284   .     A
C625   O682    1.285   .     A
C626   O674    1.409   .     S
C626   H647    1.114   .     S
C626   H1420   1.111   1_554 S
C626   H1423   1.109   1_554 S
C627   H652    1.106   .     S
C627   H650    1.112   .     S
C627   O675    1.412   .     S
C627   H651    1.114   .     S
C628   H654    1.113   .     S
C628   H655    1.114   .     S
C628   H653    1.109   .     S
C628   O676    1.410   .     S
C629   H656    1.109   .     S
C629   H657    1.113   .     S
C629   O677    1.410   .     S
C629   H658    1.113   .     S
C630   H662    1.115   .     S
C630   O678    1.413   .     S
C630   H661    1.111   .     S
C630   H660    1.108   .     S
C631   O683    1.285   .     A
C631   O684    1.285   .     A
C632   H637    1.081   .     S
C632   N670    1.365   .     A
C633   H648    1.082   .     S
C633   N669    1.366   .     A
C633   C118    1.414   1_565 S
C634   N670    1.365   .     A
C634   H659    1.082   .     S
C635   N669    1.366   .     A
C635   H663    1.082   .     S
C635   C116    1.414   1_565 S
C636   O675    1.384   .     S
H643   C1398   1.111   1_554 S
H645   C1398   1.109   1_554 S
H646   C1400   1.111   .     S
H649   C1400   1.109   .     S
N669   Zn687   2.003   .     S
N670   Zn688   2.003   .     S
O671   Zn687   2.014   .     S
O679   Zn688   2.014   .     S
O680   Zn687   2.016   .     S
O681   Zn688   2.016   .     S
O682   Zn687   1.989   .     S
O683   Zn688   1.989   .     S
O684   Zn687   1.991   .     S
O685   Zn688   1.991   .     S
C689   C707    1.434   .     S
C689   O757    1.283   .     A
C689   O767    1.284   .     A
C690   C706    1.406   .     A
C690   O762    1.385   .     S
C690   C520    1.378   1_655 S
C691   C706    1.405   .     A
C691   O763    1.385   .     S
C691   C550    1.378   1_655 S
C692   C707    1.410   .     A
C692   O764    1.385   .     S
C693   C704    1.404   .     A
C693   O772    1.385   .     S
C693   C697    1.390   .     A
C694   O758    1.384   .     S
C694   C705    1.404   .     A
C694   C698    1.388   .     A
C695   C699    1.386   .     A
C695   O759    1.384   .     S
C695   C705    1.408   .     A
C696   C701    1.385   .     A
C696   C704    1.408   .     A
C696   O760    1.384   .     S
C697   H750    1.083   .     S
C697   C702    1.398   .     A
C698   H751    1.084   .     S
C698   C703    1.398   .     A
C699   C703    1.395   .     A
C699   H752    1.084   .     S
C700   O766    1.281   .     A
C700   O765    1.282   .     A
C700   C706    1.426   .     S
C701   H753    1.084   .     S
C701   C702    1.395   .     A
C702   C711    1.436   .     S
C703   C717    1.436   .     S
C704   C1479   1.446   1_554 S
C705   C1478   1.446   .     S
C707   C722    1.409   .     A
C708   H754    1.114   .     S
C708   O772    1.410   .     S
C708   H725    1.109   .     S
C708   H724    1.111   .     S
C709   H726    1.114   .     S
C709   H727    1.112   .     S
C709   O758    1.410   .     S
C709   H728    1.109   .     S
C710   O759    1.409   .     S
C710   H730    1.114   .     S
C710   H1503   1.111   .     S
C710   H1505   1.109   .     S
C711   O771    1.284   .     A
C711   O768    1.285   .     A
C712   O760    1.409   .     S
C712   H733    1.114   .     S
C712   H1506   1.111   1_554 S
C712   H1509   1.109   1_554 S
C713   H738    1.106   .     S
C713   H736    1.112   .     S
C713   O761    1.412   .     S
C713   H737    1.114   .     S
C714   H740    1.113   .     S
C714   H741    1.114   .     S
C714   H739    1.109   .     S
C714   O762    1.410   .     S
C715   H742    1.109   .     S
C715   H743    1.113   .     S
C715   O763    1.410   .     S
C715   H744    1.113   .     S
C716   H748    1.115   .     S
C716   O764    1.413   .     S
C716   H747    1.111   .     S
C716   H746    1.108   .     S
C717   O769    1.285   .     A
C717   O770    1.285   .     A
C718   H723    1.081   .     S
C718   N756    1.365   .     A
C719   H734    1.082   .     S
C719   N755    1.366   .     A
C719   C204    1.414   1_565 S
C720   N756    1.365   .     A
C720   H745    1.082   .     S
C721   N755    1.366   .     A
C721   H749    1.082   .     S
C721   C202    1.414   1_565 S
C722   O761    1.384   .     S
H729   C1484   1.111   1_554 S
H731   C1484   1.109   1_554 S
H732   C1486   1.111   .     S
H735   C1486   1.109   .     S
N755   Zn773   2.003   .     S
N756   Zn774   2.003   .     S
O757   Zn773   2.014   .     S
O765   Zn774   2.014   .     S
O766   Zn773   2.016   .     S
O767   Zn774   2.016   .     S
O768   Zn773   1.989   .     S
O769   Zn774   1.989   .     S
O770   Zn773   1.991   .     S
O771   Zn774   1.991   .     S
C775   C793    1.434   .     S
C775   O843    1.283   .     A
C775   O853    1.284   .     A
C776   C792    1.406   .     A
C776   O848    1.385   .     S
C776   C864    1.378   .     S
C777   C792    1.405   .     A
C777   O849    1.385   .     S
C777   C894    1.378   .     S
C778   C793    1.410   .     A
C778   O850    1.385   .     S
C778   C948    1.378   1_455 S
C779   C790    1.404   .     A
C779   O858    1.385   .     S
C779   C783    1.390   .     A
C780   O844    1.384   .     S
C780   C791    1.404   .     A
C780   C784    1.388   .     A
C781   C785    1.386   .     A
C781   O845    1.384   .     S
C781   C791    1.408   .     A
C782   C787    1.385   .     A
C782   C790    1.408   .     A
C782   O846    1.384   .     S
C783   H836    1.083   .     S
C783   C788    1.398   .     A
C784   H837    1.084   .     S
C784   C789    1.398   .     A
C785   C789    1.395   .     A
C785   H838    1.084   .     S
C786   O852    1.281   .     A
C786   O851    1.282   .     A
C786   C792    1.426   .     S
C787   H839    1.084   .     S
C787   C788    1.395   .     A
C788   C797    1.436   .     S
C789   C803    1.436   .     S
C791   C16     1.446   1_556 S
C793   C808    1.409   .     A
C794   H840    1.114   .     S
C794   O858    1.410   .     S
C794   H811    1.109   .     S
C794   H810    1.111   .     S
C795   H812    1.114   .     S
C795   H813    1.112   .     S
C795   O844    1.410   .     S
C795   H814    1.109   .     S
C796   O845    1.409   .     S
C796   H816    1.114   .     S
C796   H41     1.111   1_556 S
C796   H43     1.109   1_556 S
C797   O857    1.284   .     A
C797   O854    1.285   .     A
C798   O846    1.409   .     S
C798   H819    1.114   .     S
C799   H824    1.106   .     S
C799   H822    1.112   .     S
C799   O847    1.412   .     S
C799   H823    1.114   .     S
C800   H826    1.113   .     S
C800   H827    1.114   .     S
C800   H825    1.109   .     S
C800   O848    1.410   .     S
C801   H828    1.109   .     S
C801   H829    1.113   .     S
C801   O849    1.410   .     S
C801   H830    1.113   .     S
C802   H834    1.115   .     S
C802   O850    1.413   .     S
C802   H833    1.111   .     S
C802   H832    1.108   .     S
C803   O855    1.285   .     A
C803   O856    1.285   .     A
C804   H809    1.081   .     S
C804   N842    1.365   .     A
C804   C1323   1.414   1_545 S
C805   H820    1.082   .     S
C805   N841    1.366   .     A
C805   C1064   1.414   .     S
C806   N842    1.365   .     A
C806   H831    1.082   .     S
C806   C1321   1.414   1_545 S
C807   N841    1.366   .     A
C807   H835    1.082   .     S
C807   C1062   1.414   .     S
C808   O847    1.384   .     S
C808   C949    1.378   1_455 S
H818   C24     1.111   1_556 S
H821   C24     1.109   1_556 S
N841   Zn859   2.003   .     S
N842   Zn860   2.003   .     S
O843   Zn859   2.014   .     S
O851   Zn860   2.014   .     S
O852   Zn859   2.016   .     S
O853   Zn860   2.016   .     S
O854   Zn859   1.989   .     S
O855   Zn860   1.989   .     S
O856   Zn859   1.991   .     S
O857   Zn860   1.991   .     S
C861   C879    1.434   .     S
C861   O929    1.283   .     A
C861   O939    1.284   .     A
C862   C878    1.406   .     A
C862   O934    1.385   .     S
C862   C950    1.378   .     S
C863   C878    1.405   .     A
C863   O935    1.385   .     S
C863   C980    1.378   .     S
C864   C879    1.410   .     A
C864   O936    1.385   .     S
C865   C876    1.404   .     A
C865   O944    1.385   .     S
C865   C869    1.390   .     A
C866   O930    1.384   .     S
C866   C877    1.404   .     A
C866   C870    1.388   .     A
C867   C871    1.386   .     A
C867   O931    1.384   .     S
C867   C877    1.408   .     A
C868   C873    1.385   .     A
C868   C876    1.408   .     A
C868   O932    1.384   .     S
C869   H922    1.083   .     S
C869   C874    1.398   .     A
C870   H923    1.084   .     S
C870   C875    1.398   .     A
C871   C875    1.395   .     A
C871   H924    1.084   .     S
C872   O938    1.281   .     A
C872   O937    1.282   .     A
C872   C878    1.426   .     S
C873   H925    1.084   .     S
C873   C874    1.395   .     A
C874   C883    1.436   .     S
C875   C889    1.436   .     S
C877   C102    1.446   1_556 S
C879   C894    1.409   .     A
C880   H926    1.114   .     S
C880   O944    1.410   .     S
C880   H897    1.109   .     S
C880   H896    1.111   .     S
C881   H898    1.114   .     S
C881   H899    1.112   .     S
C881   O930    1.410   .     S
C881   H900    1.109   .     S
C882   O931    1.409   .     S
C882   H902    1.114   .     S
C882   H127    1.111   1_556 S
C882   H129    1.109   1_556 S
C883   O943    1.284   .     A
C883   O940    1.285   .     A
C884   O932    1.409   .     S
C884   H905    1.114   .     S
C885   H910    1.106   .     S
C885   H908    1.112   .     S
C885   O933    1.412   .     S
C885   H909    1.114   .     S
C886   H912    1.113   .     S
C886   H913    1.114   .     S
C886   H911    1.109   .     S
C886   O934    1.410   .     S
C887   H914    1.109   .     S
C887   H915    1.113   .     S
C887   O935    1.410   .     S
C887   H916    1.113   .     S
C888   H920    1.115   .     S
C888   O936    1.413   .     S
C888   H919    1.111   .     S
C888   H918    1.108   .     S
C889   O941    1.285   .     A
C889   O942    1.285   .     A
C890   H895    1.081   .     S
C890   N928    1.365   .     A
C890   C1409   1.414   1_545 S
C891   H906    1.082   .     S
C891   N927    1.366   .     A
C891   C1150   1.414   .     S
C892   N928    1.365   .     A
C892   H917    1.082   .     S
C892   C1407   1.414   1_545 S
C893   N927    1.366   .     A
C893   H921    1.082   .     S
C893   C1148   1.414   .     S
C894   O933    1.384   .     S
H904   C110    1.111   1_556 S
H907   C110    1.109   1_556 S
N927   Zn945   2.003   .     S
N928   Zn946   2.003   .     S
O929   Zn945   2.014   .     S
O937   Zn946   2.014   .     S
O938   Zn945   2.016   .     S
O939   Zn946   2.016   .     S
O940   Zn945   1.989   .     S
O941   Zn946   1.989   .     S
O942   Zn945   1.991   .     S
O943   Zn946   1.991   .     S
C947   C965    1.434   .     S
C947   O1015   1.283   .     A
C947   O1025   1.284   .     A
C948   C964    1.406   .     A
C948   O1020   1.385   .     S
C948   C778    1.378   1_655 S
C949   C964    1.405   .     A
C949   O1021   1.385   .     S
C949   C808    1.378   1_655 S
C950   C965    1.410   .     A
C950   O1022   1.385   .     S
C951   C962    1.404   .     A
C951   O1030   1.385   .     S
C951   C955    1.390   .     A
C952   O1016   1.384   .     S
C952   C963    1.404   .     A
C952   C956    1.388   .     A
C953   C957    1.386   .     A
C953   O1017   1.384   .     S
C953   C963    1.408   .     A
C954   C959    1.385   .     A
C954   C962    1.408   .     A
C954   O1018   1.384   .     S
C955   H1008   1.083   .     S
C955   C960    1.398   .     A
C956   H1009   1.084   .     S
C956   C961    1.398   .     A
C957   C961    1.395   .     A
C957   H1010   1.084   .     S
C958   O1024   1.281   .     A
C958   O1023   1.282   .     A
C958   C964    1.426   .     S
C959   H1011   1.084   .     S
C959   C960    1.395   .     A
C960   C969    1.436   .     S
C961   C975    1.436   .     S
C963   C188    1.446   1_556 S
C965   C980    1.409   .     A
C966   H1012   1.114   .     S
C966   O1030   1.410   .     S
C966   H983    1.109   .     S
C966   H982    1.111   .     S
C967   H984    1.114   .     S
C967   H985    1.112   .     S
C967   O1016   1.410   .     S
C967   H986    1.109   .     S
C968   O1017   1.409   .     S
C968   H988    1.114   .     S
C968   H213    1.111   1_556 S
C968   H215    1.109   1_556 S
C969   O1029   1.284   .     A
C969   O1026   1.285   .     A
C970   O1018   1.409   .     S
C970   H991    1.114   .     S
C971   H996    1.106   .     S
C971   H994    1.112   .     S
C971   O1019   1.412   .     S
C971   H995    1.114   .     S
C972   H998    1.113   .     S
C972   H999    1.114   .     S
C972   H997    1.109   .     S
C972   O1020   1.410   .     S
C973   H1000   1.109   .     S
C973   H1001   1.113   .     S
C973   O1021   1.410   .     S
C973   H1002   1.113   .     S
C974   H1006   1.115   .     S
C974   O1022   1.413   .     S
C974   H1005   1.111   .     S
C974   H1004   1.108   .     S
C975   O1027   1.285   .     A
C975   O1028   1.285   .     A
C976   H981    1.081   .     S
C976   N1014   1.365   .     A
C976   C1495   1.414   1_545 S
C977   H992    1.082   .     S
C977   N1013   1.366   .     A
C977   C1236   1.414   .     S
C978   N1014   1.365   .     A
C978   H1003   1.082   .     S
C978   C1493   1.414   1_545 S
C979   N1013   1.366   .     A
C979   H1007   1.082   .     S
C979   C1234   1.414   .     S
C980   O1019   1.384   .     S
H990   C196    1.111   1_556 S
H993   C196    1.109   1_556 S
N1013  Zn1031  2.003   .     S
N1014  Zn1032  2.003   .     S
O1015  Zn1031  2.014   .     S
O1023  Zn1032  2.014   .     S
O1024  Zn1031  2.016   .     S
O1025  Zn1032  2.016   .     S
O1026  Zn1031  1.989   .     S
O1027  Zn1032  1.989   .     S
O1028  Zn1031  1.991   .     S
O1029  Zn1032  1.991   .     S
C1033  C1051   1.434   .     S
C1033  O1101   1.283   .     A
C1033  O1111   1.284   .     A
C1034  C1050   1.406   .     A
C1034  O1106   1.385   .     S
C1034  C1122   1.378   .     S
C1035  C1050   1.405   .     A
C1035  O1107   1.385   .     S
C1035  C1152   1.378   .     S
C1036  C1051   1.410   .     A
C1036  O1108   1.385   .     S
C1036  C1206   1.378   1_455 S
C1037  C1048   1.404   .     A
C1037  O1116   1.385   .     S
C1037  C1041   1.390   .     A
C1038  O1102   1.384   .     S
C1038  C1049   1.404   .     A
C1038  C1042   1.388   .     A
C1039  C1043   1.386   .     A
C1039  O1103   1.384   .     S
C1039  C1049   1.408   .     A
C1040  C1045   1.385   .     A
C1040  C1048   1.408   .     A
C1040  O1104   1.384   .     S
C1041  H1094   1.083   .     S
C1041  C1046   1.398   .     A
C1042  H1095   1.084   .     S
C1042  C1047   1.398   .     A
C1043  C1047   1.395   .     A
C1043  H1096   1.084   .     S
C1044  O1110   1.281   .     A
C1044  O1109   1.282   .     A
C1044  C1050   1.426   .     S
C1045  H1097   1.084   .     S
C1045  C1046   1.395   .     A
C1046  C1055   1.436   .     S
C1047  C1061   1.436   .     S
C1049  C274    1.446   1_556 S
C1051  C1066   1.409   .     A
C1052  H1098   1.114   .     S
C1052  O1116   1.410   .     S
C1052  H1069   1.109   .     S
C1052  H1068   1.111   .     S
C1053  H1070   1.114   .     S
C1053  H1071   1.112   .     S
C1053  O1102   1.410   .     S
C1053  H1072   1.109   .     S
C1054  O1103   1.409   .     S
C1054  H1074   1.114   .     S
C1054  H299    1.111   1_556 S
C1054  H301    1.109   1_556 S
C1055  O1115   1.284   .     A
C1055  O1112   1.285   .     A
C1056  O1104   1.409   .     S
C1056  H1077   1.114   .     S
C1057  H1082   1.106   .     S
C1057  H1080   1.112   .     S
C1057  O1105   1.412   .     S
C1057  H1081   1.114   .     S
C1058  H1084   1.113   .     S
C1058  H1085   1.114   .     S
C1058  H1083   1.109   .     S
C1058  O1106   1.410   .     S
C1059  H1086   1.109   .     S
C1059  H1087   1.113   .     S
C1059  O1107   1.410   .     S
C1059  H1088   1.113   .     S
C1060  H1092   1.115   .     S
C1060  O1108   1.413   .     S
C1060  H1091   1.111   .     S
C1060  H1090   1.108   .     S
C1061  O1113   1.285   .     A
C1061  O1114   1.285   .     A
C1062  H1067   1.081   .     S
C1062  N1100   1.365   .     A
C1063  H1078   1.082   .     S
C1063  N1099   1.366   .     A
C1063  C1322   1.414   .     S
C1064  N1100   1.365   .     A
C1064  H1089   1.082   .     S
C1065  N1099   1.366   .     A
C1065  H1093   1.082   .     S
C1065  C1320   1.414   .     S
C1066  O1105   1.384   .     S
C1066  C1207   1.378   1_455 S
H1076  C282    1.111   1_556 S
H1079  C282    1.109   1_556 S
N1099  Zn1117  2.003   .     S
N1100  Zn1118  2.003   .     S
O1101  Zn1117  2.014   .     S
O1109  Zn1118  2.014   .     S
O1110  Zn1117  2.016   .     S
O1111  Zn1118  2.016   .     S
O1112  Zn1117  1.989   .     S
O1113  Zn1118  1.989   .     S
O1114  Zn1117  1.991   .     S
O1115  Zn1118  1.991   .     S
C1119  C1137   1.434   .     S
C1119  O1187   1.283   .     A
C1119  O1197   1.284   .     A
C1120  C1136   1.406   .     A
C1120  O1192   1.385   .     S
C1120  C1208   1.378   .     S
C1121  C1136   1.405   .     A
C1121  O1193   1.385   .     S
C1121  C1238   1.378   .     S
C1122  C1137   1.410   .     A
C1122  O1194   1.385   .     S
C1123  C1134   1.404   .     A
C1123  O1202   1.385   .     S
C1123  C1127   1.390   .     A
C1124  O1188   1.384   .     S
C1124  C1135   1.404   .     A
C1124  C1128   1.388   .     A
C1125  C1129   1.386   .     A
C1125  O1189   1.384   .     S
C1125  C1135   1.408   .     A
C1126  C1131   1.385   .     A
C1126  C1134   1.408   .     A
C1126  O1190   1.384   .     S
C1127  H1180   1.083   .     S
C1127  C1132   1.398   .     A
C1128  H1181   1.084   .     S
C1128  C1133   1.398   .     A
C1129  C1133   1.395   .     A
C1129  H1182   1.084   .     S
C1130  O1196   1.281   .     A
C1130  O1195   1.282   .     A
C1130  C1136   1.426   .     S
C1131  H1183   1.084   .     S
C1131  C1132   1.395   .     A
C1132  C1141   1.436   .     S
C1133  C1147   1.436   .     S
C1135  C360    1.446   1_556 S
C1137  C1152   1.409   .     A
C1138  H1184   1.114   .     S
C1138  O1202   1.410   .     S
C1138  H1155   1.109   .     S
C1138  H1154   1.111   .     S
C1139  H1156   1.114   .     S
C1139  H1157   1.112   .     S
C1139  O1188   1.410   .     S
C1139  H1158   1.109   .     S
C1140  O1189   1.409   .     S
C1140  H1160   1.114   .     S
C1140  H385    1.111   1_556 S
C1140  H387    1.109   1_556 S
C1141  O1201   1.284   .     A
C1141  O1198   1.285   .     A
C1142  O1190   1.409   .     S
C1142  H1163   1.114   .     S
C1143  H1168   1.106   .     S
C1143  H1166   1.112   .     S
C1143  O1191   1.412   .     S
C1143  H1167   1.114   .     S
C1144  H1170   1.113   .     S
C1144  H1171   1.114   .     S
C1144  H1169   1.109   .     S
C1144  O1192   1.410   .     S
C1145  H1172   1.109   .     S
C1145  H1173   1.113   .     S
C1145  O1193   1.410   .     S
C1145  H1174   1.113   .     S
C1146  H1178   1.115   .     S
C1146  O1194   1.413   .     S
C1146  H1177   1.111   .     S
C1146  H1176   1.108   .     S
C1147  O1199   1.285   .     A
C1147  O1200   1.285   .     A
C1148  H1153   1.081   .     S
C1148  N1186   1.365   .     A
C1149  H1164   1.082   .     S
C1149  N1185   1.366   .     A
C1149  C1408   1.414   .     S
C1150  N1186   1.365   .     A
C1150  H1175   1.082   .     S
C1151  N1185   1.366   .     A
C1151  H1179   1.082   .     S
C1151  C1406   1.414   .     S
C1152  O1191   1.384   .     S
H1162  C368    1.111   1_556 S
H1165  C368    1.109   1_556 S
N1185  Zn1203  2.003   .     S
N1186  Zn1204  2.003   .     S
O1187  Zn1203  2.014   .     S
O1195  Zn1204  2.014   .     S
O1196  Zn1203  2.016   .     S
O1197  Zn1204  2.016   .     S
O1198  Zn1203  1.989   .     S
O1199  Zn1204  1.989   .     S
O1200  Zn1203  1.991   .     S
O1201  Zn1204  1.991   .     S
C1205  C1223   1.434   .     S
C1205  O1273   1.283   .     A
C1205  O1283   1.284   .     A
C1206  C1222   1.406   .     A
C1206  O1278   1.385   .     S
C1206  C1036   1.378   1_655 S
C1207  C1222   1.405   .     A
C1207  O1279   1.385   .     S
C1207  C1066   1.378   1_655 S
C1208  C1223   1.410   .     A
C1208  O1280   1.385   .     S
C1209  C1220   1.404   .     A
C1209  O1288   1.385   .     S
C1209  C1213   1.390   .     A
C1210  O1274   1.384   .     S
C1210  C1221   1.404   .     A
C1210  C1214   1.388   .     A
C1211  C1215   1.386   .     A
C1211  O1275   1.384   .     S
C1211  C1221   1.408   .     A
C1212  C1217   1.385   .     A
C1212  C1220   1.408   .     A
C1212  O1276   1.384   .     S
C1213  H1266   1.083   .     S
C1213  C1218   1.398   .     A
C1214  H1267   1.084   .     S
C1214  C1219   1.398   .     A
C1215  C1219   1.395   .     A
C1215  H1268   1.084   .     S
C1216  O1282   1.281   .     A
C1216  O1281   1.282   .     A
C1216  C1222   1.426   .     S
C1217  H1269   1.084   .     S
C1217  C1218   1.395   .     A
C1218  C1227   1.436   .     S
C1219  C1233   1.436   .     S
C1221  C446    1.446   1_556 S
C1223  C1238   1.409   .     A
C1224  H1270   1.114   .     S
C1224  O1288   1.410   .     S
C1224  H1241   1.109   .     S
C1224  H1240   1.111   .     S
C1225  H1242   1.114   .     S
C1225  H1243   1.112   .     S
C1225  O1274   1.410   .     S
C1225  H1244   1.109   .     S
C1226  O1275   1.409   .     S
C1226  H1246   1.114   .     S
C1226  H471    1.111   1_556 S
C1226  H473    1.109   1_556 S
C1227  O1287   1.284   .     A
C1227  O1284   1.285   .     A
C1228  O1276   1.409   .     S
C1228  H1249   1.114   .     S
C1229  H1254   1.106   .     S
C1229  H1252   1.112   .     S
C1229  O1277   1.412   .     S
C1229  H1253   1.114   .     S
C1230  H1256   1.113   .     S
C1230  H1257   1.114   .     S
C1230  H1255   1.109   .     S
C1230  O1278   1.410   .     S
C1231  H1258   1.109   .     S
C1231  H1259   1.113   .     S
C1231  O1279   1.410   .     S
C1231  H1260   1.113   .     S
C1232  H1264   1.115   .     S
C1232  O1280   1.413   .     S
C1232  H1263   1.111   .     S
C1232  H1262   1.108   .     S
C1233  O1285   1.285   .     A
C1233  O1286   1.285   .     A
C1234  H1239   1.081   .     S
C1234  N1272   1.365   .     A
C1235  H1250   1.082   .     S
C1235  N1271   1.366   .     A
C1235  C1494   1.414   .     S
C1236  N1272   1.365   .     A
C1236  H1261   1.082   .     S
C1237  N1271   1.366   .     A
C1237  H1265   1.082   .     S
C1237  C1492   1.414   .     S
C1238  O1277   1.384   .     S
H1248  C454    1.111   1_556 S
H1251  C454    1.109   1_556 S
N1271  Zn1289  2.003   .     S
N1272  Zn1290  2.003   .     S
O1273  Zn1289  2.014   .     S
O1281  Zn1290  2.014   .     S
O1282  Zn1289  2.016   .     S
O1283  Zn1290  2.016   .     S
O1284  Zn1289  1.989   .     S
O1285  Zn1290  1.989   .     S
O1286  Zn1289  1.991   .     S
O1287  Zn1290  1.991   .     S
C1291  C1309   1.434   .     S
C1291  O1359   1.283   .     A
C1291  O1369   1.284   .     A
C1292  C1308   1.406   .     A
C1292  O1364   1.385   .     S
C1292  C1380   1.378   .     S
C1293  C1308   1.405   .     A
C1293  O1365   1.385   .     S
C1293  C1410   1.378   .     S
C1294  C1309   1.410   .     A
C1294  O1366   1.385   .     S
C1294  C1464   1.378   1_455 S
C1295  C1306   1.404   .     A
C1295  O1374   1.385   .     S
C1295  C1299   1.390   .     A
C1296  O1360   1.384   .     S
C1296  C1307   1.404   .     A
C1296  C1300   1.388   .     A
C1297  C1301   1.386   .     A
C1297  O1361   1.384   .     S
C1297  C1307   1.408   .     A
C1298  C1303   1.385   .     A
C1298  C1306   1.408   .     A
C1298  O1362   1.384   .     S
C1299  H1352   1.083   .     S
C1299  C1304   1.398   .     A
C1300  H1353   1.084   .     S
C1300  C1305   1.398   .     A
C1301  C1305   1.395   .     A
C1301  H1354   1.084   .     S
C1302  O1368   1.281   .     A
C1302  O1367   1.282   .     A
C1302  C1308   1.426   .     S
C1303  H1355   1.084   .     S
C1303  C1304   1.395   .     A
C1304  C1313   1.436   .     S
C1305  C1319   1.436   .     S
C1307  C532    1.446   1_556 S
C1309  C1324   1.409   .     A
C1310  H1356   1.114   .     S
C1310  O1374   1.410   .     S
C1310  H1327   1.109   .     S
C1310  H1326   1.111   .     S
C1311  H1328   1.114   .     S
C1311  H1329   1.112   .     S
C1311  O1360   1.410   .     S
C1311  H1330   1.109   .     S
C1312  O1361   1.409   .     S
C1312  H1332   1.114   .     S
C1312  H557    1.111   1_556 S
C1312  H559    1.109   1_556 S
C1313  O1373   1.284   .     A
C1313  O1370   1.285   .     A
C1314  O1362   1.409   .     S
C1314  H1335   1.114   .     S
C1315  H1340   1.106   .     S
C1315  H1338   1.112   .     S
C1315  O1363   1.412   .     S
C1315  H1339   1.114   .     S
C1316  H1342   1.113   .     S
C1316  H1343   1.114   .     S
C1316  H1341   1.109   .     S
C1316  O1364   1.410   .     S
C1317  H1344   1.109   .     S
C1317  H1345   1.113   .     S
C1317  O1365   1.410   .     S
C1317  H1346   1.113   .     S
C1318  H1350   1.115   .     S
C1318  O1366   1.413   .     S
C1318  H1349   1.111   .     S
C1318  H1348   1.108   .     S
C1319  O1371   1.285   .     A
C1319  O1372   1.285   .     A
C1320  H1325   1.081   .     S
C1320  N1358   1.365   .     A
C1321  H1336   1.082   .     S
C1321  N1357   1.366   .     A
C1321  C806    1.414   1_565 S
C1322  N1358   1.365   .     A
C1322  H1347   1.082   .     S
C1323  N1357   1.366   .     A
C1323  H1351   1.082   .     S
C1323  C804    1.414   1_565 S
C1324  O1363   1.384   .     S
C1324  C1465   1.378   1_455 S
H1334  C540    1.111   1_556 S
H1337  C540    1.109   1_556 S
N1357  Zn1375  2.003   .     S
N1358  Zn1376  2.003   .     S
O1359  Zn1375  2.014   .     S
O1367  Zn1376  2.014   .     S
O1368  Zn1375  2.016   .     S
O1369  Zn1376  2.016   .     S
O1370  Zn1375  1.989   .     S
O1371  Zn1376  1.989   .     S
O1372  Zn1375  1.991   .     S
O1373  Zn1376  1.991   .     S
C1377  C1395   1.434   .     S
C1377  O1445   1.283   .     A
C1377  O1455   1.284   .     A
C1378  C1394   1.406   .     A
C1378  O1450   1.385   .     S
C1378  C1466   1.378   .     S
C1379  C1394   1.405   .     A
C1379  O1451   1.385   .     S
C1379  C1496   1.378   .     S
C1380  C1395   1.410   .     A
C1380  O1452   1.385   .     S
C1381  C1392   1.404   .     A
C1381  O1460   1.385   .     S
C1381  C1385   1.390   .     A
C1382  O1446   1.384   .     S
C1382  C1393   1.404   .     A
C1382  C1386   1.388   .     A
C1383  C1387   1.386   .     A
C1383  O1447   1.384   .     S
C1383  C1393   1.408   .     A
C1384  C1389   1.385   .     A
C1384  C1392   1.408   .     A
C1384  O1448   1.384   .     S
C1385  H1438   1.083   .     S
C1385  C1390   1.398   .     A
C1386  H1439   1.084   .     S
C1386  C1391   1.398   .     A
C1387  C1391   1.395   .     A
C1387  H1440   1.084   .     S
C1388  O1454   1.281   .     A
C1388  O1453   1.282   .     A
C1388  C1394   1.426   .     S
C1389  H1441   1.084   .     S
C1389  C1390   1.395   .     A
C1390  C1399   1.436   .     S
C1391  C1405   1.436   .     S
C1393  C618    1.446   1_556 S
C1395  C1410   1.409   .     A
C1396  H1442   1.114   .     S
C1396  O1460   1.410   .     S
C1396  H1413   1.109   .     S
C1396  H1412   1.111   .     S
C1397  H1414   1.114   .     S
C1397  H1415   1.112   .     S
C1397  O1446   1.410   .     S
C1397  H1416   1.109   .     S
C1398  O1447   1.409   .     S
C1398  H1418   1.114   .     S
C1398  H643    1.111   1_556 S
C1398  H645    1.109   1_556 S
C1399  O1459   1.284   .     A
C1399  O1456   1.285   .     A
C1400  O1448   1.409   .     S
C1400  H1421   1.114   .     S
C1401  H1426   1.106   .     S
C1401  H1424   1.112   .     S
C1401  O1449   1.412   .     S
C1401  H1425   1.114   .     S
C1402  H1428   1.113   .     S
C1402  H1429   1.114   .     S
C1402  H1427   1.109   .     S
C1402  O1450   1.410   .     S
C1403  H1430   1.109   .     S
C1403  H1431   1.113   .     S
C1403  O1451   1.410   .     S
C1403  H1432   1.113   .     S
C1404  H1436   1.115   .     S
C1404  O1452   1.413   .     S
C1404  H1435   1.111   .     S
C1404  H1434   1.108   .     S
C1405  O1457   1.285   .     A
C1405  O1458   1.285   .     A
C1406  H1411   1.081   .     S
C1406  N1444   1.365   .     A
C1407  H1422   1.082   .     S
C1407  N1443   1.366   .     A
C1407  C892    1.414   1_565 S
C1408  N1444   1.365   .     A
C1408  H1433   1.082   .     S
C1409  N1443   1.366   .     A
C1409  H1437   1.082   .     S
C1409  C890    1.414   1_565 S
C1410  O1449   1.384   .     S
H1420  C626    1.111   1_556 S
H1423  C626    1.109   1_556 S
N1443  Zn1461  2.003   .     S
N1444  Zn1462  2.003   .     S
O1445  Zn1461  2.014   .     S
O1453  Zn1462  2.014   .     S
O1454  Zn1461  2.016   .     S
O1455  Zn1462  2.016   .     S
O1456  Zn1461  1.989   .     S
O1457  Zn1462  1.989   .     S
O1458  Zn1461  1.991   .     S
O1459  Zn1462  1.991   .     S
C1463  C1481   1.434   .     S
C1463  O1531   1.283   .     A
C1463  O1541   1.284   .     A
C1464  C1480   1.406   .     A
C1464  O1536   1.385   .     S
C1464  C1294   1.378   1_655 S
C1465  C1480   1.405   .     A
C1465  O1537   1.385   .     S
C1465  C1324   1.378   1_655 S
C1466  C1481   1.410   .     A
C1466  O1538   1.385   .     S
C1467  C1478   1.404   .     A
C1467  O1546   1.385   .     S
C1467  C1471   1.390   .     A
C1468  O1532   1.384   .     S
C1468  C1479   1.404   .     A
C1468  C1472   1.388   .     A
C1469  C1473   1.386   .     A
C1469  O1533   1.384   .     S
C1469  C1479   1.408   .     A
C1470  C1475   1.385   .     A
C1470  C1478   1.408   .     A
C1470  O1534   1.384   .     S
C1471  H1524   1.083   .     S
C1471  C1476   1.398   .     A
C1472  H1525   1.084   .     S
C1472  C1477   1.398   .     A
C1473  C1477   1.395   .     A
C1473  H1526   1.084   .     S
C1474  O1540   1.281   .     A
C1474  O1539   1.282   .     A
C1474  C1480   1.426   .     S
C1475  H1527   1.084   .     S
C1475  C1476   1.395   .     A
C1476  C1485   1.436   .     S
C1477  C1491   1.436   .     S
C1479  C704    1.446   1_556 S
C1481  C1496   1.409   .     A
C1482  H1528   1.114   .     S
C1482  O1546   1.410   .     S
C1482  H1499   1.109   .     S
C1482  H1498   1.111   .     S
C1483  H1500   1.114   .     S
C1483  H1501   1.112   .     S
C1483  O1532   1.410   .     S
C1483  H1502   1.109   .     S
C1484  O1533   1.409   .     S
C1484  H1504   1.114   .     S
C1484  H729    1.111   1_556 S
C1484  H731    1.109   1_556 S
C1485  O1545   1.284   .     A
C1485  O1542   1.285   .     A
C1486  O1534   1.409   .     S
C1486  H1507   1.114   .     S
C1487  H1512   1.106   .     S
C1487  H1510   1.112   .     S
C1487  O1535   1.412   .     S
C1487  H1511   1.114   .     S
C1488  H1514   1.113   .     S
C1488  H1515   1.114   .     S
C1488  H1513   1.109   .     S
C1488  O1536   1.410   .     S
C1489  H1516   1.109   .     S
C1489  H1517   1.113   .     S
C1489  O1537   1.410   .     S
C1489  H1518   1.113   .     S
C1490  H1522   1.115   .     S
C1490  O1538   1.413   .     S
C1490  H1521   1.111   .     S
C1490  H1520   1.108   .     S
C1491  O1543   1.285   .     A
C1491  O1544   1.285   .     A
C1492  H1497   1.081   .     S
C1492  N1530   1.365   .     A
C1493  H1508   1.082   .     S
C1493  N1529   1.366   .     A
C1493  C978    1.414   1_565 S
C1494  N1530   1.365   .     A
C1494  H1519   1.082   .     S
C1495  N1529   1.366   .     A
C1495  H1523   1.082   .     S
C1495  C976    1.414   1_565 S
C1496  O1535   1.384   .     S
H1506  C712    1.111   1_556 S
H1509  C712    1.109   1_556 S
N1529  Zn1547  2.003   .     S
N1530  Zn1548  2.003   .     S
O1531  Zn1547  2.014   .     S
O1539  Zn1548  2.014   .     S
O1540  Zn1547  2.016   .     S
O1541  Zn1548  2.016   .     S
O1542  Zn1547  1.989   .     S
O1543  Zn1548  1.989   .     S
O1544  Zn1547  1.991   .     S
O1545  Zn1548  1.991   .     S
