data_str_m3_o1_o17_pcu_sym.17
_audit_creation_date              2020-01-03
_audit_creation_method            'Materials Studio'
_symmetry_space_group_name_H-M    'P1'
_symmetry_Int_Tables_number       1
_symmetry_cell_setting            triclinic
loop_
_symmetry_equiv_pos_as_xyz
  x,y,z
_cell_length_a                    31.8792
_cell_length_b                    29.5186
_cell_length_c                    30.0121
_cell_angle_alpha                 89.9942
_cell_angle_beta                  90.4537
_cell_angle_gamma                 90.0041
loop_
_atom_site_label
_atom_site_type_symbol
_atom_site_fract_x
_atom_site_fract_y
_atom_site_fract_z
_atom_site_U_iso_or_equiv
_atom_site_adp_type
_atom_site_occupancy
C1     C     0.08685   0.16667   0.24968   0.00000  Uiso   1.00
C2     C     0.04267   0.16669   0.24960   0.00000  Uiso   1.00
C3     C     0.19092   0.02398   0.27970   0.00000  Uiso   1.00
C4     C     0.14242   0.30935   0.22030   0.00000  Uiso   1.00
C5     C     0.14242   0.02399   0.22030   0.00000  Uiso   1.00
C6     C     0.19092   0.30935   0.27970   0.00000  Uiso   1.00
C7     C     0.16691   0.16667   0.16328   0.00000  Uiso   1.00
C8     C     0.16643   0.16666   0.33672   0.00000  Uiso   1.00
C9     C     0.16887   0.12546   0.40758   0.00000  Uiso   1.00
C10    C     0.16448   0.20787   0.09242   0.00000  Uiso   1.00
C11    C     0.16639   0.16666   0.38467   0.00000  Uiso   1.00
C12    C     0.24648   0.16666   0.25033   0.00000  Uiso   1.00
C13    C     0.16695   0.16667   0.11533   0.00000  Uiso   1.00
C14    C     0.16397   0.20786   0.40754   0.00000  Uiso   1.00
C15    C     0.16937   0.12547   0.09246   0.00000  Uiso   1.00
C16    C     0.16408   0.20818   0.45363   0.00000  Uiso   1.00
C17    C     0.16927   0.12516   0.04637   0.00000  Uiso   1.00
C18    C     0.16660   0.16667   0.47682   0.00000  Uiso   1.00
C19    C     0.16675   0.16667   0.02318   0.00000  Uiso   1.00
C20    C     0.16899   0.12515   0.45367   0.00000  Uiso   1.00
C21    C     0.16436   0.20819   0.04633   0.00000  Uiso   1.00
C22    C     0.16172   0.24926   0.47681   0.00000  Uiso   1.00
C23    C     0.16186   0.24926   0.02311   0.00000  Uiso   1.00
C24    C     0.17163   0.08408   0.02319   0.00000  Uiso   1.00
C25    C     0.04862   0.16578   0.33396   0.00000  Uiso   1.00
C26    C     0.28473   0.16754   0.16603   0.00000  Uiso   1.00
C27    C     0.28889   0.16553   0.33570   0.00000  Uiso   1.00
C28    C     0.04444   0.16780   0.16430   0.00000  Uiso   1.00
C29    C     0.17149   0.08408   0.47689   0.00000  Uiso   1.00
C30    C     0.02253   0.16619   0.29115   0.00000  Uiso   1.00
C31    C     0.31081   0.16714   0.20886   0.00000  Uiso   1.00
C32    C     0.31213   0.16613   0.29164   0.00000  Uiso   1.00
C33    C     0.02120   0.16720   0.20837   0.00000  Uiso   1.00
C34    C     0.29066   0.16664   0.25042   0.00000  Uiso   1.00
H35    H     0.17082   0.09362   0.38966   0.00000  Uiso   1.00
H36    H     0.12303   0.29116   0.19657   0.00000  Uiso   1.00
H37    H     0.12303   0.04217   0.19657   0.00000  Uiso   1.00
H38    H     0.21031   0.29116   0.30343   0.00000  Uiso   1.00
H39    H     0.06885   0.13517   0.33469   0.00000  Uiso   1.00
H40    H     0.06887   0.19636   0.33523   0.00000  Uiso   1.00
H41    H     0.03018   0.16550   0.36499   0.00000  Uiso   1.00
H42    H     0.26446   0.19812   0.16531   0.00000  Uiso   1.00
H43    H     0.30317   0.16787   0.13502   0.00000  Uiso   1.00
H44    H     0.26451   0.13693   0.16473   0.00000  Uiso   1.00
H45    H     0.25436   0.16543   0.33227   0.00000  Uiso   1.00
H46    H     0.16253   0.23971   0.11034   0.00000  Uiso   1.00
H47    H     0.29740   0.13457   0.35472   0.00000  Uiso   1.00
H48    H     0.29719   0.19612   0.35538   0.00000  Uiso   1.00
H49    H     0.07898   0.16790   0.16773   0.00000  Uiso   1.00
H50    H     0.03613   0.13723   0.14460   0.00000  Uiso   1.00
H51    H     0.03593   0.19878   0.14528   0.00000  Uiso   1.00
H52    H     0.16197   0.23970   0.38959   0.00000  Uiso   1.00
H53    H     0.17137   0.09363   0.11041   0.00000  Uiso   1.00
H54    H     0.15979   0.28125   0.45918   0.00000  Uiso   1.00
H55    H     0.17356   0.05208   0.04082   0.00000  Uiso   1.00
H56    H     0.16001   0.28126   0.04071   0.00000  Uiso   1.00
H57    H     0.17334   0.05208   0.45929   0.00000  Uiso   1.00
H58    H     0.21030   0.04217   0.30343   0.00000  Uiso   1.00
N59    N     0.16667   0.28573   0.25000   0.00000  Uiso   1.00
N60    N     0.16667   0.04760   0.25000   0.00000  Uiso   1.00
O61    O     0.10559   0.20487   0.24999   0.00000  Uiso   1.00
O62    O     0.22774   0.12846   0.25001   0.00000  Uiso   1.00
O63    O     0.22774   0.20487   0.25001   0.00000  Uiso   1.00
O64    O     0.10559   0.12846   0.24999   0.00000  Uiso   1.00
O65    O     0.16666   0.20489   0.18393   0.00000  Uiso   1.00
O66    O     0.16667   0.12844   0.31608   0.00000  Uiso   1.00
O67    O     0.16667   0.20489   0.31607   0.00000  Uiso   1.00
O68    O     0.16666   0.12844   0.18393   0.00000  Uiso   1.00
Zn69   Zn    0.16667   0.21771   0.25000   0.00000  Uiso   1.00
Zn70   Zn    0.16667   0.11563   0.25000   0.00000  Uiso   1.00
C71    C     0.42018   0.16667   0.24968   0.00000  Uiso   1.00
C72    C     0.37600   0.16669   0.24960   0.00000  Uiso   1.00
C73    C     0.52425   0.02398   0.27970   0.00000  Uiso   1.00
C74    C     0.47575   0.30935   0.22030   0.00000  Uiso   1.00
C75    C     0.47575   0.02399   0.22030   0.00000  Uiso   1.00
C76    C     0.52425   0.30935   0.27970   0.00000  Uiso   1.00
C77    C     0.50024   0.16667   0.16328   0.00000  Uiso   1.00
C78    C     0.49976   0.16666   0.33672   0.00000  Uiso   1.00
C79    C     0.50220   0.12546   0.40758   0.00000  Uiso   1.00
C80    C     0.49781   0.20787   0.09242   0.00000  Uiso   1.00
C81    C     0.49972   0.16666   0.38467   0.00000  Uiso   1.00
C82    C     0.57982   0.16666   0.25033   0.00000  Uiso   1.00
C83    C     0.50029   0.16667   0.11533   0.00000  Uiso   1.00
C84    C     0.49730   0.20786   0.40754   0.00000  Uiso   1.00
C85    C     0.50271   0.12547   0.09246   0.00000  Uiso   1.00
C86    C     0.49741   0.20818   0.45363   0.00000  Uiso   1.00
C87    C     0.50261   0.12516   0.04637   0.00000  Uiso   1.00
C88    C     0.49994   0.16667   0.47682   0.00000  Uiso   1.00
C89    C     0.50008   0.16667   0.02318   0.00000  Uiso   1.00
C90    C     0.50233   0.12515   0.45367   0.00000  Uiso   1.00
C91    C     0.49769   0.20819   0.04633   0.00000  Uiso   1.00
C92    C     0.49505   0.24926   0.47681   0.00000  Uiso   1.00
C93    C     0.49519   0.24926   0.02311   0.00000  Uiso   1.00
C94    C     0.50496   0.08408   0.02319   0.00000  Uiso   1.00
C95    C     0.38195   0.16578   0.33396   0.00000  Uiso   1.00
C96    C     0.61806   0.16754   0.16603   0.00000  Uiso   1.00
C97    C     0.62222   0.16553   0.33570   0.00000  Uiso   1.00
C98    C     0.37778   0.16780   0.16430   0.00000  Uiso   1.00
C99    C     0.50483   0.08408   0.47689   0.00000  Uiso   1.00
C100   C     0.35586   0.16619   0.29115   0.00000  Uiso   1.00
C101   C     0.64414   0.16714   0.20886   0.00000  Uiso   1.00
C102   C     0.64546   0.16613   0.29164   0.00000  Uiso   1.00
C103   C     0.35454   0.16720   0.20837   0.00000  Uiso   1.00
C104   C     0.62400   0.16664   0.25042   0.00000  Uiso   1.00
H105   H     0.50415   0.09362   0.38966   0.00000  Uiso   1.00
H106   H     0.45636   0.29116   0.19657   0.00000  Uiso   1.00
H107   H     0.45636   0.04217   0.19657   0.00000  Uiso   1.00
H108   H     0.54364   0.29116   0.30343   0.00000  Uiso   1.00
H109   H     0.40218   0.13517   0.33469   0.00000  Uiso   1.00
H110   H     0.40220   0.19636   0.33523   0.00000  Uiso   1.00
H111   H     0.36351   0.16550   0.36499   0.00000  Uiso   1.00
H112   H     0.59780   0.19812   0.16531   0.00000  Uiso   1.00
H113   H     0.63651   0.16787   0.13502   0.00000  Uiso   1.00
H114   H     0.59784   0.13693   0.16473   0.00000  Uiso   1.00
H115   H     0.58769   0.16543   0.33227   0.00000  Uiso   1.00
H116   H     0.49586   0.23971   0.11034   0.00000  Uiso   1.00
H117   H     0.63073   0.13457   0.35472   0.00000  Uiso   1.00
H118   H     0.63052   0.19612   0.35538   0.00000  Uiso   1.00
H119   H     0.41231   0.16790   0.16773   0.00000  Uiso   1.00
H120   H     0.36946   0.13723   0.14460   0.00000  Uiso   1.00
H121   H     0.36927   0.19878   0.14528   0.00000  Uiso   1.00
H122   H     0.49530   0.23970   0.38959   0.00000  Uiso   1.00
H123   H     0.50471   0.09363   0.11041   0.00000  Uiso   1.00
H124   H     0.49312   0.28125   0.45918   0.00000  Uiso   1.00
H125   H     0.50690   0.05208   0.04082   0.00000  Uiso   1.00
H126   H     0.49335   0.28126   0.04071   0.00000  Uiso   1.00
H127   H     0.50667   0.05208   0.45929   0.00000  Uiso   1.00
H128   H     0.54364   0.04217   0.30343   0.00000  Uiso   1.00
N129   N     0.50000   0.28573   0.25000   0.00000  Uiso   1.00
N130   N     0.50000   0.04760   0.25000   0.00000  Uiso   1.00
O131   O     0.43892   0.20487   0.24999   0.00000  Uiso   1.00
O132   O     0.56108   0.12846   0.25001   0.00000  Uiso   1.00
O133   O     0.56108   0.20487   0.25001   0.00000  Uiso   1.00
O134   O     0.43892   0.12846   0.24999   0.00000  Uiso   1.00
O135   O     0.49999   0.20489   0.18393   0.00000  Uiso   1.00
O136   O     0.50001   0.12844   0.31608   0.00000  Uiso   1.00
O137   O     0.50001   0.20489   0.31607   0.00000  Uiso   1.00
O138   O     0.49999   0.12844   0.18393   0.00000  Uiso   1.00
Zn139  Zn    0.50000   0.21771   0.25000   0.00000  Uiso   1.00
Zn140  Zn    0.50000   0.11563   0.25000   0.00000  Uiso   1.00
C141   C     0.75352   0.16667   0.24968   0.00000  Uiso   1.00
C142   C     0.70934   0.16669   0.24960   0.00000  Uiso   1.00
C143   C     0.85758   0.02398   0.27970   0.00000  Uiso   1.00
C144   C     0.80908   0.30935   0.22030   0.00000  Uiso   1.00
C145   C     0.80908   0.02399   0.22030   0.00000  Uiso   1.00
C146   C     0.85758   0.30935   0.27970   0.00000  Uiso   1.00
C147   C     0.83357   0.16667   0.16328   0.00000  Uiso   1.00
C148   C     0.83310   0.16666   0.33672   0.00000  Uiso   1.00
C149   C     0.83553   0.12546   0.40758   0.00000  Uiso   1.00
C150   C     0.83115   0.20787   0.09242   0.00000  Uiso   1.00
C151   C     0.83305   0.16666   0.38467   0.00000  Uiso   1.00
C152   C     0.91315   0.16666   0.25033   0.00000  Uiso   1.00
C153   C     0.83362   0.16667   0.11533   0.00000  Uiso   1.00
C154   C     0.83064   0.20786   0.40754   0.00000  Uiso   1.00
C155   C     0.83604   0.12547   0.09246   0.00000  Uiso   1.00
C156   C     0.83074   0.20818   0.45363   0.00000  Uiso   1.00
C157   C     0.83594   0.12516   0.04637   0.00000  Uiso   1.00
C158   C     0.83327   0.16667   0.47682   0.00000  Uiso   1.00
C159   C     0.83341   0.16667   0.02318   0.00000  Uiso   1.00
C160   C     0.83566   0.12515   0.45367   0.00000  Uiso   1.00
C161   C     0.83102   0.20819   0.04633   0.00000  Uiso   1.00
C162   C     0.82838   0.24926   0.47681   0.00000  Uiso   1.00
C163   C     0.82852   0.24926   0.02311   0.00000  Uiso   1.00
C164   C     0.83830   0.08408   0.02319   0.00000  Uiso   1.00
C165   C     0.71528   0.16578   0.33396   0.00000  Uiso   1.00
C166   C     0.95139   0.16754   0.16603   0.00000  Uiso   1.00
C167   C     0.95555   0.16553   0.33570   0.00000  Uiso   1.00
C168   C     0.71111   0.16780   0.16430   0.00000  Uiso   1.00
C169   C     0.83816   0.08408   0.47689   0.00000  Uiso   1.00
C170   C     0.68919   0.16619   0.29115   0.00000  Uiso   1.00
C171   C     0.97747   0.16714   0.20886   0.00000  Uiso   1.00
C172   C     0.97880   0.16613   0.29164   0.00000  Uiso   1.00
C173   C     0.68787   0.16720   0.20837   0.00000  Uiso   1.00
C174   C     0.95733   0.16664   0.25042   0.00000  Uiso   1.00
H175   H     0.83749   0.09362   0.38966   0.00000  Uiso   1.00
H176   H     0.78970   0.29116   0.19657   0.00000  Uiso   1.00
H177   H     0.78970   0.04217   0.19657   0.00000  Uiso   1.00
H178   H     0.87697   0.29116   0.30343   0.00000  Uiso   1.00
H179   H     0.73552   0.13517   0.33469   0.00000  Uiso   1.00
H180   H     0.73553   0.19636   0.33523   0.00000  Uiso   1.00
H181   H     0.69684   0.16550   0.36499   0.00000  Uiso   1.00
H182   H     0.93113   0.19812   0.16531   0.00000  Uiso   1.00
H183   H     0.96984   0.16787   0.13502   0.00000  Uiso   1.00
H184   H     0.93118   0.13693   0.16473   0.00000  Uiso   1.00
H185   H     0.92102   0.16543   0.33227   0.00000  Uiso   1.00
H186   H     0.82919   0.23971   0.11034   0.00000  Uiso   1.00
H187   H     0.96407   0.13457   0.35472   0.00000  Uiso   1.00
H188   H     0.96385   0.19612   0.35538   0.00000  Uiso   1.00
H189   H     0.74564   0.16790   0.16773   0.00000  Uiso   1.00
H190   H     0.70279   0.13723   0.14460   0.00000  Uiso   1.00
H191   H     0.70260   0.19878   0.14528   0.00000  Uiso   1.00
H192   H     0.82863   0.23970   0.38959   0.00000  Uiso   1.00
H193   H     0.83804   0.09363   0.11041   0.00000  Uiso   1.00
H194   H     0.82645   0.28125   0.45918   0.00000  Uiso   1.00
H195   H     0.84023   0.05208   0.04082   0.00000  Uiso   1.00
H196   H     0.82668   0.28126   0.04071   0.00000  Uiso   1.00
H197   H     0.84000   0.05208   0.45929   0.00000  Uiso   1.00
H198   H     0.87697   0.04217   0.30343   0.00000  Uiso   1.00
N199   N     0.83333   0.28573   0.25000   0.00000  Uiso   1.00
N200   N     0.83333   0.04760   0.25000   0.00000  Uiso   1.00
O201   O     0.77226   0.20487   0.24999   0.00000  Uiso   1.00
O202   O     0.89441   0.12846   0.25001   0.00000  Uiso   1.00
O203   O     0.89441   0.20487   0.25001   0.00000  Uiso   1.00
O204   O     0.77226   0.12846   0.24999   0.00000  Uiso   1.00
O205   O     0.83333   0.20489   0.18393   0.00000  Uiso   1.00
O206   O     0.83334   0.12844   0.31608   0.00000  Uiso   1.00
O207   O     0.83334   0.20489   0.31607   0.00000  Uiso   1.00
O208   O     0.83333   0.12844   0.18393   0.00000  Uiso   1.00
Zn209  Zn    0.83333   0.21771   0.25000   0.00000  Uiso   1.00
Zn210  Zn    0.83333   0.11563   0.25000   0.00000  Uiso   1.00
C211   C     0.08685   0.50000   0.24968   0.00000  Uiso   1.00
C212   C     0.04267   0.50002   0.24960   0.00000  Uiso   1.00
C213   C     0.19092   0.35732   0.27970   0.00000  Uiso   1.00
C214   C     0.14242   0.64268   0.22030   0.00000  Uiso   1.00
C215   C     0.14242   0.35732   0.22030   0.00000  Uiso   1.00
C216   C     0.19092   0.64268   0.27970   0.00000  Uiso   1.00
C217   C     0.16691   0.50000   0.16328   0.00000  Uiso   1.00
C218   C     0.16643   0.50000   0.33672   0.00000  Uiso   1.00
C219   C     0.16887   0.45879   0.40758   0.00000  Uiso   1.00
C220   C     0.16448   0.54121   0.09242   0.00000  Uiso   1.00
C221   C     0.16639   0.49999   0.38467   0.00000  Uiso   1.00
C222   C     0.24648   0.50000   0.25033   0.00000  Uiso   1.00
C223   C     0.16695   0.50001   0.11533   0.00000  Uiso   1.00
C224   C     0.16397   0.54119   0.40754   0.00000  Uiso   1.00
C225   C     0.16937   0.45881   0.09246   0.00000  Uiso   1.00
C226   C     0.16408   0.54151   0.45363   0.00000  Uiso   1.00
C227   C     0.16927   0.45849   0.04637   0.00000  Uiso   1.00
C228   C     0.16660   0.50000   0.47682   0.00000  Uiso   1.00
C229   C     0.16675   0.50000   0.02318   0.00000  Uiso   1.00
C230   C     0.16899   0.45848   0.45367   0.00000  Uiso   1.00
C231   C     0.16436   0.54152   0.04633   0.00000  Uiso   1.00
C232   C     0.16172   0.58259   0.47681   0.00000  Uiso   1.00
C233   C     0.16186   0.58259   0.02311   0.00000  Uiso   1.00
C234   C     0.17163   0.41741   0.02319   0.00000  Uiso   1.00
C235   C     0.04862   0.49911   0.33396   0.00000  Uiso   1.00
C236   C     0.28473   0.50087   0.16603   0.00000  Uiso   1.00
C237   C     0.28889   0.49886   0.33570   0.00000  Uiso   1.00
C238   C     0.04444   0.50114   0.16430   0.00000  Uiso   1.00
C239   C     0.17149   0.41741   0.47689   0.00000  Uiso   1.00
C240   C     0.02253   0.49952   0.29115   0.00000  Uiso   1.00
C241   C     0.31081   0.50047   0.20886   0.00000  Uiso   1.00
C242   C     0.31213   0.49946   0.29164   0.00000  Uiso   1.00
C243   C     0.02120   0.50053   0.20837   0.00000  Uiso   1.00
C244   C     0.29066   0.49998   0.25042   0.00000  Uiso   1.00
H245   H     0.17082   0.42696   0.38966   0.00000  Uiso   1.00
H246   H     0.12303   0.62450   0.19657   0.00000  Uiso   1.00
H247   H     0.12303   0.37551   0.19657   0.00000  Uiso   1.00
H248   H     0.21031   0.62449   0.30343   0.00000  Uiso   1.00
H249   H     0.06885   0.46850   0.33469   0.00000  Uiso   1.00
H250   H     0.06887   0.52970   0.33523   0.00000  Uiso   1.00
H251   H     0.03018   0.49884   0.36499   0.00000  Uiso   1.00
H252   H     0.26446   0.53145   0.16531   0.00000  Uiso   1.00
H253   H     0.30317   0.50120   0.13502   0.00000  Uiso   1.00
H254   H     0.26451   0.47026   0.16473   0.00000  Uiso   1.00
H255   H     0.25436   0.49877   0.33227   0.00000  Uiso   1.00
H256   H     0.16253   0.57305   0.11034   0.00000  Uiso   1.00
H257   H     0.29740   0.46790   0.35472   0.00000  Uiso   1.00
H258   H     0.29719   0.52945   0.35538   0.00000  Uiso   1.00
H259   H     0.07898   0.50123   0.16773   0.00000  Uiso   1.00
H260   H     0.03613   0.47056   0.14460   0.00000  Uiso   1.00
H261   H     0.03593   0.53211   0.14528   0.00000  Uiso   1.00
H262   H     0.16197   0.57303   0.38959   0.00000  Uiso   1.00
H263   H     0.17137   0.42697   0.11041   0.00000  Uiso   1.00
H264   H     0.15979   0.61459   0.45918   0.00000  Uiso   1.00
H265   H     0.17356   0.38541   0.04082   0.00000  Uiso   1.00
H266   H     0.16001   0.61459   0.04071   0.00000  Uiso   1.00
H267   H     0.17334   0.38541   0.45929   0.00000  Uiso   1.00
H268   H     0.21030   0.37550   0.30343   0.00000  Uiso   1.00
N269   N     0.16667   0.61907   0.25000   0.00000  Uiso   1.00
N270   N     0.16667   0.38093   0.25000   0.00000  Uiso   1.00
O271   O     0.10559   0.53821   0.24999   0.00000  Uiso   1.00
O272   O     0.22774   0.46179   0.25001   0.00000  Uiso   1.00
O273   O     0.22774   0.53821   0.25001   0.00000  Uiso   1.00
O274   O     0.10559   0.46179   0.24999   0.00000  Uiso   1.00
O275   O     0.16666   0.53823   0.18393   0.00000  Uiso   1.00
O276   O     0.16667   0.46177   0.31608   0.00000  Uiso   1.00
O277   O     0.16667   0.53823   0.31607   0.00000  Uiso   1.00
O278   O     0.16666   0.46177   0.18393   0.00000  Uiso   1.00
Zn279  Zn    0.16667   0.55104   0.25000   0.00000  Uiso   1.00
Zn280  Zn    0.16667   0.44896   0.25000   0.00000  Uiso   1.00
C281   C     0.42018   0.50000   0.24968   0.00000  Uiso   1.00
C282   C     0.37600   0.50002   0.24960   0.00000  Uiso   1.00
C283   C     0.52425   0.35732   0.27970   0.00000  Uiso   1.00
C284   C     0.47575   0.64268   0.22030   0.00000  Uiso   1.00
C285   C     0.47575   0.35732   0.22030   0.00000  Uiso   1.00
C286   C     0.52425   0.64268   0.27970   0.00000  Uiso   1.00
C287   C     0.50024   0.50000   0.16328   0.00000  Uiso   1.00
C288   C     0.49976   0.50000   0.33672   0.00000  Uiso   1.00
C289   C     0.50220   0.45879   0.40758   0.00000  Uiso   1.00
C290   C     0.49781   0.54121   0.09242   0.00000  Uiso   1.00
C291   C     0.49972   0.49999   0.38467   0.00000  Uiso   1.00
C292   C     0.57982   0.50000   0.25033   0.00000  Uiso   1.00
C293   C     0.50029   0.50001   0.11533   0.00000  Uiso   1.00
C294   C     0.49730   0.54119   0.40754   0.00000  Uiso   1.00
C295   C     0.50271   0.45881   0.09246   0.00000  Uiso   1.00
C296   C     0.49741   0.54151   0.45363   0.00000  Uiso   1.00
C297   C     0.50261   0.45849   0.04637   0.00000  Uiso   1.00
C298   C     0.49994   0.50000   0.47682   0.00000  Uiso   1.00
C299   C     0.50008   0.50000   0.02318   0.00000  Uiso   1.00
C300   C     0.50233   0.45848   0.45367   0.00000  Uiso   1.00
C301   C     0.49769   0.54152   0.04633   0.00000  Uiso   1.00
C302   C     0.49505   0.58259   0.47681   0.00000  Uiso   1.00
C303   C     0.49519   0.58259   0.02311   0.00000  Uiso   1.00
C304   C     0.50496   0.41741   0.02319   0.00000  Uiso   1.00
C305   C     0.38195   0.49911   0.33396   0.00000  Uiso   1.00
C306   C     0.61806   0.50087   0.16603   0.00000  Uiso   1.00
C307   C     0.62222   0.49886   0.33570   0.00000  Uiso   1.00
C308   C     0.37778   0.50114   0.16430   0.00000  Uiso   1.00
C309   C     0.50483   0.41741   0.47689   0.00000  Uiso   1.00
C310   C     0.35586   0.49952   0.29115   0.00000  Uiso   1.00
C311   C     0.64414   0.50047   0.20886   0.00000  Uiso   1.00
C312   C     0.64546   0.49946   0.29164   0.00000  Uiso   1.00
C313   C     0.35454   0.50053   0.20837   0.00000  Uiso   1.00
C314   C     0.62400   0.49998   0.25042   0.00000  Uiso   1.00
H315   H     0.50415   0.42696   0.38966   0.00000  Uiso   1.00
H316   H     0.45636   0.62450   0.19657   0.00000  Uiso   1.00
H317   H     0.45636   0.37551   0.19657   0.00000  Uiso   1.00
H318   H     0.54364   0.62449   0.30343   0.00000  Uiso   1.00
H319   H     0.40218   0.46850   0.33469   0.00000  Uiso   1.00
H320   H     0.40220   0.52970   0.33523   0.00000  Uiso   1.00
H321   H     0.36351   0.49884   0.36499   0.00000  Uiso   1.00
H322   H     0.59780   0.53145   0.16531   0.00000  Uiso   1.00
H323   H     0.63651   0.50120   0.13502   0.00000  Uiso   1.00
H324   H     0.59784   0.47026   0.16473   0.00000  Uiso   1.00
H325   H     0.58769   0.49877   0.33227   0.00000  Uiso   1.00
H326   H     0.49586   0.57305   0.11034   0.00000  Uiso   1.00
H327   H     0.63073   0.46790   0.35472   0.00000  Uiso   1.00
H328   H     0.63052   0.52945   0.35538   0.00000  Uiso   1.00
H329   H     0.41231   0.50123   0.16773   0.00000  Uiso   1.00
H330   H     0.36946   0.47056   0.14460   0.00000  Uiso   1.00
H331   H     0.36927   0.53211   0.14528   0.00000  Uiso   1.00
H332   H     0.49530   0.57303   0.38959   0.00000  Uiso   1.00
H333   H     0.50471   0.42697   0.11041   0.00000  Uiso   1.00
H334   H     0.49312   0.61459   0.45918   0.00000  Uiso   1.00
H335   H     0.50690   0.38541   0.04082   0.00000  Uiso   1.00
H336   H     0.49335   0.61459   0.04071   0.00000  Uiso   1.00
H337   H     0.50667   0.38541   0.45929   0.00000  Uiso   1.00
H338   H     0.54364   0.37550   0.30343   0.00000  Uiso   1.00
N339   N     0.50000   0.61907   0.25000   0.00000  Uiso   1.00
N340   N     0.50000   0.38093   0.25000   0.00000  Uiso   1.00
O341   O     0.43892   0.53821   0.24999   0.00000  Uiso   1.00
O342   O     0.56108   0.46179   0.25001   0.00000  Uiso   1.00
O343   O     0.56108   0.53821   0.25001   0.00000  Uiso   1.00
O344   O     0.43892   0.46179   0.24999   0.00000  Uiso   1.00
O345   O     0.49999   0.53823   0.18393   0.00000  Uiso   1.00
O346   O     0.50001   0.46177   0.31608   0.00000  Uiso   1.00
O347   O     0.50001   0.53823   0.31607   0.00000  Uiso   1.00
O348   O     0.49999   0.46177   0.18393   0.00000  Uiso   1.00
Zn349  Zn    0.50000   0.55104   0.25000   0.00000  Uiso   1.00
Zn350  Zn    0.50000   0.44896   0.25000   0.00000  Uiso   1.00
C351   C     0.75352   0.50000   0.24968   0.00000  Uiso   1.00
C352   C     0.70934   0.50002   0.24960   0.00000  Uiso   1.00
C353   C     0.85758   0.35732   0.27970   0.00000  Uiso   1.00
C354   C     0.80908   0.64268   0.22030   0.00000  Uiso   1.00
C355   C     0.80908   0.35732   0.22030   0.00000  Uiso   1.00
C356   C     0.85758   0.64268   0.27970   0.00000  Uiso   1.00
C357   C     0.83357   0.50000   0.16328   0.00000  Uiso   1.00
C358   C     0.83310   0.50000   0.33672   0.00000  Uiso   1.00
C359   C     0.83553   0.45879   0.40758   0.00000  Uiso   1.00
C360   C     0.83115   0.54121   0.09242   0.00000  Uiso   1.00
C361   C     0.83305   0.49999   0.38467   0.00000  Uiso   1.00
C362   C     0.91315   0.50000   0.25033   0.00000  Uiso   1.00
C363   C     0.83362   0.50001   0.11533   0.00000  Uiso   1.00
C364   C     0.83064   0.54119   0.40754   0.00000  Uiso   1.00
C365   C     0.83604   0.45881   0.09246   0.00000  Uiso   1.00
C366   C     0.83074   0.54151   0.45363   0.00000  Uiso   1.00
C367   C     0.83594   0.45849   0.04637   0.00000  Uiso   1.00
C368   C     0.83327   0.50000   0.47682   0.00000  Uiso   1.00
C369   C     0.83341   0.50000   0.02318   0.00000  Uiso   1.00
C370   C     0.83566   0.45848   0.45367   0.00000  Uiso   1.00
C371   C     0.83102   0.54152   0.04633   0.00000  Uiso   1.00
C372   C     0.82838   0.58259   0.47681   0.00000  Uiso   1.00
C373   C     0.82852   0.58259   0.02311   0.00000  Uiso   1.00
C374   C     0.83830   0.41741   0.02319   0.00000  Uiso   1.00
C375   C     0.71528   0.49911   0.33396   0.00000  Uiso   1.00
C376   C     0.95139   0.50087   0.16603   0.00000  Uiso   1.00
C377   C     0.95555   0.49886   0.33570   0.00000  Uiso   1.00
C378   C     0.71111   0.50114   0.16430   0.00000  Uiso   1.00
C379   C     0.83816   0.41741   0.47689   0.00000  Uiso   1.00
C380   C     0.68919   0.49952   0.29115   0.00000  Uiso   1.00
C381   C     0.97747   0.50047   0.20886   0.00000  Uiso   1.00
C382   C     0.97880   0.49946   0.29164   0.00000  Uiso   1.00
C383   C     0.68787   0.50053   0.20837   0.00000  Uiso   1.00
C384   C     0.95733   0.49998   0.25042   0.00000  Uiso   1.00
H385   H     0.83749   0.42696   0.38966   0.00000  Uiso   1.00
H386   H     0.78970   0.62450   0.19657   0.00000  Uiso   1.00
H387   H     0.78970   0.37551   0.19657   0.00000  Uiso   1.00
H388   H     0.87697   0.62449   0.30343   0.00000  Uiso   1.00
H389   H     0.73552   0.46850   0.33469   0.00000  Uiso   1.00
H390   H     0.73553   0.52970   0.33523   0.00000  Uiso   1.00
H391   H     0.69684   0.49884   0.36499   0.00000  Uiso   1.00
H392   H     0.93113   0.53145   0.16531   0.00000  Uiso   1.00
H393   H     0.96984   0.50120   0.13502   0.00000  Uiso   1.00
H394   H     0.93118   0.47026   0.16473   0.00000  Uiso   1.00
H395   H     0.92102   0.49877   0.33227   0.00000  Uiso   1.00
H396   H     0.82919   0.57305   0.11034   0.00000  Uiso   1.00
H397   H     0.96407   0.46790   0.35472   0.00000  Uiso   1.00
H398   H     0.96385   0.52945   0.35538   0.00000  Uiso   1.00
H399   H     0.74564   0.50123   0.16773   0.00000  Uiso   1.00
H400   H     0.70279   0.47056   0.14460   0.00000  Uiso   1.00
H401   H     0.70260   0.53211   0.14528   0.00000  Uiso   1.00
H402   H     0.82863   0.57303   0.38959   0.00000  Uiso   1.00
H403   H     0.83804   0.42697   0.11041   0.00000  Uiso   1.00
H404   H     0.82645   0.61459   0.45918   0.00000  Uiso   1.00
H405   H     0.84023   0.38541   0.04082   0.00000  Uiso   1.00
H406   H     0.82668   0.61459   0.04071   0.00000  Uiso   1.00
H407   H     0.84000   0.38541   0.45929   0.00000  Uiso   1.00
H408   H     0.87697   0.37550   0.30343   0.00000  Uiso   1.00
N409   N     0.83333   0.61907   0.25000   0.00000  Uiso   1.00
N410   N     0.83333   0.38093   0.25000   0.00000  Uiso   1.00
O411   O     0.77226   0.53821   0.24999   0.00000  Uiso   1.00
O412   O     0.89441   0.46179   0.25001   0.00000  Uiso   1.00
O413   O     0.89441   0.53821   0.25001   0.00000  Uiso   1.00
O414   O     0.77226   0.46179   0.24999   0.00000  Uiso   1.00
O415   O     0.83333   0.53823   0.18393   0.00000  Uiso   1.00
O416   O     0.83334   0.46177   0.31608   0.00000  Uiso   1.00
O417   O     0.83334   0.53823   0.31607   0.00000  Uiso   1.00
O418   O     0.83333   0.46177   0.18393   0.00000  Uiso   1.00
Zn419  Zn    0.83333   0.55104   0.25000   0.00000  Uiso   1.00
Zn420  Zn    0.83333   0.44896   0.25000   0.00000  Uiso   1.00
C421   C     0.08685   0.83334   0.24968   0.00000  Uiso   1.00
C422   C     0.04267   0.83336   0.24960   0.00000  Uiso   1.00
C423   C     0.19092   0.69065   0.27970   0.00000  Uiso   1.00
C424   C     0.14242   0.97602   0.22030   0.00000  Uiso   1.00
C425   C     0.14242   0.69065   0.22030   0.00000  Uiso   1.00
C426   C     0.19092   0.97601   0.27970   0.00000  Uiso   1.00
C427   C     0.16691   0.83334   0.16328   0.00000  Uiso   1.00
C428   C     0.16643   0.83333   0.33672   0.00000  Uiso   1.00
C429   C     0.16887   0.79213   0.40758   0.00000  Uiso   1.00
C430   C     0.16448   0.87454   0.09242   0.00000  Uiso   1.00
C431   C     0.16639   0.83333   0.38467   0.00000  Uiso   1.00
C432   C     0.24648   0.83333   0.25033   0.00000  Uiso   1.00
C433   C     0.16695   0.83334   0.11533   0.00000  Uiso   1.00
C434   C     0.16397   0.87453   0.40754   0.00000  Uiso   1.00
C435   C     0.16937   0.79214   0.09246   0.00000  Uiso   1.00
C436   C     0.16408   0.87485   0.45363   0.00000  Uiso   1.00
C437   C     0.16927   0.79182   0.04637   0.00000  Uiso   1.00
C438   C     0.16660   0.83333   0.47682   0.00000  Uiso   1.00
C439   C     0.16675   0.83334   0.02318   0.00000  Uiso   1.00
C440   C     0.16899   0.79182   0.45367   0.00000  Uiso   1.00
C441   C     0.16436   0.87485   0.04633   0.00000  Uiso   1.00
C442   C     0.16172   0.91592   0.47681   0.00000  Uiso   1.00
C443   C     0.16186   0.91593   0.02311   0.00000  Uiso   1.00
C444   C     0.17163   0.75075   0.02319   0.00000  Uiso   1.00
C445   C     0.04862   0.83244   0.33396   0.00000  Uiso   1.00
C446   C     0.28473   0.83420   0.16603   0.00000  Uiso   1.00
C447   C     0.28889   0.83220   0.33570   0.00000  Uiso   1.00
C448   C     0.04444   0.83447   0.16430   0.00000  Uiso   1.00
C449   C     0.17149   0.75074   0.47689   0.00000  Uiso   1.00
C450   C     0.02253   0.83285   0.29115   0.00000  Uiso   1.00
C451   C     0.31081   0.83380   0.20886   0.00000  Uiso   1.00
C452   C     0.31213   0.83279   0.29164   0.00000  Uiso   1.00
C453   C     0.02120   0.83387   0.20837   0.00000  Uiso   1.00
C454   C     0.29066   0.83331   0.25042   0.00000  Uiso   1.00
H455   H     0.17082   0.76029   0.38966   0.00000  Uiso   1.00
H456   H     0.12303   0.95783   0.19657   0.00000  Uiso   1.00
H457   H     0.12303   0.70884   0.19657   0.00000  Uiso   1.00
H458   H     0.21031   0.95782   0.30343   0.00000  Uiso   1.00
H459   H     0.06885   0.80184   0.33469   0.00000  Uiso   1.00
H460   H     0.06887   0.86303   0.33523   0.00000  Uiso   1.00
H461   H     0.03018   0.83217   0.36499   0.00000  Uiso   1.00
H462   H     0.26446   0.86478   0.16531   0.00000  Uiso   1.00
H463   H     0.30317   0.83453   0.13502   0.00000  Uiso   1.00
H464   H     0.26451   0.80360   0.16473   0.00000  Uiso   1.00
H465   H     0.25436   0.83210   0.33227   0.00000  Uiso   1.00
H466   H     0.16253   0.90638   0.11034   0.00000  Uiso   1.00
H467   H     0.29740   0.80124   0.35472   0.00000  Uiso   1.00
H468   H     0.29719   0.86279   0.35538   0.00000  Uiso   1.00
H469   H     0.07898   0.83457   0.16773   0.00000  Uiso   1.00
H470   H     0.03613   0.80390   0.14460   0.00000  Uiso   1.00
H471   H     0.03593   0.86545   0.14528   0.00000  Uiso   1.00
H472   H     0.16197   0.90637   0.38959   0.00000  Uiso   1.00
H473   H     0.17137   0.76030   0.11041   0.00000  Uiso   1.00
H474   H     0.15979   0.94792   0.45918   0.00000  Uiso   1.00
H475   H     0.17356   0.71875   0.04082   0.00000  Uiso   1.00
H476   H     0.16001   0.94793   0.04071   0.00000  Uiso   1.00
H477   H     0.17334   0.71874   0.45929   0.00000  Uiso   1.00
H478   H     0.21030   0.70884   0.30343   0.00000  Uiso   1.00
N479   N     0.16667   0.95240   0.25000   0.00000  Uiso   1.00
N480   N     0.16667   0.71427   0.25000   0.00000  Uiso   1.00
O481   O     0.10559   0.87154   0.24999   0.00000  Uiso   1.00
O482   O     0.22774   0.79513   0.25001   0.00000  Uiso   1.00
O483   O     0.22774   0.87154   0.25001   0.00000  Uiso   1.00
O484   O     0.10559   0.79513   0.24999   0.00000  Uiso   1.00
O485   O     0.16666   0.87156   0.18393   0.00000  Uiso   1.00
O486   O     0.16667   0.79511   0.31608   0.00000  Uiso   1.00
O487   O     0.16667   0.87156   0.31607   0.00000  Uiso   1.00
O488   O     0.16666   0.79511   0.18393   0.00000  Uiso   1.00
Zn489  Zn    0.16667   0.88437   0.25000   0.00000  Uiso   1.00
Zn490  Zn    0.16667   0.78229   0.25000   0.00000  Uiso   1.00
C491   C     0.42018   0.83334   0.24968   0.00000  Uiso   1.00
C492   C     0.37600   0.83336   0.24960   0.00000  Uiso   1.00
C493   C     0.52425   0.69065   0.27970   0.00000  Uiso   1.00
C494   C     0.47575   0.97602   0.22030   0.00000  Uiso   1.00
C495   C     0.47575   0.69065   0.22030   0.00000  Uiso   1.00
C496   C     0.52425   0.97601   0.27970   0.00000  Uiso   1.00
C497   C     0.50024   0.83334   0.16328   0.00000  Uiso   1.00
C498   C     0.49976   0.83333   0.33672   0.00000  Uiso   1.00
C499   C     0.50220   0.79213   0.40758   0.00000  Uiso   1.00
C500   C     0.49781   0.87454   0.09242   0.00000  Uiso   1.00
C501   C     0.49972   0.83333   0.38467   0.00000  Uiso   1.00
C502   C     0.57982   0.83333   0.25033   0.00000  Uiso   1.00
C503   C     0.50029   0.83334   0.11533   0.00000  Uiso   1.00
C504   C     0.49730   0.87453   0.40754   0.00000  Uiso   1.00
C505   C     0.50271   0.79214   0.09246   0.00000  Uiso   1.00
C506   C     0.49741   0.87485   0.45363   0.00000  Uiso   1.00
C507   C     0.50261   0.79182   0.04637   0.00000  Uiso   1.00
C508   C     0.49994   0.83333   0.47682   0.00000  Uiso   1.00
C509   C     0.50008   0.83334   0.02318   0.00000  Uiso   1.00
C510   C     0.50233   0.79182   0.45367   0.00000  Uiso   1.00
C511   C     0.49769   0.87485   0.04633   0.00000  Uiso   1.00
C512   C     0.49505   0.91592   0.47681   0.00000  Uiso   1.00
C513   C     0.49519   0.91593   0.02311   0.00000  Uiso   1.00
C514   C     0.50496   0.75075   0.02319   0.00000  Uiso   1.00
C515   C     0.38195   0.83244   0.33396   0.00000  Uiso   1.00
C516   C     0.61806   0.83420   0.16603   0.00000  Uiso   1.00
C517   C     0.62222   0.83220   0.33570   0.00000  Uiso   1.00
C518   C     0.37778   0.83447   0.16430   0.00000  Uiso   1.00
C519   C     0.50483   0.75074   0.47689   0.00000  Uiso   1.00
C520   C     0.35586   0.83285   0.29115   0.00000  Uiso   1.00
C521   C     0.64414   0.83380   0.20886   0.00000  Uiso   1.00
C522   C     0.64546   0.83279   0.29164   0.00000  Uiso   1.00
C523   C     0.35454   0.83387   0.20837   0.00000  Uiso   1.00
C524   C     0.62400   0.83331   0.25042   0.00000  Uiso   1.00
H525   H     0.50415   0.76029   0.38966   0.00000  Uiso   1.00
H526   H     0.45636   0.95783   0.19657   0.00000  Uiso   1.00
H527   H     0.45636   0.70884   0.19657   0.00000  Uiso   1.00
H528   H     0.54364   0.95782   0.30343   0.00000  Uiso   1.00
H529   H     0.40218   0.80184   0.33469   0.00000  Uiso   1.00
H530   H     0.40220   0.86303   0.33523   0.00000  Uiso   1.00
H531   H     0.36351   0.83217   0.36499   0.00000  Uiso   1.00
H532   H     0.59780   0.86478   0.16531   0.00000  Uiso   1.00
H533   H     0.63651   0.83453   0.13502   0.00000  Uiso   1.00
H534   H     0.59784   0.80360   0.16473   0.00000  Uiso   1.00
H535   H     0.58769   0.83210   0.33227   0.00000  Uiso   1.00
H536   H     0.49586   0.90638   0.11034   0.00000  Uiso   1.00
H537   H     0.63073   0.80124   0.35472   0.00000  Uiso   1.00
H538   H     0.63052   0.86279   0.35538   0.00000  Uiso   1.00
H539   H     0.41231   0.83457   0.16773   0.00000  Uiso   1.00
H540   H     0.36946   0.80390   0.14460   0.00000  Uiso   1.00
H541   H     0.36927   0.86545   0.14528   0.00000  Uiso   1.00
H542   H     0.49530   0.90637   0.38959   0.00000  Uiso   1.00
H543   H     0.50471   0.76030   0.11041   0.00000  Uiso   1.00
H544   H     0.49312   0.94792   0.45918   0.00000  Uiso   1.00
H545   H     0.50690   0.71875   0.04082   0.00000  Uiso   1.00
H546   H     0.49335   0.94793   0.04071   0.00000  Uiso   1.00
H547   H     0.50667   0.71874   0.45929   0.00000  Uiso   1.00
H548   H     0.54364   0.70884   0.30343   0.00000  Uiso   1.00
N549   N     0.50000   0.95240   0.25000   0.00000  Uiso   1.00
N550   N     0.50000   0.71427   0.25000   0.00000  Uiso   1.00
O551   O     0.43892   0.87154   0.24999   0.00000  Uiso   1.00
O552   O     0.56108   0.79513   0.25001   0.00000  Uiso   1.00
O553   O     0.56108   0.87154   0.25001   0.00000  Uiso   1.00
O554   O     0.43892   0.79513   0.24999   0.00000  Uiso   1.00
O555   O     0.49999   0.87156   0.18393   0.00000  Uiso   1.00
O556   O     0.50001   0.79511   0.31608   0.00000  Uiso   1.00
O557   O     0.50001   0.87156   0.31607   0.00000  Uiso   1.00
O558   O     0.49999   0.79511   0.18393   0.00000  Uiso   1.00
Zn559  Zn    0.50000   0.88437   0.25000   0.00000  Uiso   1.00
Zn560  Zn    0.50000   0.78229   0.25000   0.00000  Uiso   1.00
C561   C     0.75352   0.83334   0.24968   0.00000  Uiso   1.00
C562   C     0.70934   0.83336   0.24960   0.00000  Uiso   1.00
C563   C     0.85758   0.69065   0.27970   0.00000  Uiso   1.00
C564   C     0.80908   0.97602   0.22030   0.00000  Uiso   1.00
C565   C     0.80908   0.69065   0.22030   0.00000  Uiso   1.00
C566   C     0.85758   0.97601   0.27970   0.00000  Uiso   1.00
C567   C     0.83357   0.83334   0.16328   0.00000  Uiso   1.00
C568   C     0.83310   0.83333   0.33672   0.00000  Uiso   1.00
C569   C     0.83553   0.79213   0.40758   0.00000  Uiso   1.00
C570   C     0.83115   0.87454   0.09242   0.00000  Uiso   1.00
C571   C     0.83305   0.83333   0.38467   0.00000  Uiso   1.00
C572   C     0.91315   0.83333   0.25033   0.00000  Uiso   1.00
C573   C     0.83362   0.83334   0.11533   0.00000  Uiso   1.00
C574   C     0.83064   0.87453   0.40754   0.00000  Uiso   1.00
C575   C     0.83604   0.79214   0.09246   0.00000  Uiso   1.00
C576   C     0.83074   0.87485   0.45363   0.00000  Uiso   1.00
C577   C     0.83594   0.79182   0.04637   0.00000  Uiso   1.00
C578   C     0.83327   0.83333   0.47682   0.00000  Uiso   1.00
C579   C     0.83341   0.83334   0.02318   0.00000  Uiso   1.00
C580   C     0.83566   0.79182   0.45367   0.00000  Uiso   1.00
C581   C     0.83102   0.87485   0.04633   0.00000  Uiso   1.00
C582   C     0.82838   0.91592   0.47681   0.00000  Uiso   1.00
C583   C     0.82852   0.91593   0.02311   0.00000  Uiso   1.00
C584   C     0.83830   0.75075   0.02319   0.00000  Uiso   1.00
C585   C     0.71528   0.83244   0.33396   0.00000  Uiso   1.00
C586   C     0.95139   0.83420   0.16603   0.00000  Uiso   1.00
C587   C     0.95555   0.83220   0.33570   0.00000  Uiso   1.00
C588   C     0.71111   0.83447   0.16430   0.00000  Uiso   1.00
C589   C     0.83816   0.75074   0.47689   0.00000  Uiso   1.00
C590   C     0.68919   0.83285   0.29115   0.00000  Uiso   1.00
C591   C     0.97747   0.83380   0.20886   0.00000  Uiso   1.00
C592   C     0.97880   0.83279   0.29164   0.00000  Uiso   1.00
C593   C     0.68787   0.83387   0.20837   0.00000  Uiso   1.00
C594   C     0.95733   0.83331   0.25042   0.00000  Uiso   1.00
H595   H     0.83749   0.76029   0.38966   0.00000  Uiso   1.00
H596   H     0.78970   0.95783   0.19657   0.00000  Uiso   1.00
H597   H     0.78970   0.70884   0.19657   0.00000  Uiso   1.00
H598   H     0.87697   0.95782   0.30343   0.00000  Uiso   1.00
H599   H     0.73552   0.80184   0.33469   0.00000  Uiso   1.00
H600   H     0.73553   0.86303   0.33523   0.00000  Uiso   1.00
H601   H     0.69684   0.83217   0.36499   0.00000  Uiso   1.00
H602   H     0.93113   0.86478   0.16531   0.00000  Uiso   1.00
H603   H     0.96984   0.83453   0.13502   0.00000  Uiso   1.00
H604   H     0.93118   0.80360   0.16473   0.00000  Uiso   1.00
H605   H     0.92102   0.83210   0.33227   0.00000  Uiso   1.00
H606   H     0.82919   0.90638   0.11034   0.00000  Uiso   1.00
H607   H     0.96407   0.80124   0.35472   0.00000  Uiso   1.00
H608   H     0.96385   0.86279   0.35538   0.00000  Uiso   1.00
H609   H     0.74564   0.83457   0.16773   0.00000  Uiso   1.00
H610   H     0.70279   0.80390   0.14460   0.00000  Uiso   1.00
H611   H     0.70260   0.86545   0.14528   0.00000  Uiso   1.00
H612   H     0.82863   0.90637   0.38959   0.00000  Uiso   1.00
H613   H     0.83804   0.76030   0.11041   0.00000  Uiso   1.00
H614   H     0.82645   0.94792   0.45918   0.00000  Uiso   1.00
H615   H     0.84023   0.71875   0.04082   0.00000  Uiso   1.00
H616   H     0.82668   0.94793   0.04071   0.00000  Uiso   1.00
H617   H     0.84000   0.71874   0.45929   0.00000  Uiso   1.00
H618   H     0.87697   0.70884   0.30343   0.00000  Uiso   1.00
N619   N     0.83333   0.95240   0.25000   0.00000  Uiso   1.00
N620   N     0.83333   0.71427   0.25000   0.00000  Uiso   1.00
O621   O     0.77226   0.87154   0.24999   0.00000  Uiso   1.00
O622   O     0.89441   0.79513   0.25001   0.00000  Uiso   1.00
O623   O     0.89441   0.87154   0.25001   0.00000  Uiso   1.00
O624   O     0.77226   0.79513   0.24999   0.00000  Uiso   1.00
O625   O     0.83333   0.87156   0.18393   0.00000  Uiso   1.00
O626   O     0.83334   0.79511   0.31608   0.00000  Uiso   1.00
O627   O     0.83334   0.87156   0.31607   0.00000  Uiso   1.00
O628   O     0.83333   0.79511   0.18393   0.00000  Uiso   1.00
Zn629  Zn    0.83333   0.88437   0.25000   0.00000  Uiso   1.00
Zn630  Zn    0.83333   0.78229   0.25000   0.00000  Uiso   1.00
C631   C     0.08685   0.16667   0.74968   0.00000  Uiso   1.00
C632   C     0.04267   0.16669   0.74960   0.00000  Uiso   1.00
C633   C     0.19092   0.02398   0.77970   0.00000  Uiso   1.00
C634   C     0.14242   0.30935   0.72030   0.00000  Uiso   1.00
C635   C     0.14242   0.02399   0.72030   0.00000  Uiso   1.00
C636   C     0.19092   0.30935   0.77970   0.00000  Uiso   1.00
C637   C     0.16691   0.16667   0.66328   0.00000  Uiso   1.00
C638   C     0.16643   0.16666   0.83672   0.00000  Uiso   1.00
C639   C     0.16887   0.12546   0.90758   0.00000  Uiso   1.00
C640   C     0.16448   0.20787   0.59242   0.00000  Uiso   1.00
C641   C     0.16639   0.16666   0.88467   0.00000  Uiso   1.00
C642   C     0.24648   0.16666   0.75033   0.00000  Uiso   1.00
C643   C     0.16695   0.16667   0.61533   0.00000  Uiso   1.00
C644   C     0.16397   0.20786   0.90754   0.00000  Uiso   1.00
C645   C     0.16937   0.12547   0.59246   0.00000  Uiso   1.00
C646   C     0.16408   0.20818   0.95363   0.00000  Uiso   1.00
C647   C     0.16927   0.12516   0.54637   0.00000  Uiso   1.00
C648   C     0.16660   0.16667   0.97682   0.00000  Uiso   1.00
C649   C     0.16675   0.16667   0.52318   0.00000  Uiso   1.00
C650   C     0.16899   0.12515   0.95367   0.00000  Uiso   1.00
C651   C     0.16436   0.20819   0.54633   0.00000  Uiso   1.00
C652   C     0.16172   0.24926   0.97681   0.00000  Uiso   1.00
C653   C     0.16186   0.24926   0.52311   0.00000  Uiso   1.00
C654   C     0.17163   0.08408   0.52319   0.00000  Uiso   1.00
C655   C     0.04862   0.16578   0.83396   0.00000  Uiso   1.00
C656   C     0.28473   0.16754   0.66603   0.00000  Uiso   1.00
C657   C     0.28889   0.16553   0.83570   0.00000  Uiso   1.00
C658   C     0.04444   0.16780   0.66430   0.00000  Uiso   1.00
C659   C     0.17149   0.08408   0.97689   0.00000  Uiso   1.00
C660   C     0.02253   0.16619   0.79115   0.00000  Uiso   1.00
C661   C     0.31081   0.16714   0.70886   0.00000  Uiso   1.00
C662   C     0.31213   0.16613   0.79164   0.00000  Uiso   1.00
C663   C     0.02120   0.16720   0.70837   0.00000  Uiso   1.00
C664   C     0.29066   0.16664   0.75042   0.00000  Uiso   1.00
H665   H     0.17082   0.09362   0.88966   0.00000  Uiso   1.00
H666   H     0.12303   0.29116   0.69657   0.00000  Uiso   1.00
H667   H     0.12303   0.04217   0.69657   0.00000  Uiso   1.00
H668   H     0.21031   0.29116   0.80343   0.00000  Uiso   1.00
H669   H     0.06885   0.13517   0.83469   0.00000  Uiso   1.00
H670   H     0.06887   0.19636   0.83523   0.00000  Uiso   1.00
H671   H     0.03018   0.16550   0.86499   0.00000  Uiso   1.00
H672   H     0.26446   0.19812   0.66531   0.00000  Uiso   1.00
H673   H     0.30317   0.16787   0.63502   0.00000  Uiso   1.00
H674   H     0.26451   0.13693   0.66473   0.00000  Uiso   1.00
H675   H     0.25436   0.16543   0.83227   0.00000  Uiso   1.00
H676   H     0.16253   0.23971   0.61034   0.00000  Uiso   1.00
H677   H     0.29740   0.13457   0.85472   0.00000  Uiso   1.00
H678   H     0.29719   0.19612   0.85538   0.00000  Uiso   1.00
H679   H     0.07898   0.16790   0.66773   0.00000  Uiso   1.00
H680   H     0.03613   0.13723   0.64460   0.00000  Uiso   1.00
H681   H     0.03593   0.19878   0.64528   0.00000  Uiso   1.00
H682   H     0.16197   0.23970   0.88959   0.00000  Uiso   1.00
H683   H     0.17137   0.09363   0.61041   0.00000  Uiso   1.00
H684   H     0.15979   0.28125   0.95918   0.00000  Uiso   1.00
H685   H     0.17356   0.05208   0.54082   0.00000  Uiso   1.00
H686   H     0.16001   0.28126   0.54071   0.00000  Uiso   1.00
H687   H     0.17334   0.05208   0.95929   0.00000  Uiso   1.00
H688   H     0.21030   0.04217   0.80343   0.00000  Uiso   1.00
N689   N     0.16667   0.28573   0.75000   0.00000  Uiso   1.00
N690   N     0.16667   0.04760   0.75000   0.00000  Uiso   1.00
O691   O     0.10559   0.20487   0.74999   0.00000  Uiso   1.00
O692   O     0.22774   0.12846   0.75001   0.00000  Uiso   1.00
O693   O     0.22774   0.20487   0.75001   0.00000  Uiso   1.00
O694   O     0.10559   0.12846   0.74999   0.00000  Uiso   1.00
O695   O     0.16666   0.20489   0.68393   0.00000  Uiso   1.00
O696   O     0.16667   0.12844   0.81608   0.00000  Uiso   1.00
O697   O     0.16667   0.20489   0.81607   0.00000  Uiso   1.00
O698   O     0.16666   0.12844   0.68393   0.00000  Uiso   1.00
Zn699  Zn    0.16667   0.21771   0.75000   0.00000  Uiso   1.00
Zn700  Zn    0.16667   0.11563   0.75000   0.00000  Uiso   1.00
C701   C     0.42018   0.16667   0.74968   0.00000  Uiso   1.00
C702   C     0.37600   0.16669   0.74960   0.00000  Uiso   1.00
C703   C     0.52425   0.02398   0.77970   0.00000  Uiso   1.00
C704   C     0.47575   0.30935   0.72030   0.00000  Uiso   1.00
C705   C     0.47575   0.02399   0.72030   0.00000  Uiso   1.00
C706   C     0.52425   0.30935   0.77970   0.00000  Uiso   1.00
C707   C     0.50024   0.16667   0.66328   0.00000  Uiso   1.00
C708   C     0.49976   0.16666   0.83672   0.00000  Uiso   1.00
C709   C     0.50220   0.12546   0.90758   0.00000  Uiso   1.00
C710   C     0.49781   0.20787   0.59242   0.00000  Uiso   1.00
C711   C     0.49972   0.16666   0.88467   0.00000  Uiso   1.00
C712   C     0.57982   0.16666   0.75033   0.00000  Uiso   1.00
C713   C     0.50029   0.16667   0.61533   0.00000  Uiso   1.00
C714   C     0.49730   0.20786   0.90754   0.00000  Uiso   1.00
C715   C     0.50271   0.12547   0.59246   0.00000  Uiso   1.00
C716   C     0.49741   0.20818   0.95363   0.00000  Uiso   1.00
C717   C     0.50261   0.12516   0.54637   0.00000  Uiso   1.00
C718   C     0.49994   0.16667   0.97682   0.00000  Uiso   1.00
C719   C     0.50008   0.16667   0.52318   0.00000  Uiso   1.00
C720   C     0.50233   0.12515   0.95367   0.00000  Uiso   1.00
C721   C     0.49769   0.20819   0.54633   0.00000  Uiso   1.00
C722   C     0.49505   0.24926   0.97681   0.00000  Uiso   1.00
C723   C     0.49519   0.24926   0.52311   0.00000  Uiso   1.00
C724   C     0.50496   0.08408   0.52319   0.00000  Uiso   1.00
C725   C     0.38195   0.16578   0.83396   0.00000  Uiso   1.00
C726   C     0.61806   0.16754   0.66603   0.00000  Uiso   1.00
C727   C     0.62222   0.16553   0.83570   0.00000  Uiso   1.00
C728   C     0.37778   0.16780   0.66430   0.00000  Uiso   1.00
C729   C     0.50483   0.08408   0.97689   0.00000  Uiso   1.00
C730   C     0.35586   0.16619   0.79115   0.00000  Uiso   1.00
C731   C     0.64414   0.16714   0.70886   0.00000  Uiso   1.00
C732   C     0.64546   0.16613   0.79164   0.00000  Uiso   1.00
C733   C     0.35454   0.16720   0.70837   0.00000  Uiso   1.00
C734   C     0.62400   0.16664   0.75042   0.00000  Uiso   1.00
H735   H     0.50415   0.09362   0.88966   0.00000  Uiso   1.00
H736   H     0.45636   0.29116   0.69657   0.00000  Uiso   1.00
H737   H     0.45636   0.04217   0.69657   0.00000  Uiso   1.00
H738   H     0.54364   0.29116   0.80343   0.00000  Uiso   1.00
H739   H     0.40218   0.13517   0.83469   0.00000  Uiso   1.00
H740   H     0.40220   0.19636   0.83523   0.00000  Uiso   1.00
H741   H     0.36351   0.16550   0.86499   0.00000  Uiso   1.00
H742   H     0.59780   0.19812   0.66531   0.00000  Uiso   1.00
H743   H     0.63651   0.16787   0.63502   0.00000  Uiso   1.00
H744   H     0.59784   0.13693   0.66473   0.00000  Uiso   1.00
H745   H     0.58769   0.16543   0.83227   0.00000  Uiso   1.00
H746   H     0.49586   0.23971   0.61034   0.00000  Uiso   1.00
H747   H     0.63073   0.13457   0.85472   0.00000  Uiso   1.00
H748   H     0.63052   0.19612   0.85538   0.00000  Uiso   1.00
H749   H     0.41231   0.16790   0.66773   0.00000  Uiso   1.00
H750   H     0.36946   0.13723   0.64460   0.00000  Uiso   1.00
H751   H     0.36927   0.19878   0.64528   0.00000  Uiso   1.00
H752   H     0.49530   0.23970   0.88959   0.00000  Uiso   1.00
H753   H     0.50471   0.09363   0.61041   0.00000  Uiso   1.00
H754   H     0.49312   0.28125   0.95918   0.00000  Uiso   1.00
H755   H     0.50690   0.05208   0.54082   0.00000  Uiso   1.00
H756   H     0.49335   0.28126   0.54071   0.00000  Uiso   1.00
H757   H     0.50667   0.05208   0.95929   0.00000  Uiso   1.00
H758   H     0.54364   0.04217   0.80343   0.00000  Uiso   1.00
N759   N     0.50000   0.28573   0.75000   0.00000  Uiso   1.00
N760   N     0.50000   0.04760   0.75000   0.00000  Uiso   1.00
O761   O     0.43892   0.20487   0.74999   0.00000  Uiso   1.00
O762   O     0.56108   0.12846   0.75001   0.00000  Uiso   1.00
O763   O     0.56108   0.20487   0.75001   0.00000  Uiso   1.00
O764   O     0.43892   0.12846   0.74999   0.00000  Uiso   1.00
O765   O     0.49999   0.20489   0.68393   0.00000  Uiso   1.00
O766   O     0.50001   0.12844   0.81608   0.00000  Uiso   1.00
O767   O     0.50001   0.20489   0.81607   0.00000  Uiso   1.00
O768   O     0.49999   0.12844   0.68393   0.00000  Uiso   1.00
Zn769  Zn    0.50000   0.21771   0.75000   0.00000  Uiso   1.00
Zn770  Zn    0.50000   0.11563   0.75000   0.00000  Uiso   1.00
C771   C     0.75352   0.16667   0.74968   0.00000  Uiso   1.00
C772   C     0.70934   0.16669   0.74960   0.00000  Uiso   1.00
C773   C     0.85758   0.02398   0.77970   0.00000  Uiso   1.00
C774   C     0.80908   0.30935   0.72030   0.00000  Uiso   1.00
C775   C     0.80908   0.02399   0.72030   0.00000  Uiso   1.00
C776   C     0.85758   0.30935   0.77970   0.00000  Uiso   1.00
C777   C     0.83357   0.16667   0.66328   0.00000  Uiso   1.00
C778   C     0.83310   0.16666   0.83672   0.00000  Uiso   1.00
C779   C     0.83553   0.12546   0.90758   0.00000  Uiso   1.00
C780   C     0.83115   0.20787   0.59242   0.00000  Uiso   1.00
C781   C     0.83305   0.16666   0.88467   0.00000  Uiso   1.00
C782   C     0.91315   0.16666   0.75033   0.00000  Uiso   1.00
C783   C     0.83362   0.16667   0.61533   0.00000  Uiso   1.00
C784   C     0.83064   0.20786   0.90754   0.00000  Uiso   1.00
C785   C     0.83604   0.12547   0.59246   0.00000  Uiso   1.00
C786   C     0.83074   0.20818   0.95363   0.00000  Uiso   1.00
C787   C     0.83594   0.12516   0.54637   0.00000  Uiso   1.00
C788   C     0.83327   0.16667   0.97682   0.00000  Uiso   1.00
C789   C     0.83341   0.16667   0.52318   0.00000  Uiso   1.00
C790   C     0.83566   0.12515   0.95367   0.00000  Uiso   1.00
C791   C     0.83102   0.20819   0.54633   0.00000  Uiso   1.00
C792   C     0.82838   0.24926   0.97681   0.00000  Uiso   1.00
C793   C     0.82852   0.24926   0.52311   0.00000  Uiso   1.00
C794   C     0.83830   0.08408   0.52319   0.00000  Uiso   1.00
C795   C     0.71528   0.16578   0.83396   0.00000  Uiso   1.00
C796   C     0.95139   0.16754   0.66603   0.00000  Uiso   1.00
C797   C     0.95555   0.16553   0.83570   0.00000  Uiso   1.00
C798   C     0.71111   0.16780   0.66430   0.00000  Uiso   1.00
C799   C     0.83816   0.08408   0.97689   0.00000  Uiso   1.00
C800   C     0.68919   0.16619   0.79115   0.00000  Uiso   1.00
C801   C     0.97747   0.16714   0.70886   0.00000  Uiso   1.00
C802   C     0.97880   0.16613   0.79164   0.00000  Uiso   1.00
C803   C     0.68787   0.16720   0.70837   0.00000  Uiso   1.00
C804   C     0.95733   0.16664   0.75042   0.00000  Uiso   1.00
H805   H     0.83749   0.09362   0.88966   0.00000  Uiso   1.00
H806   H     0.78970   0.29116   0.69657   0.00000  Uiso   1.00
H807   H     0.78970   0.04217   0.69657   0.00000  Uiso   1.00
H808   H     0.87697   0.29116   0.80343   0.00000  Uiso   1.00
H809   H     0.73552   0.13517   0.83469   0.00000  Uiso   1.00
H810   H     0.73553   0.19636   0.83523   0.00000  Uiso   1.00
H811   H     0.69684   0.16550   0.86499   0.00000  Uiso   1.00
H812   H     0.93113   0.19812   0.66531   0.00000  Uiso   1.00
H813   H     0.96984   0.16787   0.63502   0.00000  Uiso   1.00
H814   H     0.93118   0.13693   0.66473   0.00000  Uiso   1.00
H815   H     0.92102   0.16543   0.83227   0.00000  Uiso   1.00
H816   H     0.82919   0.23971   0.61034   0.00000  Uiso   1.00
H817   H     0.96407   0.13457   0.85472   0.00000  Uiso   1.00
H818   H     0.96385   0.19612   0.85538   0.00000  Uiso   1.00
H819   H     0.74564   0.16790   0.66773   0.00000  Uiso   1.00
H820   H     0.70279   0.13723   0.64460   0.00000  Uiso   1.00
H821   H     0.70260   0.19878   0.64528   0.00000  Uiso   1.00
H822   H     0.82863   0.23970   0.88959   0.00000  Uiso   1.00
H823   H     0.83804   0.09363   0.61041   0.00000  Uiso   1.00
H824   H     0.82645   0.28125   0.95918   0.00000  Uiso   1.00
H825   H     0.84023   0.05208   0.54082   0.00000  Uiso   1.00
H826   H     0.82668   0.28126   0.54071   0.00000  Uiso   1.00
H827   H     0.84000   0.05208   0.95929   0.00000  Uiso   1.00
H828   H     0.87697   0.04217   0.80343   0.00000  Uiso   1.00
N829   N     0.83333   0.28573   0.75000   0.00000  Uiso   1.00
N830   N     0.83333   0.04760   0.75000   0.00000  Uiso   1.00
O831   O     0.77226   0.20487   0.74999   0.00000  Uiso   1.00
O832   O     0.89441   0.12846   0.75001   0.00000  Uiso   1.00
O833   O     0.89441   0.20487   0.75001   0.00000  Uiso   1.00
O834   O     0.77226   0.12846   0.74999   0.00000  Uiso   1.00
O835   O     0.83333   0.20489   0.68393   0.00000  Uiso   1.00
O836   O     0.83334   0.12844   0.81608   0.00000  Uiso   1.00
O837   O     0.83334   0.20489   0.81607   0.00000  Uiso   1.00
O838   O     0.83333   0.12844   0.68393   0.00000  Uiso   1.00
Zn839  Zn    0.83333   0.21771   0.75000   0.00000  Uiso   1.00
Zn840  Zn    0.83333   0.11563   0.75000   0.00000  Uiso   1.00
C841   C     0.08685   0.50000   0.74968   0.00000  Uiso   1.00
C842   C     0.04267   0.50002   0.74960   0.00000  Uiso   1.00
C843   C     0.19092   0.35732   0.77970   0.00000  Uiso   1.00
C844   C     0.14242   0.64268   0.72030   0.00000  Uiso   1.00
C845   C     0.14242   0.35732   0.72030   0.00000  Uiso   1.00
C846   C     0.19092   0.64268   0.77970   0.00000  Uiso   1.00
C847   C     0.16691   0.50000   0.66328   0.00000  Uiso   1.00
C848   C     0.16643   0.50000   0.83672   0.00000  Uiso   1.00
C849   C     0.16887   0.45879   0.90758   0.00000  Uiso   1.00
C850   C     0.16448   0.54121   0.59242   0.00000  Uiso   1.00
C851   C     0.16639   0.49999   0.88467   0.00000  Uiso   1.00
C852   C     0.24648   0.50000   0.75033   0.00000  Uiso   1.00
C853   C     0.16695   0.50001   0.61533   0.00000  Uiso   1.00
C854   C     0.16397   0.54119   0.90754   0.00000  Uiso   1.00
C855   C     0.16937   0.45881   0.59246   0.00000  Uiso   1.00
C856   C     0.16408   0.54151   0.95363   0.00000  Uiso   1.00
C857   C     0.16927   0.45849   0.54637   0.00000  Uiso   1.00
C858   C     0.16660   0.50000   0.97682   0.00000  Uiso   1.00
C859   C     0.16675   0.50000   0.52318   0.00000  Uiso   1.00
C860   C     0.16899   0.45848   0.95367   0.00000  Uiso   1.00
C861   C     0.16436   0.54152   0.54633   0.00000  Uiso   1.00
C862   C     0.16172   0.58259   0.97681   0.00000  Uiso   1.00
C863   C     0.16186   0.58259   0.52311   0.00000  Uiso   1.00
C864   C     0.17163   0.41741   0.52319   0.00000  Uiso   1.00
C865   C     0.04862   0.49911   0.83396   0.00000  Uiso   1.00
C866   C     0.28473   0.50087   0.66603   0.00000  Uiso   1.00
C867   C     0.28889   0.49886   0.83570   0.00000  Uiso   1.00
C868   C     0.04444   0.50114   0.66430   0.00000  Uiso   1.00
C869   C     0.17149   0.41741   0.97689   0.00000  Uiso   1.00
C870   C     0.02253   0.49952   0.79115   0.00000  Uiso   1.00
C871   C     0.31081   0.50047   0.70886   0.00000  Uiso   1.00
C872   C     0.31213   0.49946   0.79164   0.00000  Uiso   1.00
C873   C     0.02120   0.50053   0.70837   0.00000  Uiso   1.00
C874   C     0.29066   0.49998   0.75042   0.00000  Uiso   1.00
H875   H     0.17082   0.42696   0.88966   0.00000  Uiso   1.00
H876   H     0.12303   0.62450   0.69657   0.00000  Uiso   1.00
H877   H     0.12303   0.37551   0.69657   0.00000  Uiso   1.00
H878   H     0.21031   0.62449   0.80343   0.00000  Uiso   1.00
H879   H     0.06885   0.46850   0.83469   0.00000  Uiso   1.00
H880   H     0.06887   0.52970   0.83523   0.00000  Uiso   1.00
H881   H     0.03018   0.49884   0.86499   0.00000  Uiso   1.00
H882   H     0.26446   0.53145   0.66531   0.00000  Uiso   1.00
H883   H     0.30317   0.50120   0.63502   0.00000  Uiso   1.00
H884   H     0.26451   0.47026   0.66473   0.00000  Uiso   1.00
H885   H     0.25436   0.49877   0.83227   0.00000  Uiso   1.00
H886   H     0.16253   0.57305   0.61034   0.00000  Uiso   1.00
H887   H     0.29740   0.46790   0.85472   0.00000  Uiso   1.00
H888   H     0.29719   0.52945   0.85538   0.00000  Uiso   1.00
H889   H     0.07898   0.50123   0.66773   0.00000  Uiso   1.00
H890   H     0.03613   0.47056   0.64460   0.00000  Uiso   1.00
H891   H     0.03593   0.53211   0.64528   0.00000  Uiso   1.00
H892   H     0.16197   0.57303   0.88959   0.00000  Uiso   1.00
H893   H     0.17137   0.42697   0.61041   0.00000  Uiso   1.00
H894   H     0.15979   0.61459   0.95918   0.00000  Uiso   1.00
H895   H     0.17356   0.38541   0.54082   0.00000  Uiso   1.00
H896   H     0.16001   0.61459   0.54071   0.00000  Uiso   1.00
H897   H     0.17334   0.38541   0.95929   0.00000  Uiso   1.00
H898   H     0.21030   0.37550   0.80343   0.00000  Uiso   1.00
N899   N     0.16667   0.61907   0.75000   0.00000  Uiso   1.00
N900   N     0.16667   0.38093   0.75000   0.00000  Uiso   1.00
O901   O     0.10559   0.53821   0.74999   0.00000  Uiso   1.00
O902   O     0.22774   0.46179   0.75001   0.00000  Uiso   1.00
O903   O     0.22774   0.53821   0.75001   0.00000  Uiso   1.00
O904   O     0.10559   0.46179   0.74999   0.00000  Uiso   1.00
O905   O     0.16666   0.53823   0.68393   0.00000  Uiso   1.00
O906   O     0.16667   0.46177   0.81608   0.00000  Uiso   1.00
O907   O     0.16667   0.53823   0.81607   0.00000  Uiso   1.00
O908   O     0.16666   0.46177   0.68393   0.00000  Uiso   1.00
Zn909  Zn    0.16667   0.55104   0.75000   0.00000  Uiso   1.00
Zn910  Zn    0.16667   0.44896   0.75000   0.00000  Uiso   1.00
C911   C     0.42018   0.50000   0.74968   0.00000  Uiso   1.00
C912   C     0.37600   0.50002   0.74960   0.00000  Uiso   1.00
C913   C     0.52425   0.35732   0.77970   0.00000  Uiso   1.00
C914   C     0.47575   0.64268   0.72030   0.00000  Uiso   1.00
C915   C     0.47575   0.35732   0.72030   0.00000  Uiso   1.00
C916   C     0.52425   0.64268   0.77970   0.00000  Uiso   1.00
C917   C     0.50024   0.50000   0.66328   0.00000  Uiso   1.00
C918   C     0.49976   0.50000   0.83672   0.00000  Uiso   1.00
C919   C     0.50220   0.45879   0.90758   0.00000  Uiso   1.00
C920   C     0.49781   0.54121   0.59242   0.00000  Uiso   1.00
C921   C     0.49972   0.49999   0.88467   0.00000  Uiso   1.00
C922   C     0.57982   0.50000   0.75033   0.00000  Uiso   1.00
C923   C     0.50029   0.50001   0.61533   0.00000  Uiso   1.00
C924   C     0.49730   0.54119   0.90754   0.00000  Uiso   1.00
C925   C     0.50271   0.45881   0.59246   0.00000  Uiso   1.00
C926   C     0.49741   0.54151   0.95363   0.00000  Uiso   1.00
C927   C     0.50261   0.45849   0.54637   0.00000  Uiso   1.00
C928   C     0.49994   0.50000   0.97682   0.00000  Uiso   1.00
C929   C     0.50008   0.50000   0.52318   0.00000  Uiso   1.00
C930   C     0.50233   0.45848   0.95367   0.00000  Uiso   1.00
C931   C     0.49769   0.54152   0.54633   0.00000  Uiso   1.00
C932   C     0.49505   0.58259   0.97681   0.00000  Uiso   1.00
C933   C     0.49519   0.58259   0.52311   0.00000  Uiso   1.00
C934   C     0.50496   0.41741   0.52319   0.00000  Uiso   1.00
C935   C     0.38195   0.49911   0.83396   0.00000  Uiso   1.00
C936   C     0.61806   0.50087   0.66603   0.00000  Uiso   1.00
C937   C     0.62222   0.49886   0.83570   0.00000  Uiso   1.00
C938   C     0.37778   0.50114   0.66430   0.00000  Uiso   1.00
C939   C     0.50483   0.41741   0.97689   0.00000  Uiso   1.00
C940   C     0.35586   0.49952   0.79115   0.00000  Uiso   1.00
C941   C     0.64414   0.50047   0.70886   0.00000  Uiso   1.00
C942   C     0.64546   0.49946   0.79164   0.00000  Uiso   1.00
C943   C     0.35454   0.50053   0.70837   0.00000  Uiso   1.00
C944   C     0.62400   0.49998   0.75042   0.00000  Uiso   1.00
H945   H     0.50415   0.42696   0.88966   0.00000  Uiso   1.00
H946   H     0.45636   0.62450   0.69657   0.00000  Uiso   1.00
H947   H     0.45636   0.37551   0.69657   0.00000  Uiso   1.00
H948   H     0.54364   0.62449   0.80343   0.00000  Uiso   1.00
H949   H     0.40218   0.46850   0.83469   0.00000  Uiso   1.00
H950   H     0.40220   0.52970   0.83523   0.00000  Uiso   1.00
H951   H     0.36351   0.49884   0.86499   0.00000  Uiso   1.00
H952   H     0.59780   0.53145   0.66531   0.00000  Uiso   1.00
H953   H     0.63651   0.50120   0.63502   0.00000  Uiso   1.00
H954   H     0.59784   0.47026   0.66473   0.00000  Uiso   1.00
H955   H     0.58769   0.49877   0.83227   0.00000  Uiso   1.00
H956   H     0.49586   0.57305   0.61034   0.00000  Uiso   1.00
H957   H     0.63073   0.46790   0.85472   0.00000  Uiso   1.00
H958   H     0.63052   0.52945   0.85538   0.00000  Uiso   1.00
H959   H     0.41231   0.50123   0.66773   0.00000  Uiso   1.00
H960   H     0.36946   0.47056   0.64460   0.00000  Uiso   1.00
H961   H     0.36927   0.53211   0.64528   0.00000  Uiso   1.00
H962   H     0.49530   0.57303   0.88959   0.00000  Uiso   1.00
H963   H     0.50471   0.42697   0.61041   0.00000  Uiso   1.00
H964   H     0.49312   0.61459   0.95918   0.00000  Uiso   1.00
H965   H     0.50690   0.38541   0.54082   0.00000  Uiso   1.00
H966   H     0.49335   0.61459   0.54071   0.00000  Uiso   1.00
H967   H     0.50667   0.38541   0.95929   0.00000  Uiso   1.00
H968   H     0.54364   0.37550   0.80343   0.00000  Uiso   1.00
N969   N     0.50000   0.61907   0.75000   0.00000  Uiso   1.00
N970   N     0.50000   0.38093   0.75000   0.00000  Uiso   1.00
O971   O     0.43892   0.53821   0.74999   0.00000  Uiso   1.00
O972   O     0.56108   0.46179   0.75001   0.00000  Uiso   1.00
O973   O     0.56108   0.53821   0.75001   0.00000  Uiso   1.00
O974   O     0.43892   0.46179   0.74999   0.00000  Uiso   1.00
O975   O     0.49999   0.53823   0.68393   0.00000  Uiso   1.00
O976   O     0.50001   0.46177   0.81608   0.00000  Uiso   1.00
O977   O     0.50001   0.53823   0.81607   0.00000  Uiso   1.00
O978   O     0.49999   0.46177   0.68393   0.00000  Uiso   1.00
Zn979  Zn    0.50000   0.55104   0.75000   0.00000  Uiso   1.00
Zn980  Zn    0.50000   0.44896   0.75000   0.00000  Uiso   1.00
C981   C     0.75352   0.50000   0.74968   0.00000  Uiso   1.00
C982   C     0.70934   0.50002   0.74960   0.00000  Uiso   1.00
C983   C     0.85758   0.35732   0.77970   0.00000  Uiso   1.00
C984   C     0.80908   0.64268   0.72030   0.00000  Uiso   1.00
C985   C     0.80908   0.35732   0.72030   0.00000  Uiso   1.00
C986   C     0.85758   0.64268   0.77970   0.00000  Uiso   1.00
C987   C     0.83357   0.50000   0.66328   0.00000  Uiso   1.00
C988   C     0.83310   0.50000   0.83672   0.00000  Uiso   1.00
C989   C     0.83553   0.45879   0.90758   0.00000  Uiso   1.00
C990   C     0.83115   0.54121   0.59242   0.00000  Uiso   1.00
C991   C     0.83305   0.49999   0.88467   0.00000  Uiso   1.00
C992   C     0.91315   0.50000   0.75033   0.00000  Uiso   1.00
C993   C     0.83362   0.50001   0.61533   0.00000  Uiso   1.00
C994   C     0.83064   0.54119   0.90754   0.00000  Uiso   1.00
C995   C     0.83604   0.45881   0.59246   0.00000  Uiso   1.00
C996   C     0.83074   0.54151   0.95363   0.00000  Uiso   1.00
C997   C     0.83594   0.45849   0.54637   0.00000  Uiso   1.00
C998   C     0.83327   0.50000   0.97682   0.00000  Uiso   1.00
C999   C     0.83341   0.50000   0.52318   0.00000  Uiso   1.00
C1000  C     0.83566   0.45848   0.95367   0.00000  Uiso   1.00
C1001  C     0.83102   0.54152   0.54633   0.00000  Uiso   1.00
C1002  C     0.82838   0.58259   0.97681   0.00000  Uiso   1.00
C1003  C     0.82852   0.58259   0.52311   0.00000  Uiso   1.00
C1004  C     0.83830   0.41741   0.52319   0.00000  Uiso   1.00
C1005  C     0.71528   0.49911   0.83396   0.00000  Uiso   1.00
C1006  C     0.95139   0.50087   0.66603   0.00000  Uiso   1.00
C1007  C     0.95555   0.49886   0.83570   0.00000  Uiso   1.00
C1008  C     0.71111   0.50114   0.66430   0.00000  Uiso   1.00
C1009  C     0.83816   0.41741   0.97689   0.00000  Uiso   1.00
C1010  C     0.68919   0.49952   0.79115   0.00000  Uiso   1.00
C1011  C     0.97747   0.50047   0.70886   0.00000  Uiso   1.00
C1012  C     0.97880   0.49946   0.79164   0.00000  Uiso   1.00
C1013  C     0.68787   0.50053   0.70837   0.00000  Uiso   1.00
C1014  C     0.95733   0.49998   0.75042   0.00000  Uiso   1.00
H1015  H     0.83749   0.42696   0.88966   0.00000  Uiso   1.00
H1016  H     0.78970   0.62450   0.69657   0.00000  Uiso   1.00
H1017  H     0.78970   0.37551   0.69657   0.00000  Uiso   1.00
H1018  H     0.87697   0.62449   0.80343   0.00000  Uiso   1.00
H1019  H     0.73552   0.46850   0.83469   0.00000  Uiso   1.00
H1020  H     0.73553   0.52970   0.83523   0.00000  Uiso   1.00
H1021  H     0.69684   0.49884   0.86499   0.00000  Uiso   1.00
H1022  H     0.93113   0.53145   0.66531   0.00000  Uiso   1.00
H1023  H     0.96984   0.50120   0.63502   0.00000  Uiso   1.00
H1024  H     0.93118   0.47026   0.66473   0.00000  Uiso   1.00
H1025  H     0.92102   0.49877   0.83227   0.00000  Uiso   1.00
H1026  H     0.82919   0.57305   0.61034   0.00000  Uiso   1.00
H1027  H     0.96407   0.46790   0.85472   0.00000  Uiso   1.00
H1028  H     0.96385   0.52945   0.85538   0.00000  Uiso   1.00
H1029  H     0.74564   0.50123   0.66773   0.00000  Uiso   1.00
H1030  H     0.70279   0.47056   0.64460   0.00000  Uiso   1.00
H1031  H     0.70260   0.53211   0.64528   0.00000  Uiso   1.00
H1032  H     0.82863   0.57303   0.88959   0.00000  Uiso   1.00
H1033  H     0.83804   0.42697   0.61041   0.00000  Uiso   1.00
H1034  H     0.82645   0.61459   0.95918   0.00000  Uiso   1.00
H1035  H     0.84023   0.38541   0.54082   0.00000  Uiso   1.00
H1036  H     0.82668   0.61459   0.54071   0.00000  Uiso   1.00
H1037  H     0.84000   0.38541   0.95929   0.00000  Uiso   1.00
H1038  H     0.87697   0.37550   0.80343   0.00000  Uiso   1.00
N1039  N     0.83333   0.61907   0.75000   0.00000  Uiso   1.00
N1040  N     0.83333   0.38093   0.75000   0.00000  Uiso   1.00
O1041  O     0.77226   0.53821   0.74999   0.00000  Uiso   1.00
O1042  O     0.89441   0.46179   0.75001   0.00000  Uiso   1.00
O1043  O     0.89441   0.53821   0.75001   0.00000  Uiso   1.00
O1044  O     0.77226   0.46179   0.74999   0.00000  Uiso   1.00
O1045  O     0.83333   0.53823   0.68393   0.00000  Uiso   1.00
O1046  O     0.83334   0.46177   0.81608   0.00000  Uiso   1.00
O1047  O     0.83334   0.53823   0.81607   0.00000  Uiso   1.00
O1048  O     0.83333   0.46177   0.68393   0.00000  Uiso   1.00
Zn1049 Zn    0.83333   0.55104   0.75000   0.00000  Uiso   1.00
Zn1050 Zn    0.83333   0.44896   0.75000   0.00000  Uiso   1.00
C1051  C     0.08685   0.83334   0.74968   0.00000  Uiso   1.00
C1052  C     0.04267   0.83336   0.74960   0.00000  Uiso   1.00
C1053  C     0.19092   0.69065   0.77970   0.00000  Uiso   1.00
C1054  C     0.14242   0.97602   0.72030   0.00000  Uiso   1.00
C1055  C     0.14242   0.69065   0.72030   0.00000  Uiso   1.00
C1056  C     0.19092   0.97601   0.77970   0.00000  Uiso   1.00
C1057  C     0.16691   0.83334   0.66328   0.00000  Uiso   1.00
C1058  C     0.16643   0.83333   0.83672   0.00000  Uiso   1.00
C1059  C     0.16887   0.79213   0.90758   0.00000  Uiso   1.00
C1060  C     0.16448   0.87454   0.59242   0.00000  Uiso   1.00
C1061  C     0.16639   0.83333   0.88467   0.00000  Uiso   1.00
C1062  C     0.24648   0.83333   0.75033   0.00000  Uiso   1.00
C1063  C     0.16695   0.83334   0.61533   0.00000  Uiso   1.00
C1064  C     0.16397   0.87453   0.90754   0.00000  Uiso   1.00
C1065  C     0.16937   0.79214   0.59246   0.00000  Uiso   1.00
C1066  C     0.16408   0.87485   0.95363   0.00000  Uiso   1.00
C1067  C     0.16927   0.79182   0.54637   0.00000  Uiso   1.00
C1068  C     0.16660   0.83333   0.97682   0.00000  Uiso   1.00
C1069  C     0.16675   0.83334   0.52318   0.00000  Uiso   1.00
C1070  C     0.16899   0.79182   0.95367   0.00000  Uiso   1.00
C1071  C     0.16436   0.87485   0.54633   0.00000  Uiso   1.00
C1072  C     0.16172   0.91592   0.97681   0.00000  Uiso   1.00
C1073  C     0.16186   0.91593   0.52311   0.00000  Uiso   1.00
C1074  C     0.17163   0.75075   0.52319   0.00000  Uiso   1.00
C1075  C     0.04862   0.83244   0.83396   0.00000  Uiso   1.00
C1076  C     0.28473   0.83420   0.66603   0.00000  Uiso   1.00
C1077  C     0.28889   0.83220   0.83570   0.00000  Uiso   1.00
C1078  C     0.04444   0.83447   0.66430   0.00000  Uiso   1.00
C1079  C     0.17149   0.75074   0.97689   0.00000  Uiso   1.00
C1080  C     0.02253   0.83285   0.79115   0.00000  Uiso   1.00
C1081  C     0.31081   0.83380   0.70886   0.00000  Uiso   1.00
C1082  C     0.31213   0.83279   0.79164   0.00000  Uiso   1.00
C1083  C     0.02120   0.83387   0.70837   0.00000  Uiso   1.00
C1084  C     0.29066   0.83331   0.75042   0.00000  Uiso   1.00
H1085  H     0.17082   0.76029   0.88966   0.00000  Uiso   1.00
H1086  H     0.12303   0.95783   0.69657   0.00000  Uiso   1.00
H1087  H     0.12303   0.70884   0.69657   0.00000  Uiso   1.00
H1088  H     0.21031   0.95782   0.80343   0.00000  Uiso   1.00
H1089  H     0.06885   0.80184   0.83469   0.00000  Uiso   1.00
H1090  H     0.06887   0.86303   0.83523   0.00000  Uiso   1.00
H1091  H     0.03018   0.83217   0.86499   0.00000  Uiso   1.00
H1092  H     0.26446   0.86478   0.66531   0.00000  Uiso   1.00
H1093  H     0.30317   0.83453   0.63502   0.00000  Uiso   1.00
H1094  H     0.26451   0.80360   0.66473   0.00000  Uiso   1.00
H1095  H     0.25436   0.83210   0.83227   0.00000  Uiso   1.00
H1096  H     0.16253   0.90638   0.61034   0.00000  Uiso   1.00
H1097  H     0.29740   0.80124   0.85472   0.00000  Uiso   1.00
H1098  H     0.29719   0.86279   0.85538   0.00000  Uiso   1.00
H1099  H     0.07898   0.83457   0.66773   0.00000  Uiso   1.00
H1100  H     0.03613   0.80390   0.64460   0.00000  Uiso   1.00
H1101  H     0.03593   0.86545   0.64528   0.00000  Uiso   1.00
H1102  H     0.16197   0.90637   0.88959   0.00000  Uiso   1.00
H1103  H     0.17137   0.76030   0.61041   0.00000  Uiso   1.00
H1104  H     0.15979   0.94792   0.95918   0.00000  Uiso   1.00
H1105  H     0.17356   0.71875   0.54082   0.00000  Uiso   1.00
H1106  H     0.16001   0.94793   0.54071   0.00000  Uiso   1.00
H1107  H     0.17334   0.71874   0.95929   0.00000  Uiso   1.00
H1108  H     0.21030   0.70884   0.80343   0.00000  Uiso   1.00
N1109  N     0.16667   0.95240   0.75000   0.00000  Uiso   1.00
N1110  N     0.16667   0.71427   0.75000   0.00000  Uiso   1.00
O1111  O     0.10559   0.87154   0.74999   0.00000  Uiso   1.00
O1112  O     0.22774   0.79513   0.75001   0.00000  Uiso   1.00
O1113  O     0.22774   0.87154   0.75001   0.00000  Uiso   1.00
O1114  O     0.10559   0.79513   0.74999   0.00000  Uiso   1.00
O1115  O     0.16666   0.87156   0.68393   0.00000  Uiso   1.00
O1116  O     0.16667   0.79511   0.81608   0.00000  Uiso   1.00
O1117  O     0.16667   0.87156   0.81607   0.00000  Uiso   1.00
O1118  O     0.16666   0.79511   0.68393   0.00000  Uiso   1.00
Zn1119 Zn    0.16667   0.88437   0.75000   0.00000  Uiso   1.00
Zn1120 Zn    0.16667   0.78229   0.75000   0.00000  Uiso   1.00
C1121  C     0.42018   0.83334   0.74968   0.00000  Uiso   1.00
C1122  C     0.37600   0.83336   0.74960   0.00000  Uiso   1.00
C1123  C     0.52425   0.69065   0.77970   0.00000  Uiso   1.00
C1124  C     0.47575   0.97602   0.72030   0.00000  Uiso   1.00
C1125  C     0.47575   0.69065   0.72030   0.00000  Uiso   1.00
C1126  C     0.52425   0.97601   0.77970   0.00000  Uiso   1.00
C1127  C     0.50024   0.83334   0.66328   0.00000  Uiso   1.00
C1128  C     0.49976   0.83333   0.83672   0.00000  Uiso   1.00
C1129  C     0.50220   0.79213   0.90758   0.00000  Uiso   1.00
C1130  C     0.49781   0.87454   0.59242   0.00000  Uiso   1.00
C1131  C     0.49972   0.83333   0.88467   0.00000  Uiso   1.00
C1132  C     0.57982   0.83333   0.75033   0.00000  Uiso   1.00
C1133  C     0.50029   0.83334   0.61533   0.00000  Uiso   1.00
C1134  C     0.49730   0.87453   0.90754   0.00000  Uiso   1.00
C1135  C     0.50271   0.79214   0.59246   0.00000  Uiso   1.00
C1136  C     0.49741   0.87485   0.95363   0.00000  Uiso   1.00
C1137  C     0.50261   0.79182   0.54637   0.00000  Uiso   1.00
C1138  C     0.49994   0.83333   0.97682   0.00000  Uiso   1.00
C1139  C     0.50008   0.83334   0.52318   0.00000  Uiso   1.00
C1140  C     0.50233   0.79182   0.95367   0.00000  Uiso   1.00
C1141  C     0.49769   0.87485   0.54633   0.00000  Uiso   1.00
C1142  C     0.49505   0.91592   0.97681   0.00000  Uiso   1.00
C1143  C     0.49519   0.91593   0.52311   0.00000  Uiso   1.00
C1144  C     0.50496   0.75075   0.52319   0.00000  Uiso   1.00
C1145  C     0.38195   0.83244   0.83396   0.00000  Uiso   1.00
C1146  C     0.61806   0.83420   0.66603   0.00000  Uiso   1.00
C1147  C     0.62222   0.83220   0.83570   0.00000  Uiso   1.00
C1148  C     0.37778   0.83447   0.66430   0.00000  Uiso   1.00
C1149  C     0.50483   0.75074   0.97689   0.00000  Uiso   1.00
C1150  C     0.35586   0.83285   0.79115   0.00000  Uiso   1.00
C1151  C     0.64414   0.83380   0.70886   0.00000  Uiso   1.00
C1152  C     0.64546   0.83279   0.79164   0.00000  Uiso   1.00
C1153  C     0.35454   0.83387   0.70837   0.00000  Uiso   1.00
C1154  C     0.62400   0.83331   0.75042   0.00000  Uiso   1.00
H1155  H     0.50415   0.76029   0.88966   0.00000  Uiso   1.00
H1156  H     0.45636   0.95783   0.69657   0.00000  Uiso   1.00
H1157  H     0.45636   0.70884   0.69657   0.00000  Uiso   1.00
H1158  H     0.54364   0.95782   0.80343   0.00000  Uiso   1.00
H1159  H     0.40218   0.80184   0.83469   0.00000  Uiso   1.00
H1160  H     0.40220   0.86303   0.83523   0.00000  Uiso   1.00
H1161  H     0.36351   0.83217   0.86499   0.00000  Uiso   1.00
H1162  H     0.59780   0.86478   0.66531   0.00000  Uiso   1.00
H1163  H     0.63651   0.83453   0.63502   0.00000  Uiso   1.00
H1164  H     0.59784   0.80360   0.66473   0.00000  Uiso   1.00
H1165  H     0.58769   0.83210   0.83227   0.00000  Uiso   1.00
H1166  H     0.49586   0.90638   0.61034   0.00000  Uiso   1.00
H1167  H     0.63073   0.80124   0.85472   0.00000  Uiso   1.00
H1168  H     0.63052   0.86279   0.85538   0.00000  Uiso   1.00
H1169  H     0.41231   0.83457   0.66773   0.00000  Uiso   1.00
H1170  H     0.36946   0.80390   0.64460   0.00000  Uiso   1.00
H1171  H     0.36927   0.86545   0.64528   0.00000  Uiso   1.00
H1172  H     0.49530   0.90637   0.88959   0.00000  Uiso   1.00
H1173  H     0.50471   0.76030   0.61041   0.00000  Uiso   1.00
H1174  H     0.49312   0.94792   0.95918   0.00000  Uiso   1.00
H1175  H     0.50690   0.71875   0.54082   0.00000  Uiso   1.00
H1176  H     0.49335   0.94793   0.54071   0.00000  Uiso   1.00
H1177  H     0.50667   0.71874   0.95929   0.00000  Uiso   1.00
H1178  H     0.54364   0.70884   0.80343   0.00000  Uiso   1.00
N1179  N     0.50000   0.95240   0.75000   0.00000  Uiso   1.00
N1180  N     0.50000   0.71427   0.75000   0.00000  Uiso   1.00
O1181  O     0.43892   0.87154   0.74999   0.00000  Uiso   1.00
O1182  O     0.56108   0.79513   0.75001   0.00000  Uiso   1.00
O1183  O     0.56108   0.87154   0.75001   0.00000  Uiso   1.00
O1184  O     0.43892   0.79513   0.74999   0.00000  Uiso   1.00
O1185  O     0.49999   0.87156   0.68393   0.00000  Uiso   1.00
O1186  O     0.50001   0.79511   0.81608   0.00000  Uiso   1.00
O1187  O     0.50001   0.87156   0.81607   0.00000  Uiso   1.00
O1188  O     0.49999   0.79511   0.68393   0.00000  Uiso   1.00
Zn1189 Zn    0.50000   0.88437   0.75000   0.00000  Uiso   1.00
Zn1190 Zn    0.50000   0.78229   0.75000   0.00000  Uiso   1.00
C1191  C     0.75352   0.83334   0.74968   0.00000  Uiso   1.00
C1192  C     0.70934   0.83336   0.74960   0.00000  Uiso   1.00
C1193  C     0.85758   0.69065   0.77970   0.00000  Uiso   1.00
C1194  C     0.80908   0.97602   0.72030   0.00000  Uiso   1.00
C1195  C     0.80908   0.69065   0.72030   0.00000  Uiso   1.00
C1196  C     0.85758   0.97601   0.77970   0.00000  Uiso   1.00
C1197  C     0.83357   0.83334   0.66328   0.00000  Uiso   1.00
C1198  C     0.83310   0.83333   0.83672   0.00000  Uiso   1.00
C1199  C     0.83553   0.79213   0.90758   0.00000  Uiso   1.00
C1200  C     0.83115   0.87454   0.59242   0.00000  Uiso   1.00
C1201  C     0.83305   0.83333   0.88467   0.00000  Uiso   1.00
C1202  C     0.91315   0.83333   0.75033   0.00000  Uiso   1.00
C1203  C     0.83362   0.83334   0.61533   0.00000  Uiso   1.00
C1204  C     0.83064   0.87453   0.90754   0.00000  Uiso   1.00
C1205  C     0.83604   0.79214   0.59246   0.00000  Uiso   1.00
C1206  C     0.83074   0.87485   0.95363   0.00000  Uiso   1.00
C1207  C     0.83594   0.79182   0.54637   0.00000  Uiso   1.00
C1208  C     0.83327   0.83333   0.97682   0.00000  Uiso   1.00
C1209  C     0.83341   0.83334   0.52318   0.00000  Uiso   1.00
C1210  C     0.83566   0.79182   0.95367   0.00000  Uiso   1.00
C1211  C     0.83102   0.87485   0.54633   0.00000  Uiso   1.00
C1212  C     0.82838   0.91592   0.97681   0.00000  Uiso   1.00
C1213  C     0.82852   0.91593   0.52311   0.00000  Uiso   1.00
C1214  C     0.83830   0.75075   0.52319   0.00000  Uiso   1.00
C1215  C     0.71528   0.83244   0.83396   0.00000  Uiso   1.00
C1216  C     0.95139   0.83420   0.66603   0.00000  Uiso   1.00
C1217  C     0.95555   0.83220   0.83570   0.00000  Uiso   1.00
C1218  C     0.71111   0.83447   0.66430   0.00000  Uiso   1.00
C1219  C     0.83816   0.75074   0.97689   0.00000  Uiso   1.00
C1220  C     0.68919   0.83285   0.79115   0.00000  Uiso   1.00
C1221  C     0.97747   0.83380   0.70886   0.00000  Uiso   1.00
C1222  C     0.97880   0.83279   0.79164   0.00000  Uiso   1.00
C1223  C     0.68787   0.83387   0.70837   0.00000  Uiso   1.00
C1224  C     0.95733   0.83331   0.75042   0.00000  Uiso   1.00
H1225  H     0.83749   0.76029   0.88966   0.00000  Uiso   1.00
H1226  H     0.78970   0.95783   0.69657   0.00000  Uiso   1.00
H1227  H     0.78970   0.70884   0.69657   0.00000  Uiso   1.00
H1228  H     0.87697   0.95782   0.80343   0.00000  Uiso   1.00
H1229  H     0.73552   0.80184   0.83469   0.00000  Uiso   1.00
H1230  H     0.73553   0.86303   0.83523   0.00000  Uiso   1.00
H1231  H     0.69684   0.83217   0.86499   0.00000  Uiso   1.00
H1232  H     0.93113   0.86478   0.66531   0.00000  Uiso   1.00
H1233  H     0.96984   0.83453   0.63502   0.00000  Uiso   1.00
H1234  H     0.93118   0.80360   0.66473   0.00000  Uiso   1.00
H1235  H     0.92102   0.83210   0.83227   0.00000  Uiso   1.00
H1236  H     0.82919   0.90638   0.61034   0.00000  Uiso   1.00
H1237  H     0.96407   0.80124   0.85472   0.00000  Uiso   1.00
H1238  H     0.96385   0.86279   0.85538   0.00000  Uiso   1.00
H1239  H     0.74564   0.83457   0.66773   0.00000  Uiso   1.00
H1240  H     0.70279   0.80390   0.64460   0.00000  Uiso   1.00
H1241  H     0.70260   0.86545   0.64528   0.00000  Uiso   1.00
H1242  H     0.82863   0.90637   0.88959   0.00000  Uiso   1.00
H1243  H     0.83804   0.76030   0.61041   0.00000  Uiso   1.00
H1244  H     0.82645   0.94792   0.95918   0.00000  Uiso   1.00
H1245  H     0.84023   0.71875   0.54082   0.00000  Uiso   1.00
H1246  H     0.82668   0.94793   0.54071   0.00000  Uiso   1.00
H1247  H     0.84000   0.71874   0.95929   0.00000  Uiso   1.00
H1248  H     0.87697   0.70884   0.80343   0.00000  Uiso   1.00
N1249  N     0.83333   0.95240   0.75000   0.00000  Uiso   1.00
N1250  N     0.83333   0.71427   0.75000   0.00000  Uiso   1.00
O1251  O     0.77226   0.87154   0.74999   0.00000  Uiso   1.00
O1252  O     0.89441   0.79513   0.75001   0.00000  Uiso   1.00
O1253  O     0.89441   0.87154   0.75001   0.00000  Uiso   1.00
O1254  O     0.77226   0.79513   0.74999   0.00000  Uiso   1.00
O1255  O     0.83333   0.87156   0.68393   0.00000  Uiso   1.00
O1256  O     0.83334   0.79511   0.81608   0.00000  Uiso   1.00
O1257  O     0.83334   0.87156   0.81607   0.00000  Uiso   1.00
O1258  O     0.83333   0.79511   0.68393   0.00000  Uiso   1.00
Zn1259 Zn    0.83333   0.88437   0.75000   0.00000  Uiso   1.00
Zn1260 Zn    0.83333   0.78229   0.75000   0.00000  Uiso   1.00
loop_
_geom_bond_atom_site_label_1
_geom_bond_atom_site_label_2
_geom_bond_distance
_geom_bond_site_symmetry_2
_ccdc_geom_bond_type
C1     C2      1.408   .     S
C1     O64     1.276   .     A
C1     O61     1.276   .     A
C2     C30     1.407   .     A
C2     C33     1.409   .     A
C3     N60     1.366   .     A
C3     H58     1.082   .     S
C3     C426    1.416   1_545 S
C4     N59     1.366   .     A
C4     H36     1.082   .     S
C4     C215    1.416   .     S
C5     N60     1.366   .     A
C5     H37     1.082   .     S
C5     C424    1.416   1_545 S
C6     N59     1.366   .     A
C6     H38     1.082   .     S
C6     C213    1.416   .     S
C7     O65     1.287   .     A
C7     C13     1.439   .     S
C7     O68     1.287   .     A
C8     O66     1.287   .     A
C8     C11     1.439   .     S
C8     O67     1.287   .     A
C9     C20     1.383   .     A
C9     C11     1.399   .     A
C9     H35     1.085   .     S
C10    C21     1.383   .     A
C10    H46     1.085   .     S
C10    C13     1.399   .     A
C11    C14     1.399   .     A
C12    O62     1.276   .     A
C12    O63     1.276   .     A
C12    C34     1.408   .     S
C13    C15     1.399   .     A
C14    C16     1.383   .     A
C14    H52     1.085   .     S
C15    H53     1.085   .     S
C15    C17     1.383   .     A
C16    C18     1.411   .     A
C16    C22     1.400   .     A
C17    C19     1.411   .     A
C17    C24     1.400   .     A
C18    C20     1.411   .     A
C18    C649    1.391   .     S
C19    C21     1.411   .     A
C19    C648    1.391   1_554 S
C20    C29     1.400   .     A
C21    C23     1.400   .     A
C22    H54     1.084   .     S
C22    C653    1.389   .     S
C23    H56     1.084   .     S
C23    C652    1.389   1_554 S
C24    H55     1.084   .     S
C24    C659    1.389   1_554 S
C25    H40     1.110   .     S
C25    H39     1.110   .     S
C25    H41     1.105   .     S
C25    C30     1.525   .     S
C26    H44     1.110   .     S
C26    H42     1.110   .     S
C26    H43     1.105   .     S
C26    C31     1.525   .     S
C27    H48     1.110   .     S
C27    H45     1.105   .     S
C27    C32     1.521   .     S
C27    H47     1.110   .     S
C28    C33     1.521   .     S
C28    H49     1.105   .     S
C28    H51     1.110   .     S
C28    H50     1.110   .     S
C29    H57     1.084   .     S
C29    C654    1.389   .     S
C30    C172    1.394   1_455 S
C31    C34     1.407   .     A
C31    C103    1.394   .     S
C32    C34     1.409   .     A
C32    C100    1.394   .     S
C33    C171    1.394   1_455 S
N59    Zn69    2.008   .     S
N60    Zn70    2.008   .     S
O61    Zn69    1.984   .     S
O62    Zn70    1.984   .     S
O63    Zn69    1.984   .     S
O64    Zn70    1.984   .     S
O65    Zn69    2.019   .     S
O66    Zn70    2.019   .     S
O67    Zn69    2.019   .     S
O68    Zn70    2.019   .     S
C71    C72     1.408   .     S
C71    O134    1.276   .     A
C71    O131    1.276   .     A
C72    C100    1.407   .     A
C72    C103    1.409   .     A
C73    N130    1.366   .     A
C73    H128    1.082   .     S
C73    C496    1.416   1_545 S
C74    N129    1.366   .     A
C74    H106    1.082   .     S
C74    C285    1.416   .     S
C75    N130    1.366   .     A
C75    H107    1.082   .     S
C75    C494    1.416   1_545 S
C76    N129    1.366   .     A
C76    H108    1.082   .     S
C76    C283    1.416   .     S
C77    O135    1.287   .     A
C77    C83     1.439   .     S
C77    O138    1.287   .     A
C78    O136    1.287   .     A
C78    C81     1.439   .     S
C78    O137    1.287   .     A
C79    C90     1.383   .     A
C79    C81     1.399   .     A
C79    H105    1.085   .     S
C80    C91     1.383   .     A
C80    H116    1.085   .     S
C80    C83     1.399   .     A
C81    C84     1.399   .     A
C82    O132    1.276   .     A
C82    O133    1.276   .     A
C82    C104    1.408   .     S
C83    C85     1.399   .     A
C84    C86     1.383   .     A
C84    H122    1.085   .     S
C85    H123    1.085   .     S
C85    C87     1.383   .     A
C86    C88     1.411   .     A
C86    C92     1.400   .     A
C87    C89     1.411   .     A
C87    C94     1.400   .     A
C88    C90     1.411   .     A
C88    C719    1.391   .     S
C89    C91     1.411   .     A
C89    C718    1.391   1_554 S
C90    C99     1.400   .     A
C91    C93     1.400   .     A
C92    H124    1.084   .     S
C92    C723    1.389   .     S
C93    H126    1.084   .     S
C93    C722    1.389   1_554 S
C94    H125    1.084   .     S
C94    C729    1.389   1_554 S
C95    H110    1.110   .     S
C95    H109    1.110   .     S
C95    H111    1.105   .     S
C95    C100    1.525   .     S
C96    H114    1.110   .     S
C96    H112    1.110   .     S
C96    H113    1.105   .     S
C96    C101    1.525   .     S
C97    H118    1.110   .     S
C97    H115    1.105   .     S
C97    C102    1.521   .     S
C97    H117    1.110   .     S
C98    C103    1.521   .     S
C98    H119    1.105   .     S
C98    H121    1.110   .     S
C98    H120    1.110   .     S
C99    H127    1.084   .     S
C99    C724    1.389   .     S
C101   C104    1.407   .     A
C101   C173    1.394   .     S
C102   C104    1.409   .     A
C102   C170    1.394   .     S
N129   Zn139   2.008   .     S
N130   Zn140   2.008   .     S
O131   Zn139   1.984   .     S
O132   Zn140   1.984   .     S
O133   Zn139   1.984   .     S
O134   Zn140   1.984   .     S
O135   Zn139   2.019   .     S
O136   Zn140   2.019   .     S
O137   Zn139   2.019   .     S
O138   Zn140   2.019   .     S
C141   C142    1.408   .     S
C141   O204    1.276   .     A
C141   O201    1.276   .     A
C142   C170    1.407   .     A
C142   C173    1.409   .     A
C143   N200    1.366   .     A
C143   H198    1.082   .     S
C143   C566    1.416   1_545 S
C144   N199    1.366   .     A
C144   H176    1.082   .     S
C144   C355    1.416   .     S
C145   N200    1.366   .     A
C145   H177    1.082   .     S
C145   C564    1.416   1_545 S
C146   N199    1.366   .     A
C146   H178    1.082   .     S
C146   C353    1.416   .     S
C147   O205    1.287   .     A
C147   C153    1.439   .     S
C147   O208    1.287   .     A
C148   O206    1.287   .     A
C148   C151    1.439   .     S
C148   O207    1.287   .     A
C149   C160    1.383   .     A
C149   C151    1.399   .     A
C149   H175    1.085   .     S
C150   C161    1.383   .     A
C150   H186    1.085   .     S
C150   C153    1.399   .     A
C151   C154    1.399   .     A
C152   O202    1.276   .     A
C152   O203    1.276   .     A
C152   C174    1.408   .     S
C153   C155    1.399   .     A
C154   C156    1.383   .     A
C154   H192    1.085   .     S
C155   H193    1.085   .     S
C155   C157    1.383   .     A
C156   C158    1.411   .     A
C156   C162    1.400   .     A
C157   C159    1.411   .     A
C157   C164    1.400   .     A
C158   C160    1.411   .     A
C158   C789    1.391   .     S
C159   C161    1.411   .     A
C159   C788    1.391   1_554 S
C160   C169    1.400   .     A
C161   C163    1.400   .     A
C162   H194    1.084   .     S
C162   C793    1.389   .     S
C163   H196    1.084   .     S
C163   C792    1.389   1_554 S
C164   H195    1.084   .     S
C164   C799    1.389   1_554 S
C165   H180    1.110   .     S
C165   H179    1.110   .     S
C165   H181    1.105   .     S
C165   C170    1.525   .     S
C166   H184    1.110   .     S
C166   H182    1.110   .     S
C166   H183    1.105   .     S
C166   C171    1.525   .     S
C167   H188    1.110   .     S
C167   H185    1.105   .     S
C167   C172    1.521   .     S
C167   H187    1.110   .     S
C168   C173    1.521   .     S
C168   H189    1.105   .     S
C168   H191    1.110   .     S
C168   H190    1.110   .     S
C169   H197    1.084   .     S
C169   C794    1.389   .     S
C171   C174    1.407   .     A
C171   C33     1.394   1_655 S
C172   C174    1.409   .     A
C172   C30     1.394   1_655 S
N199   Zn209   2.008   .     S
N200   Zn210   2.008   .     S
O201   Zn209   1.984   .     S
O202   Zn210   1.984   .     S
O203   Zn209   1.984   .     S
O204   Zn210   1.984   .     S
O205   Zn209   2.019   .     S
O206   Zn210   2.019   .     S
O207   Zn209   2.019   .     S
O208   Zn210   2.019   .     S
C211   C212    1.408   .     S
C211   O274    1.276   .     A
C211   O271    1.276   .     A
C212   C240    1.407   .     A
C212   C243    1.409   .     A
C213   N270    1.366   .     A
C213   H268    1.082   .     S
C214   N269    1.366   .     A
C214   H246    1.082   .     S
C214   C425    1.416   .     S
C215   N270    1.366   .     A
C215   H247    1.082   .     S
C216   N269    1.366   .     A
C216   H248    1.082   .     S
C216   C423    1.416   .     S
C217   O275    1.287   .     A
C217   C223    1.439   .     S
C217   O278    1.287   .     A
C218   O276    1.287   .     A
C218   C221    1.439   .     S
C218   O277    1.287   .     A
C219   C230    1.383   .     A
C219   C221    1.399   .     A
C219   H245    1.085   .     S
C220   C231    1.383   .     A
C220   H256    1.085   .     S
C220   C223    1.399   .     A
C221   C224    1.399   .     A
C222   O272    1.276   .     A
C222   O273    1.276   .     A
C222   C244    1.408   .     S
C223   C225    1.399   .     A
C224   C226    1.383   .     A
C224   H262    1.085   .     S
C225   H263    1.085   .     S
C225   C227    1.383   .     A
C226   C228    1.411   .     A
C226   C232    1.400   .     A
C227   C229    1.411   .     A
C227   C234    1.400   .     A
C228   C230    1.411   .     A
C228   C859    1.391   .     S
C229   C231    1.411   .     A
C229   C858    1.391   1_554 S
C230   C239    1.400   .     A
C231   C233    1.400   .     A
C232   H264    1.084   .     S
C232   C863    1.389   .     S
C233   H266    1.084   .     S
C233   C862    1.389   1_554 S
C234   H265    1.084   .     S
C234   C869    1.389   1_554 S
C235   H250    1.110   .     S
C235   H249    1.110   .     S
C235   H251    1.105   .     S
C235   C240    1.525   .     S
C236   H254    1.110   .     S
C236   H252    1.110   .     S
C236   H253    1.105   .     S
C236   C241    1.525   .     S
C237   H258    1.110   .     S
C237   H255    1.105   .     S
C237   C242    1.521   .     S
C237   H257    1.110   .     S
C238   C243    1.521   .     S
C238   H259    1.105   .     S
C238   H261    1.110   .     S
C238   H260    1.110   .     S
C239   H267    1.084   .     S
C239   C864    1.389   .     S
C240   C382    1.394   1_455 S
C241   C244    1.407   .     A
C241   C313    1.394   .     S
C242   C244    1.409   .     A
C242   C310    1.394   .     S
C243   C381    1.394   1_455 S
N269   Zn279   2.008   .     S
N270   Zn280   2.008   .     S
O271   Zn279   1.984   .     S
O272   Zn280   1.984   .     S
O273   Zn279   1.984   .     S
O274   Zn280   1.984   .     S
O275   Zn279   2.019   .     S
O276   Zn280   2.019   .     S
O277   Zn279   2.019   .     S
O278   Zn280   2.019   .     S
C281   C282    1.408   .     S
C281   O344    1.276   .     A
C281   O341    1.276   .     A
C282   C310    1.407   .     A
C282   C313    1.409   .     A
C283   N340    1.366   .     A
C283   H338    1.082   .     S
C284   N339    1.366   .     A
C284   H316    1.082   .     S
C284   C495    1.416   .     S
C285   N340    1.366   .     A
C285   H317    1.082   .     S
C286   N339    1.366   .     A
C286   H318    1.082   .     S
C286   C493    1.416   .     S
C287   O345    1.287   .     A
C287   C293    1.439   .     S
C287   O348    1.287   .     A
C288   O346    1.287   .     A
C288   C291    1.439   .     S
C288   O347    1.287   .     A
C289   C300    1.383   .     A
C289   C291    1.399   .     A
C289   H315    1.085   .     S
C290   C301    1.383   .     A
C290   H326    1.085   .     S
C290   C293    1.399   .     A
C291   C294    1.399   .     A
C292   O342    1.276   .     A
C292   O343    1.276   .     A
C292   C314    1.408   .     S
C293   C295    1.399   .     A
C294   C296    1.383   .     A
C294   H332    1.085   .     S
C295   H333    1.085   .     S
C295   C297    1.383   .     A
C296   C298    1.411   .     A
C296   C302    1.400   .     A
C297   C299    1.411   .     A
C297   C304    1.400   .     A
C298   C300    1.411   .     A
C298   C929    1.391   .     S
C299   C301    1.411   .     A
C299   C928    1.391   1_554 S
C300   C309    1.400   .     A
C301   C303    1.400   .     A
C302   H334    1.084   .     S
C302   C933    1.389   .     S
C303   H336    1.084   .     S
C303   C932    1.389   1_554 S
C304   H335    1.084   .     S
C304   C939    1.389   1_554 S
C305   H320    1.110   .     S
C305   H319    1.110   .     S
C305   H321    1.105   .     S
C305   C310    1.525   .     S
C306   H324    1.110   .     S
C306   H322    1.110   .     S
C306   H323    1.105   .     S
C306   C311    1.525   .     S
C307   H328    1.110   .     S
C307   H325    1.105   .     S
C307   C312    1.521   .     S
C307   H327    1.110   .     S
C308   C313    1.521   .     S
C308   H329    1.105   .     S
C308   H331    1.110   .     S
C308   H330    1.110   .     S
C309   H337    1.084   .     S
C309   C934    1.389   .     S
C311   C314    1.407   .     A
C311   C383    1.394   .     S
C312   C314    1.409   .     A
C312   C380    1.394   .     S
N339   Zn349   2.008   .     S
N340   Zn350   2.008   .     S
O341   Zn349   1.984   .     S
O342   Zn350   1.984   .     S
O343   Zn349   1.984   .     S
O344   Zn350   1.984   .     S
O345   Zn349   2.019   .     S
O346   Zn350   2.019   .     S
O347   Zn349   2.019   .     S
O348   Zn350   2.019   .     S
C351   C352    1.408   .     S
C351   O414    1.276   .     A
C351   O411    1.276   .     A
C352   C380    1.407   .     A
C352   C383    1.409   .     A
C353   N410    1.366   .     A
C353   H408    1.082   .     S
C354   N409    1.366   .     A
C354   H386    1.082   .     S
C354   C565    1.416   .     S
C355   N410    1.366   .     A
C355   H387    1.082   .     S
C356   N409    1.366   .     A
C356   H388    1.082   .     S
C356   C563    1.416   .     S
C357   O415    1.287   .     A
C357   C363    1.439   .     S
C357   O418    1.287   .     A
C358   O416    1.287   .     A
C358   C361    1.439   .     S
C358   O417    1.287   .     A
C359   C370    1.383   .     A
C359   C361    1.399   .     A
C359   H385    1.085   .     S
C360   C371    1.383   .     A
C360   H396    1.085   .     S
C360   C363    1.399   .     A
C361   C364    1.399   .     A
C362   O412    1.276   .     A
C362   O413    1.276   .     A
C362   C384    1.408   .     S
C363   C365    1.399   .     A
C364   C366    1.383   .     A
C364   H402    1.085   .     S
C365   H403    1.085   .     S
C365   C367    1.383   .     A
C366   C368    1.411   .     A
C366   C372    1.400   .     A
C367   C369    1.411   .     A
C367   C374    1.400   .     A
C368   C370    1.411   .     A
C368   C999    1.391   .     S
C369   C371    1.411   .     A
C369   C998    1.391   1_554 S
C370   C379    1.400   .     A
C371   C373    1.400   .     A
C372   H404    1.084   .     S
C372   C1003   1.389   .     S
C373   H406    1.084   .     S
C373   C1002   1.389   1_554 S
C374   H405    1.084   .     S
C374   C1009   1.389   1_554 S
C375   H390    1.110   .     S
C375   H389    1.110   .     S
C375   H391    1.105   .     S
C375   C380    1.525   .     S
C376   H394    1.110   .     S
C376   H392    1.110   .     S
C376   H393    1.105   .     S
C376   C381    1.525   .     S
C377   H398    1.110   .     S
C377   H395    1.105   .     S
C377   C382    1.521   .     S
C377   H397    1.110   .     S
C378   C383    1.521   .     S
C378   H399    1.105   .     S
C378   H401    1.110   .     S
C378   H400    1.110   .     S
C379   H407    1.084   .     S
C379   C1004   1.389   .     S
C381   C384    1.407   .     A
C381   C243    1.394   1_655 S
C382   C384    1.409   .     A
C382   C240    1.394   1_655 S
N409   Zn419   2.008   .     S
N410   Zn420   2.008   .     S
O411   Zn419   1.984   .     S
O412   Zn420   1.984   .     S
O413   Zn419   1.984   .     S
O414   Zn420   1.984   .     S
O415   Zn419   2.019   .     S
O416   Zn420   2.019   .     S
O417   Zn419   2.019   .     S
O418   Zn420   2.019   .     S
C421   C422    1.408   .     S
C421   O484    1.276   .     A
C421   O481    1.276   .     A
C422   C450    1.407   .     A
C422   C453    1.409   .     A
C423   N480    1.366   .     A
C423   H478    1.082   .     S
C424   N479    1.366   .     A
C424   H456    1.082   .     S
C424   C5      1.416   1_565 S
C425   N480    1.366   .     A
C425   H457    1.082   .     S
C426   N479    1.366   .     A
C426   H458    1.082   .     S
C426   C3      1.416   1_565 S
C427   O485    1.287   .     A
C427   C433    1.439   .     S
C427   O488    1.287   .     A
C428   O486    1.287   .     A
C428   C431    1.439   .     S
C428   O487    1.287   .     A
C429   C440    1.383   .     A
C429   C431    1.399   .     A
C429   H455    1.085   .     S
C430   C441    1.383   .     A
C430   H466    1.085   .     S
C430   C433    1.399   .     A
C431   C434    1.399   .     A
C432   O482    1.276   .     A
C432   O483    1.276   .     A
C432   C454    1.408   .     S
C433   C435    1.399   .     A
C434   C436    1.383   .     A
C434   H472    1.085   .     S
C435   H473    1.085   .     S
C435   C437    1.383   .     A
C436   C438    1.411   .     A
C436   C442    1.400   .     A
C437   C439    1.411   .     A
C437   C444    1.400   .     A
C438   C440    1.411   .     A
C438   C1069   1.391   .     S
C439   C441    1.411   .     A
C439   C1068   1.391   1_554 S
C440   C449    1.400   .     A
C441   C443    1.400   .     A
C442   H474    1.084   .     S
C442   C1073   1.389   .     S
C443   H476    1.084   .     S
C443   C1072   1.389   1_554 S
C444   H475    1.084   .     S
C444   C1079   1.389   1_554 S
C445   H460    1.110   .     S
C445   H459    1.110   .     S
C445   H461    1.105   .     S
C445   C450    1.525   .     S
C446   H464    1.110   .     S
C446   H462    1.110   .     S
C446   H463    1.105   .     S
C446   C451    1.525   .     S
C447   H468    1.110   .     S
C447   H465    1.105   .     S
C447   C452    1.521   .     S
C447   H467    1.110   .     S
C448   C453    1.521   .     S
C448   H469    1.105   .     S
C448   H471    1.110   .     S
C448   H470    1.110   .     S
C449   H477    1.084   .     S
C449   C1074   1.389   .     S
C450   C592    1.394   1_455 S
C451   C454    1.407   .     A
C451   C523    1.394   .     S
C452   C454    1.409   .     A
C452   C520    1.394   .     S
C453   C591    1.394   1_455 S
N479   Zn489   2.008   .     S
N480   Zn490   2.008   .     S
O481   Zn489   1.984   .     S
O482   Zn490   1.984   .     S
O483   Zn489   1.984   .     S
O484   Zn490   1.984   .     S
O485   Zn489   2.019   .     S
O486   Zn490   2.019   .     S
O487   Zn489   2.019   .     S
O488   Zn490   2.019   .     S
C491   C492    1.408   .     S
C491   O554    1.276   .     A
C491   O551    1.276   .     A
C492   C520    1.407   .     A
C492   C523    1.409   .     A
C493   N550    1.366   .     A
C493   H548    1.082   .     S
C494   N549    1.366   .     A
C494   H526    1.082   .     S
C494   C75     1.416   1_565 S
C495   N550    1.366   .     A
C495   H527    1.082   .     S
C496   N549    1.366   .     A
C496   H528    1.082   .     S
C496   C73     1.416   1_565 S
C497   O555    1.287   .     A
C497   C503    1.439   .     S
C497   O558    1.287   .     A
C498   O556    1.287   .     A
C498   C501    1.439   .     S
C498   O557    1.287   .     A
C499   C510    1.383   .     A
C499   C501    1.399   .     A
C499   H525    1.085   .     S
C500   C511    1.383   .     A
C500   H536    1.085   .     S
C500   C503    1.399   .     A
C501   C504    1.399   .     A
C502   O552    1.276   .     A
C502   O553    1.276   .     A
C502   C524    1.408   .     S
C503   C505    1.399   .     A
C504   C506    1.383   .     A
C504   H542    1.085   .     S
C505   H543    1.085   .     S
C505   C507    1.383   .     A
C506   C508    1.411   .     A
C506   C512    1.400   .     A
C507   C509    1.411   .     A
C507   C514    1.400   .     A
C508   C510    1.411   .     A
C508   C1139   1.391   .     S
C509   C511    1.411   .     A
C509   C1138   1.391   1_554 S
C510   C519    1.400   .     A
C511   C513    1.400   .     A
C512   H544    1.084   .     S
C512   C1143   1.389   .     S
C513   H546    1.084   .     S
C513   C1142   1.389   1_554 S
C514   H545    1.084   .     S
C514   C1149   1.389   1_554 S
C515   H530    1.110   .     S
C515   H529    1.110   .     S
C515   H531    1.105   .     S
C515   C520    1.525   .     S
C516   H534    1.110   .     S
C516   H532    1.110   .     S
C516   H533    1.105   .     S
C516   C521    1.525   .     S
C517   H538    1.110   .     S
C517   H535    1.105   .     S
C517   C522    1.521   .     S
C517   H537    1.110   .     S
C518   C523    1.521   .     S
C518   H539    1.105   .     S
C518   H541    1.110   .     S
C518   H540    1.110   .     S
C519   H547    1.084   .     S
C519   C1144   1.389   .     S
C521   C524    1.407   .     A
C521   C593    1.394   .     S
C522   C524    1.409   .     A
C522   C590    1.394   .     S
N549   Zn559   2.008   .     S
N550   Zn560   2.008   .     S
O551   Zn559   1.984   .     S
O552   Zn560   1.984   .     S
O553   Zn559   1.984   .     S
O554   Zn560   1.984   .     S
O555   Zn559   2.019   .     S
O556   Zn560   2.019   .     S
O557   Zn559   2.019   .     S
O558   Zn560   2.019   .     S
C561   C562    1.408   .     S
C561   O624    1.276   .     A
C561   O621    1.276   .     A
C562   C590    1.407   .     A
C562   C593    1.409   .     A
C563   N620    1.366   .     A
C563   H618    1.082   .     S
C564   N619    1.366   .     A
C564   H596    1.082   .     S
C564   C145    1.416   1_565 S
C565   N620    1.366   .     A
C565   H597    1.082   .     S
C566   N619    1.366   .     A
C566   H598    1.082   .     S
C566   C143    1.416   1_565 S
C567   O625    1.287   .     A
C567   C573    1.439   .     S
C567   O628    1.287   .     A
C568   O626    1.287   .     A
C568   C571    1.439   .     S
C568   O627    1.287   .     A
C569   C580    1.383   .     A
C569   C571    1.399   .     A
C569   H595    1.085   .     S
C570   C581    1.383   .     A
C570   H606    1.085   .     S
C570   C573    1.399   .     A
C571   C574    1.399   .     A
C572   O622    1.276   .     A
C572   O623    1.276   .     A
C572   C594    1.408   .     S
C573   C575    1.399   .     A
C574   C576    1.383   .     A
C574   H612    1.085   .     S
C575   H613    1.085   .     S
C575   C577    1.383   .     A
C576   C578    1.411   .     A
C576   C582    1.400   .     A
C577   C579    1.411   .     A
C577   C584    1.400   .     A
C578   C580    1.411   .     A
C578   C1209   1.391   .     S
C579   C581    1.411   .     A
C579   C1208   1.391   1_554 S
C580   C589    1.400   .     A
C581   C583    1.400   .     A
C582   H614    1.084   .     S
C582   C1213   1.389   .     S
C583   H616    1.084   .     S
C583   C1212   1.389   1_554 S
C584   H615    1.084   .     S
C584   C1219   1.389   1_554 S
C585   H600    1.110   .     S
C585   H599    1.110   .     S
C585   H601    1.105   .     S
C585   C590    1.525   .     S
C586   H604    1.110   .     S
C586   H602    1.110   .     S
C586   H603    1.105   .     S
C586   C591    1.525   .     S
C587   H608    1.110   .     S
C587   H605    1.105   .     S
C587   C592    1.521   .     S
C587   H607    1.110   .     S
C588   C593    1.521   .     S
C588   H609    1.105   .     S
C588   H611    1.110   .     S
C588   H610    1.110   .     S
C589   H617    1.084   .     S
C589   C1214   1.389   .     S
C591   C594    1.407   .     A
C591   C453    1.394   1_655 S
C592   C594    1.409   .     A
C592   C450    1.394   1_655 S
N619   Zn629   2.008   .     S
N620   Zn630   2.008   .     S
O621   Zn629   1.984   .     S
O622   Zn630   1.984   .     S
O623   Zn629   1.984   .     S
O624   Zn630   1.984   .     S
O625   Zn629   2.019   .     S
O626   Zn630   2.019   .     S
O627   Zn629   2.019   .     S
O628   Zn630   2.019   .     S
C631   C632    1.408   .     S
C631   O694    1.276   .     A
C631   O691    1.276   .     A
C632   C660    1.407   .     A
C632   C663    1.409   .     A
C633   N690    1.366   .     A
C633   H688    1.082   .     S
C633   C1056   1.416   1_545 S
C634   N689    1.366   .     A
C634   H666    1.082   .     S
C634   C845    1.416   .     S
C635   N690    1.366   .     A
C635   H667    1.082   .     S
C635   C1054   1.416   1_545 S
C636   N689    1.366   .     A
C636   H668    1.082   .     S
C636   C843    1.416   .     S
C637   O695    1.287   .     A
C637   C643    1.439   .     S
C637   O698    1.287   .     A
C638   O696    1.287   .     A
C638   C641    1.439   .     S
C638   O697    1.287   .     A
C639   C650    1.383   .     A
C639   C641    1.399   .     A
C639   H665    1.085   .     S
C640   C651    1.383   .     A
C640   H676    1.085   .     S
C640   C643    1.399   .     A
C641   C644    1.399   .     A
C642   O692    1.276   .     A
C642   O693    1.276   .     A
C642   C664    1.408   .     S
C643   C645    1.399   .     A
C644   C646    1.383   .     A
C644   H682    1.085   .     S
C645   H683    1.085   .     S
C645   C647    1.383   .     A
C646   C648    1.411   .     A
C646   C652    1.400   .     A
C647   C649    1.411   .     A
C647   C654    1.400   .     A
C648   C650    1.411   .     A
C648   C19     1.391   1_556 S
C649   C651    1.411   .     A
C650   C659    1.400   .     A
C651   C653    1.400   .     A
C652   H684    1.084   .     S
C652   C23     1.389   1_556 S
C653   H686    1.084   .     S
C654   H685    1.084   .     S
C655   H670    1.110   .     S
C655   H669    1.110   .     S
C655   H671    1.105   .     S
C655   C660    1.525   .     S
C656   H674    1.110   .     S
C656   H672    1.110   .     S
C656   H673    1.105   .     S
C656   C661    1.525   .     S
C657   H678    1.110   .     S
C657   H675    1.105   .     S
C657   C662    1.521   .     S
C657   H677    1.110   .     S
C658   C663    1.521   .     S
C658   H679    1.105   .     S
C658   H681    1.110   .     S
C658   H680    1.110   .     S
C659   H687    1.084   .     S
C659   C24     1.389   1_556 S
C660   C802    1.394   1_455 S
C661   C664    1.407   .     A
C661   C733    1.394   .     S
C662   C664    1.409   .     A
C662   C730    1.394   .     S
C663   C801    1.394   1_455 S
N689   Zn699   2.008   .     S
N690   Zn700   2.008   .     S
O691   Zn699   1.984   .     S
O692   Zn700   1.984   .     S
O693   Zn699   1.984   .     S
O694   Zn700   1.984   .     S
O695   Zn699   2.019   .     S
O696   Zn700   2.019   .     S
O697   Zn699   2.019   .     S
O698   Zn700   2.019   .     S
C701   C702    1.408   .     S
C701   O764    1.276   .     A
C701   O761    1.276   .     A
C702   C730    1.407   .     A
C702   C733    1.409   .     A
C703   N760    1.366   .     A
C703   H758    1.082   .     S
C703   C1126   1.416   1_545 S
C704   N759    1.366   .     A
C704   H736    1.082   .     S
C704   C915    1.416   .     S
C705   N760    1.366   .     A
C705   H737    1.082   .     S
C705   C1124   1.416   1_545 S
C706   N759    1.366   .     A
C706   H738    1.082   .     S
C706   C913    1.416   .     S
C707   O765    1.287   .     A
C707   C713    1.439   .     S
C707   O768    1.287   .     A
C708   O766    1.287   .     A
C708   C711    1.439   .     S
C708   O767    1.287   .     A
C709   C720    1.383   .     A
C709   C711    1.399   .     A
C709   H735    1.085   .     S
C710   C721    1.383   .     A
C710   H746    1.085   .     S
C710   C713    1.399   .     A
C711   C714    1.399   .     A
C712   O762    1.276   .     A
C712   O763    1.276   .     A
C712   C734    1.408   .     S
C713   C715    1.399   .     A
C714   C716    1.383   .     A
C714   H752    1.085   .     S
C715   H753    1.085   .     S
C715   C717    1.383   .     A
C716   C718    1.411   .     A
C716   C722    1.400   .     A
C717   C719    1.411   .     A
C717   C724    1.400   .     A
C718   C720    1.411   .     A
C718   C89     1.391   1_556 S
C719   C721    1.411   .     A
C720   C729    1.400   .     A
C721   C723    1.400   .     A
C722   H754    1.084   .     S
C722   C93     1.389   1_556 S
C723   H756    1.084   .     S
C724   H755    1.084   .     S
C725   H740    1.110   .     S
C725   H739    1.110   .     S
C725   H741    1.105   .     S
C725   C730    1.525   .     S
C726   H744    1.110   .     S
C726   H742    1.110   .     S
C726   H743    1.105   .     S
C726   C731    1.525   .     S
C727   H748    1.110   .     S
C727   H745    1.105   .     S
C727   C732    1.521   .     S
C727   H747    1.110   .     S
C728   C733    1.521   .     S
C728   H749    1.105   .     S
C728   H751    1.110   .     S
C728   H750    1.110   .     S
C729   H757    1.084   .     S
C729   C94     1.389   1_556 S
C731   C734    1.407   .     A
C731   C803    1.394   .     S
C732   C734    1.409   .     A
C732   C800    1.394   .     S
N759   Zn769   2.008   .     S
N760   Zn770   2.008   .     S
O761   Zn769   1.984   .     S
O762   Zn770   1.984   .     S
O763   Zn769   1.984   .     S
O764   Zn770   1.984   .     S
O765   Zn769   2.019   .     S
O766   Zn770   2.019   .     S
O767   Zn769   2.019   .     S
O768   Zn770   2.019   .     S
C771   C772    1.408   .     S
C771   O834    1.276   .     A
C771   O831    1.276   .     A
C772   C800    1.407   .     A
C772   C803    1.409   .     A
C773   N830    1.366   .     A
C773   H828    1.082   .     S
C773   C1196   1.416   1_545 S
C774   N829    1.366   .     A
C774   H806    1.082   .     S
C774   C985    1.416   .     S
C775   N830    1.366   .     A
C775   H807    1.082   .     S
C775   C1194   1.416   1_545 S
C776   N829    1.366   .     A
C776   H808    1.082   .     S
C776   C983    1.416   .     S
C777   O835    1.287   .     A
C777   C783    1.439   .     S
C777   O838    1.287   .     A
C778   O836    1.287   .     A
C778   C781    1.439   .     S
C778   O837    1.287   .     A
C779   C790    1.383   .     A
C779   C781    1.399   .     A
C779   H805    1.085   .     S
C780   C791    1.383   .     A
C780   H816    1.085   .     S
C780   C783    1.399   .     A
C781   C784    1.399   .     A
C782   O832    1.276   .     A
C782   O833    1.276   .     A
C782   C804    1.408   .     S
C783   C785    1.399   .     A
C784   C786    1.383   .     A
C784   H822    1.085   .     S
C785   H823    1.085   .     S
C785   C787    1.383   .     A
C786   C788    1.411   .     A
C786   C792    1.400   .     A
C787   C789    1.411   .     A
C787   C794    1.400   .     A
C788   C790    1.411   .     A
C788   C159    1.391   1_556 S
C789   C791    1.411   .     A
C790   C799    1.400   .     A
C791   C793    1.400   .     A
C792   H824    1.084   .     S
C792   C163    1.389   1_556 S
C793   H826    1.084   .     S
C794   H825    1.084   .     S
C795   H810    1.110   .     S
C795   H809    1.110   .     S
C795   H811    1.105   .     S
C795   C800    1.525   .     S
C796   H814    1.110   .     S
C796   H812    1.110   .     S
C796   H813    1.105   .     S
C796   C801    1.525   .     S
C797   H818    1.110   .     S
C797   H815    1.105   .     S
C797   C802    1.521   .     S
C797   H817    1.110   .     S
C798   C803    1.521   .     S
C798   H819    1.105   .     S
C798   H821    1.110   .     S
C798   H820    1.110   .     S
C799   H827    1.084   .     S
C799   C164    1.389   1_556 S
C801   C804    1.407   .     A
C801   C663    1.394   1_655 S
C802   C804    1.409   .     A
C802   C660    1.394   1_655 S
N829   Zn839   2.008   .     S
N830   Zn840   2.008   .     S
O831   Zn839   1.984   .     S
O832   Zn840   1.984   .     S
O833   Zn839   1.984   .     S
O834   Zn840   1.984   .     S
O835   Zn839   2.019   .     S
O836   Zn840   2.019   .     S
O837   Zn839   2.019   .     S
O838   Zn840   2.019   .     S
C841   C842    1.408   .     S
C841   O904    1.276   .     A
C841   O901    1.276   .     A
C842   C870    1.407   .     A
C842   C873    1.409   .     A
C843   N900    1.366   .     A
C843   H898    1.082   .     S
C844   N899    1.366   .     A
C844   H876    1.082   .     S
C844   C1055   1.416   .     S
C845   N900    1.366   .     A
C845   H877    1.082   .     S
C846   N899    1.366   .     A
C846   H878    1.082   .     S
C846   C1053   1.416   .     S
C847   O905    1.287   .     A
C847   C853    1.439   .     S
C847   O908    1.287   .     A
C848   O906    1.287   .     A
C848   C851    1.439   .     S
C848   O907    1.287   .     A
C849   C860    1.383   .     A
C849   C851    1.399   .     A
C849   H875    1.085   .     S
C850   C861    1.383   .     A
C850   H886    1.085   .     S
C850   C853    1.399   .     A
C851   C854    1.399   .     A
C852   O902    1.276   .     A
C852   O903    1.276   .     A
C852   C874    1.408   .     S
C853   C855    1.399   .     A
C854   C856    1.383   .     A
C854   H892    1.085   .     S
C855   H893    1.085   .     S
C855   C857    1.383   .     A
C856   C858    1.411   .     A
C856   C862    1.400   .     A
C857   C859    1.411   .     A
C857   C864    1.400   .     A
C858   C860    1.411   .     A
C858   C229    1.391   1_556 S
C859   C861    1.411   .     A
C860   C869    1.400   .     A
C861   C863    1.400   .     A
C862   H894    1.084   .     S
C862   C233    1.389   1_556 S
C863   H896    1.084   .     S
C864   H895    1.084   .     S
C865   H880    1.110   .     S
C865   H879    1.110   .     S
C865   H881    1.105   .     S
C865   C870    1.525   .     S
C866   H884    1.110   .     S
C866   H882    1.110   .     S
C866   H883    1.105   .     S
C866   C871    1.525   .     S
C867   H888    1.110   .     S
C867   H885    1.105   .     S
C867   C872    1.521   .     S
C867   H887    1.110   .     S
C868   C873    1.521   .     S
C868   H889    1.105   .     S
C868   H891    1.110   .     S
C868   H890    1.110   .     S
C869   H897    1.084   .     S
C869   C234    1.389   1_556 S
C870   C1012   1.394   1_455 S
C871   C874    1.407   .     A
C871   C943    1.394   .     S
C872   C874    1.409   .     A
C872   C940    1.394   .     S
C873   C1011   1.394   1_455 S
N899   Zn909   2.008   .     S
N900   Zn910   2.008   .     S
O901   Zn909   1.984   .     S
O902   Zn910   1.984   .     S
O903   Zn909   1.984   .     S
O904   Zn910   1.984   .     S
O905   Zn909   2.019   .     S
O906   Zn910   2.019   .     S
O907   Zn909   2.019   .     S
O908   Zn910   2.019   .     S
C911   C912    1.408   .     S
C911   O974    1.276   .     A
C911   O971    1.276   .     A
C912   C940    1.407   .     A
C912   C943    1.409   .     A
C913   N970    1.366   .     A
C913   H968    1.082   .     S
C914   N969    1.366   .     A
C914   H946    1.082   .     S
C914   C1125   1.416   .     S
C915   N970    1.366   .     A
C915   H947    1.082   .     S
C916   N969    1.366   .     A
C916   H948    1.082   .     S
C916   C1123   1.416   .     S
C917   O975    1.287   .     A
C917   C923    1.439   .     S
C917   O978    1.287   .     A
C918   O976    1.287   .     A
C918   C921    1.439   .     S
C918   O977    1.287   .     A
C919   C930    1.383   .     A
C919   C921    1.399   .     A
C919   H945    1.085   .     S
C920   C931    1.383   .     A
C920   H956    1.085   .     S
C920   C923    1.399   .     A
C921   C924    1.399   .     A
C922   O972    1.276   .     A
C922   O973    1.276   .     A
C922   C944    1.408   .     S
C923   C925    1.399   .     A
C924   C926    1.383   .     A
C924   H962    1.085   .     S
C925   H963    1.085   .     S
C925   C927    1.383   .     A
C926   C928    1.411   .     A
C926   C932    1.400   .     A
C927   C929    1.411   .     A
C927   C934    1.400   .     A
C928   C930    1.411   .     A
C928   C299    1.391   1_556 S
C929   C931    1.411   .     A
C930   C939    1.400   .     A
C931   C933    1.400   .     A
C932   H964    1.084   .     S
C932   C303    1.389   1_556 S
C933   H966    1.084   .     S
C934   H965    1.084   .     S
C935   H950    1.110   .     S
C935   H949    1.110   .     S
C935   H951    1.105   .     S
C935   C940    1.525   .     S
C936   H954    1.110   .     S
C936   H952    1.110   .     S
C936   H953    1.105   .     S
C936   C941    1.525   .     S
C937   H958    1.110   .     S
C937   H955    1.105   .     S
C937   C942    1.521   .     S
C937   H957    1.110   .     S
C938   C943    1.521   .     S
C938   H959    1.105   .     S
C938   H961    1.110   .     S
C938   H960    1.110   .     S
C939   H967    1.084   .     S
C939   C304    1.389   1_556 S
C941   C944    1.407   .     A
C941   C1013   1.394   .     S
C942   C944    1.409   .     A
C942   C1010   1.394   .     S
N969   Zn979   2.008   .     S
N970   Zn980   2.008   .     S
O971   Zn979   1.984   .     S
O972   Zn980   1.984   .     S
O973   Zn979   1.984   .     S
O974   Zn980   1.984   .     S
O975   Zn979   2.019   .     S
O976   Zn980   2.019   .     S
O977   Zn979   2.019   .     S
O978   Zn980   2.019   .     S
C981   C982    1.408   .     S
C981   O1044   1.276   .     A
C981   O1041   1.276   .     A
C982   C1010   1.407   .     A
C982   C1013   1.409   .     A
C983   N1040   1.366   .     A
C983   H1038   1.082   .     S
C984   N1039   1.366   .     A
C984   H1016   1.082   .     S
C984   C1195   1.416   .     S
C985   N1040   1.366   .     A
C985   H1017   1.082   .     S
C986   N1039   1.366   .     A
C986   H1018   1.082   .     S
C986   C1193   1.416   .     S
C987   O1045   1.287   .     A
C987   C993    1.439   .     S
C987   O1048   1.287   .     A
C988   O1046   1.287   .     A
C988   C991    1.439   .     S
C988   O1047   1.287   .     A
C989   C1000   1.383   .     A
C989   C991    1.399   .     A
C989   H1015   1.085   .     S
C990   C1001   1.383   .     A
C990   H1026   1.085   .     S
C990   C993    1.399   .     A
C991   C994    1.399   .     A
C992   O1042   1.276   .     A
C992   O1043   1.276   .     A
C992   C1014   1.408   .     S
C993   C995    1.399   .     A
C994   C996    1.383   .     A
C994   H1032   1.085   .     S
C995   H1033   1.085   .     S
C995   C997    1.383   .     A
C996   C998    1.411   .     A
C996   C1002   1.400   .     A
C997   C999    1.411   .     A
C997   C1004   1.400   .     A
C998   C1000   1.411   .     A
C998   C369    1.391   1_556 S
C999   C1001   1.411   .     A
C1000  C1009   1.400   .     A
C1001  C1003   1.400   .     A
C1002  H1034   1.084   .     S
C1002  C373    1.389   1_556 S
C1003  H1036   1.084   .     S
C1004  H1035   1.084   .     S
C1005  H1020   1.110   .     S
C1005  H1019   1.110   .     S
C1005  H1021   1.105   .     S
C1005  C1010   1.525   .     S
C1006  H1024   1.110   .     S
C1006  H1022   1.110   .     S
C1006  H1023   1.105   .     S
C1006  C1011   1.525   .     S
C1007  H1028   1.110   .     S
C1007  H1025   1.105   .     S
C1007  C1012   1.521   .     S
C1007  H1027   1.110   .     S
C1008  C1013   1.521   .     S
C1008  H1029   1.105   .     S
C1008  H1031   1.110   .     S
C1008  H1030   1.110   .     S
C1009  H1037   1.084   .     S
C1009  C374    1.389   1_556 S
C1011  C1014   1.407   .     A
C1011  C873    1.394   1_655 S
C1012  C1014   1.409   .     A
C1012  C870    1.394   1_655 S
N1039  Zn1049  2.008   .     S
N1040  Zn1050  2.008   .     S
O1041  Zn1049  1.984   .     S
O1042  Zn1050  1.984   .     S
O1043  Zn1049  1.984   .     S
O1044  Zn1050  1.984   .     S
O1045  Zn1049  2.019   .     S
O1046  Zn1050  2.019   .     S
O1047  Zn1049  2.019   .     S
O1048  Zn1050  2.019   .     S
C1051  C1052   1.408   .     S
C1051  O1114   1.276   .     A
C1051  O1111   1.276   .     A
C1052  C1080   1.407   .     A
C1052  C1083   1.409   .     A
C1053  N1110   1.366   .     A
C1053  H1108   1.082   .     S
C1054  N1109   1.366   .     A
C1054  H1086   1.082   .     S
C1054  C635    1.416   1_565 S
C1055  N1110   1.366   .     A
C1055  H1087   1.082   .     S
C1056  N1109   1.366   .     A
C1056  H1088   1.082   .     S
C1056  C633    1.416   1_565 S
C1057  O1115   1.287   .     A
C1057  C1063   1.439   .     S
C1057  O1118   1.287   .     A
C1058  O1116   1.287   .     A
C1058  C1061   1.439   .     S
C1058  O1117   1.287   .     A
C1059  C1070   1.383   .     A
C1059  C1061   1.399   .     A
C1059  H1085   1.085   .     S
C1060  C1071   1.383   .     A
C1060  H1096   1.085   .     S
C1060  C1063   1.399   .     A
C1061  C1064   1.399   .     A
C1062  O1112   1.276   .     A
C1062  O1113   1.276   .     A
C1062  C1084   1.408   .     S
C1063  C1065   1.399   .     A
C1064  C1066   1.383   .     A
C1064  H1102   1.085   .     S
C1065  H1103   1.085   .     S
C1065  C1067   1.383   .     A
C1066  C1068   1.411   .     A
C1066  C1072   1.400   .     A
C1067  C1069   1.411   .     A
C1067  C1074   1.400   .     A
C1068  C1070   1.411   .     A
C1068  C439    1.391   1_556 S
C1069  C1071   1.411   .     A
C1070  C1079   1.400   .     A
C1071  C1073   1.400   .     A
C1072  H1104   1.084   .     S
C1072  C443    1.389   1_556 S
C1073  H1106   1.084   .     S
C1074  H1105   1.084   .     S
C1075  H1090   1.110   .     S
C1075  H1089   1.110   .     S
C1075  H1091   1.105   .     S
C1075  C1080   1.525   .     S
C1076  H1094   1.110   .     S
C1076  H1092   1.110   .     S
C1076  H1093   1.105   .     S
C1076  C1081   1.525   .     S
C1077  H1098   1.110   .     S
C1077  H1095   1.105   .     S
C1077  C1082   1.521   .     S
C1077  H1097   1.110   .     S
C1078  C1083   1.521   .     S
C1078  H1099   1.105   .     S
C1078  H1101   1.110   .     S
C1078  H1100   1.110   .     S
C1079  H1107   1.084   .     S
C1079  C444    1.389   1_556 S
C1080  C1222   1.394   1_455 S
C1081  C1084   1.407   .     A
C1081  C1153   1.394   .     S
C1082  C1084   1.409   .     A
C1082  C1150   1.394   .     S
C1083  C1221   1.394   1_455 S
N1109  Zn1119  2.008   .     S
N1110  Zn1120  2.008   .     S
O1111  Zn1119  1.984   .     S
O1112  Zn1120  1.984   .     S
O1113  Zn1119  1.984   .     S
O1114  Zn1120  1.984   .     S
O1115  Zn1119  2.019   .     S
O1116  Zn1120  2.019   .     S
O1117  Zn1119  2.019   .     S
O1118  Zn1120  2.019   .     S
C1121  C1122   1.408   .     S
C1121  O1184   1.276   .     A
C1121  O1181   1.276   .     A
C1122  C1150   1.407   .     A
C1122  C1153   1.409   .     A
C1123  N1180   1.366   .     A
C1123  H1178   1.082   .     S
C1124  N1179   1.366   .     A
C1124  H1156   1.082   .     S
C1124  C705    1.416   1_565 S
C1125  N1180   1.366   .     A
C1125  H1157   1.082   .     S
C1126  N1179   1.366   .     A
C1126  H1158   1.082   .     S
C1126  C703    1.416   1_565 S
C1127  O1185   1.287   .     A
C1127  C1133   1.439   .     S
C1127  O1188   1.287   .     A
C1128  O1186   1.287   .     A
C1128  C1131   1.439   .     S
C1128  O1187   1.287   .     A
C1129  C1140   1.383   .     A
C1129  C1131   1.399   .     A
C1129  H1155   1.085   .     S
C1130  C1141   1.383   .     A
C1130  H1166   1.085   .     S
C1130  C1133   1.399   .     A
C1131  C1134   1.399   .     A
C1132  O1182   1.276   .     A
C1132  O1183   1.276   .     A
C1132  C1154   1.408   .     S
C1133  C1135   1.399   .     A
C1134  C1136   1.383   .     A
C1134  H1172   1.085   .     S
C1135  H1173   1.085   .     S
C1135  C1137   1.383   .     A
C1136  C1138   1.411   .     A
C1136  C1142   1.400   .     A
C1137  C1139   1.411   .     A
C1137  C1144   1.400   .     A
C1138  C1140   1.411   .     A
C1138  C509    1.391   1_556 S
C1139  C1141   1.411   .     A
C1140  C1149   1.400   .     A
C1141  C1143   1.400   .     A
C1142  H1174   1.084   .     S
C1142  C513    1.389   1_556 S
C1143  H1176   1.084   .     S
C1144  H1175   1.084   .     S
C1145  H1160   1.110   .     S
C1145  H1159   1.110   .     S
C1145  H1161   1.105   .     S
C1145  C1150   1.525   .     S
C1146  H1164   1.110   .     S
C1146  H1162   1.110   .     S
C1146  H1163   1.105   .     S
C1146  C1151   1.525   .     S
C1147  H1168   1.110   .     S
C1147  H1165   1.105   .     S
C1147  C1152   1.521   .     S
C1147  H1167   1.110   .     S
C1148  C1153   1.521   .     S
C1148  H1169   1.105   .     S
C1148  H1171   1.110   .     S
C1148  H1170   1.110   .     S
C1149  H1177   1.084   .     S
C1149  C514    1.389   1_556 S
C1151  C1154   1.407   .     A
C1151  C1223   1.394   .     S
C1152  C1154   1.409   .     A
C1152  C1220   1.394   .     S
N1179  Zn1189  2.008   .     S
N1180  Zn1190  2.008   .     S
O1181  Zn1189  1.984   .     S
O1182  Zn1190  1.984   .     S
O1183  Zn1189  1.984   .     S
O1184  Zn1190  1.984   .     S
O1185  Zn1189  2.019   .     S
O1186  Zn1190  2.019   .     S
O1187  Zn1189  2.019   .     S
O1188  Zn1190  2.019   .     S
C1191  C1192   1.408   .     S
C1191  O1254   1.276   .     A
C1191  O1251   1.276   .     A
C1192  C1220   1.407   .     A
C1192  C1223   1.409   .     A
C1193  N1250   1.366   .     A
C1193  H1248   1.082   .     S
C1194  N1249   1.366   .     A
C1194  H1226   1.082   .     S
C1194  C775    1.416   1_565 S
C1195  N1250   1.366   .     A
C1195  H1227   1.082   .     S
C1196  N1249   1.366   .     A
C1196  H1228   1.082   .     S
C1196  C773    1.416   1_565 S
C1197  O1255   1.287   .     A
C1197  C1203   1.439   .     S
C1197  O1258   1.287   .     A
C1198  O1256   1.287   .     A
C1198  C1201   1.439   .     S
C1198  O1257   1.287   .     A
C1199  C1210   1.383   .     A
C1199  C1201   1.399   .     A
C1199  H1225   1.085   .     S
C1200  C1211   1.383   .     A
C1200  H1236   1.085   .     S
C1200  C1203   1.399   .     A
C1201  C1204   1.399   .     A
C1202  O1252   1.276   .     A
C1202  O1253   1.276   .     A
C1202  C1224   1.408   .     S
C1203  C1205   1.399   .     A
C1204  C1206   1.383   .     A
C1204  H1242   1.085   .     S
C1205  H1243   1.085   .     S
C1205  C1207   1.383   .     A
C1206  C1208   1.411   .     A
C1206  C1212   1.400   .     A
C1207  C1209   1.411   .     A
C1207  C1214   1.400   .     A
C1208  C1210   1.411   .     A
C1208  C579    1.391   1_556 S
C1209  C1211   1.411   .     A
C1210  C1219   1.400   .     A
C1211  C1213   1.400   .     A
C1212  H1244   1.084   .     S
C1212  C583    1.389   1_556 S
C1213  H1246   1.084   .     S
C1214  H1245   1.084   .     S
C1215  H1230   1.110   .     S
C1215  H1229   1.110   .     S
C1215  H1231   1.105   .     S
C1215  C1220   1.525   .     S
C1216  H1234   1.110   .     S
C1216  H1232   1.110   .     S
C1216  H1233   1.105   .     S
C1216  C1221   1.525   .     S
C1217  H1238   1.110   .     S
C1217  H1235   1.105   .     S
C1217  C1222   1.521   .     S
C1217  H1237   1.110   .     S
C1218  C1223   1.521   .     S
C1218  H1239   1.105   .     S
C1218  H1241   1.110   .     S
C1218  H1240   1.110   .     S
C1219  H1247   1.084   .     S
C1219  C584    1.389   1_556 S
C1221  C1224   1.407   .     A
C1221  C1083   1.394   1_655 S
C1222  C1224   1.409   .     A
C1222  C1080   1.394   1_655 S
N1249  Zn1259  2.008   .     S
N1250  Zn1260  2.008   .     S
O1251  Zn1259  1.984   .     S
O1252  Zn1260  1.984   .     S
O1253  Zn1259  1.984   .     S
O1254  Zn1260  1.984   .     S
O1255  Zn1259  2.019   .     S
O1256  Zn1260  2.019   .     S
O1257  Zn1259  2.019   .     S
O1258  Zn1260  2.019   .     S
