data_str_m3_o1_o1_pcu_sym.41
_audit_creation_date              2020-01-03
_audit_creation_method            'Materials Studio'
_symmetry_space_group_name_H-M    'P1'
_symmetry_Int_Tables_number       1
_symmetry_cell_setting            triclinic
loop_
_symmetry_equiv_pos_as_xyz
  x,y,z
_cell_length_a                    31.6656
_cell_length_b                    29.8515
_cell_length_c                    30.4163
_cell_angle_alpha                 90.6042
_cell_angle_beta                  90.0015
_cell_angle_gamma                 89.8843
loop_
_atom_site_label
_atom_site_type_symbol
_atom_site_fract_x
_atom_site_fract_y
_atom_site_fract_z
_atom_site_U_iso_or_equiv
_atom_site_adp_type
_atom_site_occupancy
C1     C     0.06233   0.19267   0.16606   0.00000  Uiso   1.00
C2     C     0.00076   0.20980   0.30865   0.00000  Uiso   1.00
C3     C     0.00077   0.20978   0.02368   0.00000  Uiso   1.00
C4     C     0.49963   0.29026   0.30964   0.00000  Uiso   1.00
C5     C     0.25020   0.04032   0.02468   0.00000  Uiso   1.00
C6     C     0.24936   0.45979   0.30869   0.00000  Uiso   1.00
C7     C     0.24933   0.45973   0.02373   0.00000  Uiso   1.00
C8     C     0.25001   0.04024   0.30961   0.00000  Uiso   1.00
C9     C     0.39066   0.13847   0.12550   0.00000  Uiso   1.00
C10    C     0.11013   0.36105   0.20835   0.00000  Uiso   1.00
C11    C     0.12012   0.34766   0.13028   0.00000  Uiso   1.00
C12    C     0.43826   0.30771   0.16654   0.00000  Uiso   1.00
C13    C     0.38771   0.14195   0.20645   0.00000  Uiso   1.00
C14    C     0.12023   0.15258   0.20334   0.00000  Uiso   1.00
C15    C     0.38165   0.34884   0.12694   0.00000  Uiso   1.00
C16    C     0.38326   0.35154   0.20480   0.00000  Uiso   1.00
C17    C     0.11059   0.13934   0.12520   0.00000  Uiso   1.00
C18    C     0.13956   0.38891   0.12572   0.00000  Uiso   1.00
C19    C     0.36687   0.10122   0.20543   0.00000  Uiso   1.00
C20    C     0.36921   0.09768   0.12765   0.00000  Uiso   1.00
C21    C     0.13040   0.40198   0.20398   0.00000  Uiso   1.00
C22    C     0.36281   0.39247   0.20626   0.00000  Uiso   1.00
C23    C     0.43754   0.19263   0.16648   0.00000  Uiso   1.00
C24    C     0.13048   0.09820   0.12961   0.00000  Uiso   1.00
C25    C     0.13982   0.11129   0.20786   0.00000  Uiso   1.00
C26    C     0.36073   0.39007   0.12504   0.00000  Uiso   1.00
C27    C     0.09916   0.33755   0.16936   0.00000  Uiso   1.00
C28    C     0.40226   0.16029   0.16588   0.00000  Uiso   1.00
C29    C     0.40195   0.33798   0.16591   0.00000  Uiso   1.00
C30    C     0.09946   0.16278   0.16416   0.00000  Uiso   1.00
C31    C     0.34845   0.08739   0.16642   0.00000  Uiso   1.00
C32    C     0.15090   0.41225   0.16458   0.00000  Uiso   1.00
C33    C     0.15095   0.08781   0.16896   0.00000  Uiso   1.00
C34    C     0.06224   0.30744   0.16731   0.00000  Uiso   1.00
C35    C     0.34869   0.41144   0.16572   0.00000  Uiso   1.00
C36    C     0.31273   0.44302   0.16646   0.00000  Uiso   1.00
C37    C     0.18779   0.05752   0.16725   0.00000  Uiso   1.00
C38    C     0.18778   0.44249   0.16612   0.00000  Uiso   1.00
C39    C     0.31185   0.05755   0.16665   0.00000  Uiso   1.00
C40    C     0.49955   0.29038   0.02473   0.00000  Uiso   1.00
H41    H     0.48877   0.38439   0.11342   0.00000  Uiso   1.00
H42    H     0.14835   0.34526   0.32036   0.00000  Uiso   1.00
H43    H     0.20207   0.29614   0.09355   0.00000  Uiso   1.00
H44    H     0.34437   0.16480   0.31445   0.00000  Uiso   1.00
H45    H     0.18668   0.21577   0.28024   0.00000  Uiso   1.00
H46    H     0.36963   0.27913   0.02841   0.00000  Uiso   1.00
H47    H     0.31274   0.28925   0.27795   0.00000  Uiso   1.00
H48    H     0.15117   0.15591   0.01423   0.00000  Uiso   1.00
H49    H     0.05989   0.45577   0.07148   0.00000  Uiso   1.00
H50    H     0.43370   0.04352   0.28550   0.00000  Uiso   1.00
H51    H     0.44646   0.03369   0.06358   0.00000  Uiso   1.00
H52    H     0.49127   0.11462   0.22108   0.00000  Uiso   1.00
H53    H     0.06722   0.46162   0.28614   0.00000  Uiso   1.00
H54    H     0.43767   0.45890   0.26853   0.00000  Uiso   1.00
H55    H     0.06677   0.03818   0.04815   0.00000  Uiso   1.00
H56    H     0.06191   0.04450   0.26457   0.00000  Uiso   1.00
H57    H     0.42117   0.44868   0.04210   0.00000  Uiso   1.00
H58    H     0.00868   0.11478   0.10938   0.00000  Uiso   1.00
H59    H     0.00465   0.38634   0.22471   0.00000  Uiso   1.00
H60    H     0.26073   0.13458   0.11300   0.00000  Uiso   1.00
H61    H     0.25640   0.36380   0.22155   0.00000  Uiso   1.00
H62    H     0.24277   0.36471   0.10968   0.00000  Uiso   1.00
H63    H     0.24389   0.13602   0.22440   0.00000  Uiso   1.00
H64    H     0.33100   0.20495   0.04832   0.00000  Uiso   1.00
N65    N     0.00000   0.25000   0.28573   0.00000  Uiso   1.00
N66    N    -0.00000   0.25000   0.04760   0.00000  Uiso   1.00
N67    N     0.25000   0.00000   0.28573   0.00000  Uiso   1.00
N68    N     0.25000   0.00000   0.04760   0.00000  Uiso   1.00
O69    O     0.04580   0.20419   0.20487   0.00000  Uiso   1.00
O70    O     0.20419   0.04581   0.12846   0.00000  Uiso   1.00
O71    O     0.20419   0.04581   0.20487   0.00000  Uiso   1.00
O72    O     0.29580   0.45419   0.12846   0.00000  Uiso   1.00
O73    O     0.20419   0.45419   0.12846   0.00000  Uiso   1.00
O74    O     0.29580   0.04581   0.20487   0.00000  Uiso   1.00
O75    O     0.29580   0.04581   0.12846   0.00000  Uiso   1.00
O76    O     0.20419   0.45419   0.20487   0.00000  Uiso   1.00
O77    O     0.02083   0.38005   0.03464   0.00000  Uiso   1.00
O78    O     0.44802   0.35782   0.04542   0.00000  Uiso   1.00
O79    O     0.00060   0.35420   0.10728   0.00000  Uiso   1.00
O80    O     0.45419   0.29581   0.12846   0.00000  Uiso   1.00
O81    O     0.02459   0.12150   0.29845   0.00000  Uiso   1.00
O82    O     0.45070   0.14226   0.29036   0.00000  Uiso   1.00
O83    O     0.00060   0.14591   0.22613   0.00000  Uiso   1.00
O84    O     0.47433   0.12296   0.03189   0.00000  Uiso   1.00
O85    O     0.04894   0.13909   0.04008   0.00000  Uiso   1.00
O86    O     0.49983   0.14622   0.10473   0.00000  Uiso   1.00
O87    O     0.47015   0.37561   0.30091   0.00000  Uiso   1.00
O88    O     0.04584   0.36225   0.29425   0.00000  Uiso   1.00
O89    O     0.49912   0.35395   0.22850   0.00000  Uiso   1.00
O90    O     0.30121   0.10787   0.04453   0.00000  Uiso   1.00
O91    O     0.45419   0.29581   0.20487   0.00000  Uiso   1.00
O92    O     0.22777   0.12938   0.03466   0.00000  Uiso   1.00
O93    O     0.24941   0.10416   0.10718   0.00000  Uiso   1.00
O94    O     0.29834   0.39089   0.29098   0.00000  Uiso   1.00
O95    O     0.22393   0.37240   0.29835   0.00000  Uiso   1.00
O96    O     0.24959   0.39591   0.22615   0.00000  Uiso   1.00
O97    O     0.20065   0.38963   0.04102   0.00000  Uiso   1.00
O98    O     0.27497   0.37211   0.03204   0.00000  Uiso   1.00
O99    O     0.25061   0.39637   0.10490   0.00000  Uiso   1.00
O100   O     0.20189   0.11090   0.29348   0.00000  Uiso   1.00
O101   O     0.27667   0.12667   0.30113   0.00000  Uiso   1.00
O102   O     0.04580   0.20419   0.12846   0.00000  Uiso   1.00
O103   O     0.25033   0.10384   0.22846   0.00000  Uiso   1.00
O104   O     0.41128   0.20487   0.06396   0.00000  Uiso   1.00
O105   O     0.38849   0.13199   0.03838   0.00000  Uiso   1.00
O106   O     0.33303   0.18503   0.07408   0.00000  Uiso   1.00
O107   O     0.09820   0.29456   0.26838   0.00000  Uiso   1.00
O108   O     0.17019   0.31061   0.24332   0.00000  Uiso   1.00
O109   O     0.13537   0.36485   0.29800   0.00000  Uiso   1.00
O110   O     0.13455   0.26203   0.12225   0.00000  Uiso   1.00
O111   O     0.10217   0.29819   0.05849   0.00000  Uiso   1.00
O112   O     0.18221   0.31024   0.07266   0.00000  Uiso   1.00
O113   O     0.45419   0.20419   0.12846   0.00000  Uiso   1.00
O114   O     0.40051   0.21085   0.26563   0.00000  Uiso   1.00
O115   O     0.32872   0.19713   0.23708   0.00000  Uiso   1.00
O116   O     0.35899   0.14398   0.29398   0.00000  Uiso   1.00
O117   O     0.13480   0.23823   0.21164   0.00000  Uiso   1.00
O118   O     0.10203   0.20185   0.27524   0.00000  Uiso   1.00
O119   O     0.18221   0.18940   0.26076   0.00000  Uiso   1.00
O120   O     0.36380   0.26116   0.12144   0.00000  Uiso   1.00
O121   O     0.31602   0.31216   0.08418   0.00000  Uiso   1.00
O122   O     0.38888   0.29579   0.04834   0.00000  Uiso   1.00
O123   O     0.36741   0.26681   0.21184   0.00000  Uiso   1.00
O124   O     0.04580   0.29581   0.20487   0.00000  Uiso   1.00
O125   O     0.39725   0.30356   0.27746   0.00000  Uiso   1.00
O126   O     0.31774   0.31525   0.25868   0.00000  Uiso   1.00
O127   O     0.10019   0.20595   0.06537   0.00000  Uiso   1.00
O128   O     0.17164   0.18991   0.09252   0.00000  Uiso   1.00
O129   O     0.13868   0.13592   0.03649   0.00000  Uiso   1.00
O130   O     0.14759   0.45497   0.06506   0.00000  Uiso   1.00
O131   O     0.10813   0.38843   0.04366   0.00000  Uiso   1.00
O132   O     0.07247   0.44246   0.09816   0.00000  Uiso   1.00
O133   O     0.35128   0.05399   0.27833   0.00000  Uiso   1.00
O134   O     0.38275   0.01628   0.21407   0.00000  Uiso   1.00
O135   O     0.04580   0.29581   0.12846   0.00000  Uiso   1.00
O136   O     0.43115   0.06547   0.26144   0.00000  Uiso   1.00
O137   O     0.38544   0.00988   0.12250   0.00000  Uiso   1.00
O138   O     0.36211   0.04578   0.05465   0.00000  Uiso   1.00
O139   O     0.43867   0.05995   0.08204   0.00000  Uiso   1.00
O140   O     0.14932   0.45168   0.27533   0.00000  Uiso   1.00
O141   O     0.11569   0.48762   0.21195   0.00000  Uiso   1.00
O142   O     0.06894   0.43922   0.26195   0.00000  Uiso   1.00
O143   O     0.34847   0.46004   0.26703   0.00000  Uiso   1.00
O144   O     0.38676   0.39422   0.29054   0.00000  Uiso   1.00
O145   O     0.42612   0.44803   0.24010   0.00000  Uiso   1.00
O146   O     0.45419   0.20419   0.20487   0.00000  Uiso   1.00
O147   O     0.14906   0.04841   0.05815   0.00000  Uiso   1.00
O148   O     0.11586   0.01274   0.12184   0.00000  Uiso   1.00
O149   O     0.06872   0.06099   0.07195   0.00000  Uiso   1.00
O150   O     0.14921   0.04505   0.26839   0.00000  Uiso   1.00
O151   O     0.11099   0.11210   0.29099   0.00000  Uiso   1.00
O152   O     0.07334   0.05845   0.23768   0.00000  Uiso   1.00
O153   O     0.36264   0.38382   0.03729   0.00000  Uiso   1.00
O154   O     0.33850   0.45603   0.06354   0.00000  Uiso   1.00
O155   O     0.41715   0.43756   0.07239   0.00000  Uiso   1.00
O156   O     0.29580   0.45419   0.20487   0.00000  Uiso   1.00
S157   S     0.49295   0.34482   0.05364   0.00000  Uiso   1.00
S158   S     0.12803   0.33080   0.25477   0.00000  Uiso   1.00
S159   S     0.13411   0.30331   0.09472   0.00000  Uiso   1.00
S160   S     0.36964   0.17583   0.25078   0.00000  Uiso   1.00
S161   S     0.13406   0.19688   0.23904   0.00000  Uiso   1.00
S162   S     0.36149   0.30333   0.09513   0.00000  Uiso   1.00
S163   S     0.36698   0.30832   0.23975   0.00000  Uiso   1.00
S164   S     0.12992   0.16975   0.07963   0.00000  Uiso   1.00
S165   S     0.11822   0.41938   0.08117   0.00000  Uiso   1.00
S166   S     0.38239   0.05829   0.24131   0.00000  Uiso   1.00
S167   S     0.38795   0.05170   0.09568   0.00000  Uiso   1.00
S168   S     0.49502   0.15563   0.28002   0.00000  Uiso   1.00
S169   S     0.11684   0.44647   0.23961   0.00000  Uiso   1.00
S170   S     0.37937   0.42473   0.25260   0.00000  Uiso   1.00
S171   S     0.11675   0.05379   0.09404   0.00000  Uiso   1.00
S172   S     0.11970   0.08104   0.25317   0.00000  Uiso   1.00
S173   S     0.36749   0.41779   0.07347   0.00000  Uiso   1.00
S174   S     0.00545   0.15532   0.05099   0.00000  Uiso   1.00
S175   S     0.00309   0.34471   0.28238   0.00000  Uiso   1.00
S176   S     0.25648   0.09466   0.05347   0.00000  Uiso   1.00
S177   S     0.25447   0.40554   0.28012   0.00000  Uiso   1.00
S178   S     0.24443   0.40523   0.05120   0.00000  Uiso   1.00
S179   S     0.24526   0.09457   0.28223   0.00000  Uiso   1.00
S180   S     0.38312   0.16616   0.07428   0.00000  Uiso   1.00
Zn181  Zn   -0.00000   0.25000   0.21771   0.00000  Uiso   1.00
Zn182  Zn    0.00000   0.25000   0.11563   0.00000  Uiso   1.00
Zn183  Zn    0.25000   0.00000   0.21771   0.00000  Uiso   1.00
Zn184  Zn    0.25000   0.00000   0.11563   0.00000  Uiso   1.00
C185   C     0.56233   0.19267   0.16606   0.00000  Uiso   1.00
C186   C     0.50076   0.20980   0.30865   0.00000  Uiso   1.00
C187   C     0.50077   0.20978   0.02368   0.00000  Uiso   1.00
C188   C     0.99963   0.29026   0.30964   0.00000  Uiso   1.00
C189   C     0.75020   0.04032   0.02468   0.00000  Uiso   1.00
C190   C     0.74936   0.45979   0.30869   0.00000  Uiso   1.00
C191   C     0.74933   0.45973   0.02373   0.00000  Uiso   1.00
C192   C     0.75001   0.04024   0.30961   0.00000  Uiso   1.00
C193   C     0.89066   0.13847   0.12550   0.00000  Uiso   1.00
C194   C     0.61013   0.36105   0.20835   0.00000  Uiso   1.00
C195   C     0.62012   0.34766   0.13028   0.00000  Uiso   1.00
C196   C     0.93826   0.30771   0.16654   0.00000  Uiso   1.00
C197   C     0.88771   0.14195   0.20645   0.00000  Uiso   1.00
C198   C     0.62023   0.15258   0.20334   0.00000  Uiso   1.00
C199   C     0.88165   0.34884   0.12694   0.00000  Uiso   1.00
C200   C     0.88326   0.35154   0.20480   0.00000  Uiso   1.00
C201   C     0.61059   0.13934   0.12520   0.00000  Uiso   1.00
C202   C     0.63956   0.38891   0.12572   0.00000  Uiso   1.00
C203   C     0.86687   0.10122   0.20543   0.00000  Uiso   1.00
C204   C     0.86921   0.09768   0.12765   0.00000  Uiso   1.00
C205   C     0.63040   0.40198   0.20398   0.00000  Uiso   1.00
C206   C     0.86281   0.39247   0.20626   0.00000  Uiso   1.00
C207   C     0.93754   0.19263   0.16648   0.00000  Uiso   1.00
C208   C     0.63048   0.09820   0.12961   0.00000  Uiso   1.00
C209   C     0.63982   0.11129   0.20786   0.00000  Uiso   1.00
C210   C     0.86073   0.39007   0.12504   0.00000  Uiso   1.00
C211   C     0.59916   0.33755   0.16936   0.00000  Uiso   1.00
C212   C     0.90226   0.16029   0.16588   0.00000  Uiso   1.00
C213   C     0.90195   0.33798   0.16591   0.00000  Uiso   1.00
C214   C     0.59946   0.16278   0.16416   0.00000  Uiso   1.00
C215   C     0.84845   0.08739   0.16642   0.00000  Uiso   1.00
C216   C     0.65090   0.41225   0.16458   0.00000  Uiso   1.00
C217   C     0.65095   0.08781   0.16896   0.00000  Uiso   1.00
C218   C     0.56224   0.30744   0.16731   0.00000  Uiso   1.00
C219   C     0.84869   0.41144   0.16572   0.00000  Uiso   1.00
C220   C     0.81273   0.44302   0.16646   0.00000  Uiso   1.00
C221   C     0.68779   0.05752   0.16725   0.00000  Uiso   1.00
C222   C     0.68778   0.44249   0.16612   0.00000  Uiso   1.00
C223   C     0.81185   0.05755   0.16665   0.00000  Uiso   1.00
C224   C     0.99955   0.29038   0.02473   0.00000  Uiso   1.00
H225   H     0.98877   0.38439   0.11342   0.00000  Uiso   1.00
H226   H     0.64835   0.34526   0.32036   0.00000  Uiso   1.00
H227   H     0.70207   0.29614   0.09355   0.00000  Uiso   1.00
H228   H     0.84437   0.16480   0.31445   0.00000  Uiso   1.00
H229   H     0.68668   0.21577   0.28024   0.00000  Uiso   1.00
H230   H     0.86963   0.27913   0.02841   0.00000  Uiso   1.00
H231   H     0.81274   0.28925   0.27795   0.00000  Uiso   1.00
H232   H     0.65117   0.15591   0.01423   0.00000  Uiso   1.00
H233   H     0.55989   0.45577   0.07148   0.00000  Uiso   1.00
H234   H     0.93370   0.04352   0.28550   0.00000  Uiso   1.00
H235   H     0.94646   0.03369   0.06358   0.00000  Uiso   1.00
H236   H     0.99127   0.11462   0.22108   0.00000  Uiso   1.00
H237   H     0.56722   0.46162   0.28614   0.00000  Uiso   1.00
H238   H     0.93767   0.45890   0.26853   0.00000  Uiso   1.00
H239   H     0.56677   0.03818   0.04815   0.00000  Uiso   1.00
H240   H     0.56191   0.04450   0.26457   0.00000  Uiso   1.00
H241   H     0.92117   0.44868   0.04210   0.00000  Uiso   1.00
H242   H     0.50868   0.11478   0.10938   0.00000  Uiso   1.00
H243   H     0.50465   0.38634   0.22471   0.00000  Uiso   1.00
H244   H     0.76073   0.13458   0.11300   0.00000  Uiso   1.00
H245   H     0.75640   0.36380   0.22155   0.00000  Uiso   1.00
H246   H     0.74277   0.36471   0.10968   0.00000  Uiso   1.00
H247   H     0.74389   0.13602   0.22440   0.00000  Uiso   1.00
H248   H     0.83100   0.20495   0.04832   0.00000  Uiso   1.00
N249   N     0.50000   0.25000   0.28573   0.00000  Uiso   1.00
N250   N     0.50000   0.25000   0.04760   0.00000  Uiso   1.00
N251   N     0.75000   0.00000   0.28573   0.00000  Uiso   1.00
N252   N     0.75000   0.00000   0.04760   0.00000  Uiso   1.00
O253   O     0.54580   0.20419   0.20487   0.00000  Uiso   1.00
O254   O     0.70419   0.04581   0.12846   0.00000  Uiso   1.00
O255   O     0.70419   0.04581   0.20487   0.00000  Uiso   1.00
O256   O     0.79580   0.45419   0.12846   0.00000  Uiso   1.00
O257   O     0.70419   0.45419   0.12846   0.00000  Uiso   1.00
O258   O     0.79580   0.04581   0.20487   0.00000  Uiso   1.00
O259   O     0.79580   0.04581   0.12846   0.00000  Uiso   1.00
O260   O     0.70419   0.45419   0.20487   0.00000  Uiso   1.00
O261   O     0.52083   0.38005   0.03464   0.00000  Uiso   1.00
O262   O     0.94802   0.35782   0.04542   0.00000  Uiso   1.00
O263   O     0.50060   0.35420   0.10728   0.00000  Uiso   1.00
O264   O     0.95419   0.29581   0.12846   0.00000  Uiso   1.00
O265   O     0.52459   0.12150   0.29845   0.00000  Uiso   1.00
O266   O     0.95070   0.14226   0.29036   0.00000  Uiso   1.00
O267   O     0.50060   0.14591   0.22613   0.00000  Uiso   1.00
O268   O     0.97433   0.12296   0.03189   0.00000  Uiso   1.00
O269   O     0.54894   0.13909   0.04008   0.00000  Uiso   1.00
O270   O     0.99983   0.14622   0.10473   0.00000  Uiso   1.00
O271   O     0.97015   0.37561   0.30091   0.00000  Uiso   1.00
O272   O     0.54584   0.36225   0.29425   0.00000  Uiso   1.00
O273   O     0.99912   0.35395   0.22850   0.00000  Uiso   1.00
O274   O     0.80121   0.10787   0.04453   0.00000  Uiso   1.00
O275   O     0.95419   0.29581   0.20487   0.00000  Uiso   1.00
O276   O     0.72777   0.12938   0.03466   0.00000  Uiso   1.00
O277   O     0.74941   0.10416   0.10718   0.00000  Uiso   1.00
O278   O     0.79834   0.39089   0.29098   0.00000  Uiso   1.00
O279   O     0.72393   0.37240   0.29835   0.00000  Uiso   1.00
O280   O     0.74959   0.39591   0.22615   0.00000  Uiso   1.00
O281   O     0.70065   0.38963   0.04102   0.00000  Uiso   1.00
O282   O     0.77497   0.37211   0.03204   0.00000  Uiso   1.00
O283   O     0.75061   0.39637   0.10490   0.00000  Uiso   1.00
O284   O     0.70189   0.11090   0.29348   0.00000  Uiso   1.00
O285   O     0.77667   0.12667   0.30113   0.00000  Uiso   1.00
O286   O     0.54580   0.20419   0.12846   0.00000  Uiso   1.00
O287   O     0.75033   0.10384   0.22846   0.00000  Uiso   1.00
O288   O     0.91128   0.20487   0.06396   0.00000  Uiso   1.00
O289   O     0.88849   0.13199   0.03838   0.00000  Uiso   1.00
O290   O     0.83303   0.18503   0.07408   0.00000  Uiso   1.00
O291   O     0.59820   0.29456   0.26838   0.00000  Uiso   1.00
O292   O     0.67019   0.31061   0.24332   0.00000  Uiso   1.00
O293   O     0.63537   0.36485   0.29800   0.00000  Uiso   1.00
O294   O     0.63455   0.26203   0.12225   0.00000  Uiso   1.00
O295   O     0.60217   0.29819   0.05849   0.00000  Uiso   1.00
O296   O     0.68221   0.31024   0.07266   0.00000  Uiso   1.00
O297   O     0.95419   0.20419   0.12846   0.00000  Uiso   1.00
O298   O     0.90051   0.21085   0.26563   0.00000  Uiso   1.00
O299   O     0.82872   0.19713   0.23708   0.00000  Uiso   1.00
O300   O     0.85899   0.14398   0.29398   0.00000  Uiso   1.00
O301   O     0.63480   0.23823   0.21164   0.00000  Uiso   1.00
O302   O     0.60203   0.20185   0.27524   0.00000  Uiso   1.00
O303   O     0.68221   0.18940   0.26076   0.00000  Uiso   1.00
O304   O     0.86380   0.26116   0.12144   0.00000  Uiso   1.00
O305   O     0.81602   0.31216   0.08418   0.00000  Uiso   1.00
O306   O     0.88888   0.29579   0.04834   0.00000  Uiso   1.00
O307   O     0.86741   0.26681   0.21184   0.00000  Uiso   1.00
O308   O     0.54580   0.29581   0.20487   0.00000  Uiso   1.00
O309   O     0.89725   0.30356   0.27746   0.00000  Uiso   1.00
O310   O     0.81774   0.31525   0.25868   0.00000  Uiso   1.00
O311   O     0.60019   0.20595   0.06537   0.00000  Uiso   1.00
O312   O     0.67164   0.18991   0.09252   0.00000  Uiso   1.00
O313   O     0.63868   0.13592   0.03649   0.00000  Uiso   1.00
O314   O     0.64759   0.45497   0.06506   0.00000  Uiso   1.00
O315   O     0.60813   0.38843   0.04366   0.00000  Uiso   1.00
O316   O     0.57247   0.44246   0.09816   0.00000  Uiso   1.00
O317   O     0.85128   0.05399   0.27833   0.00000  Uiso   1.00
O318   O     0.88275   0.01628   0.21407   0.00000  Uiso   1.00
O319   O     0.54580   0.29581   0.12846   0.00000  Uiso   1.00
O320   O     0.93115   0.06547   0.26144   0.00000  Uiso   1.00
O321   O     0.88544   0.00988   0.12250   0.00000  Uiso   1.00
O322   O     0.86211   0.04578   0.05465   0.00000  Uiso   1.00
O323   O     0.93867   0.05995   0.08204   0.00000  Uiso   1.00
O324   O     0.64932   0.45168   0.27533   0.00000  Uiso   1.00
O325   O     0.61569   0.48762   0.21195   0.00000  Uiso   1.00
O326   O     0.56894   0.43922   0.26195   0.00000  Uiso   1.00
O327   O     0.84847   0.46004   0.26703   0.00000  Uiso   1.00
O328   O     0.88676   0.39422   0.29054   0.00000  Uiso   1.00
O329   O     0.92612   0.44803   0.24010   0.00000  Uiso   1.00
O330   O     0.95419   0.20419   0.20487   0.00000  Uiso   1.00
O331   O     0.64906   0.04841   0.05815   0.00000  Uiso   1.00
O332   O     0.61586   0.01274   0.12184   0.00000  Uiso   1.00
O333   O     0.56872   0.06099   0.07195   0.00000  Uiso   1.00
O334   O     0.64921   0.04505   0.26839   0.00000  Uiso   1.00
O335   O     0.61099   0.11210   0.29099   0.00000  Uiso   1.00
O336   O     0.57334   0.05845   0.23768   0.00000  Uiso   1.00
O337   O     0.86264   0.38382   0.03729   0.00000  Uiso   1.00
O338   O     0.83850   0.45603   0.06354   0.00000  Uiso   1.00
O339   O     0.91715   0.43756   0.07239   0.00000  Uiso   1.00
O340   O     0.79580   0.45419   0.20487   0.00000  Uiso   1.00
S341   S     0.99295   0.34482   0.05364   0.00000  Uiso   1.00
S342   S     0.62803   0.33080   0.25477   0.00000  Uiso   1.00
S343   S     0.63411   0.30331   0.09472   0.00000  Uiso   1.00
S344   S     0.86964   0.17583   0.25078   0.00000  Uiso   1.00
S345   S     0.63406   0.19688   0.23904   0.00000  Uiso   1.00
S346   S     0.86149   0.30333   0.09513   0.00000  Uiso   1.00
S347   S     0.86698   0.30832   0.23975   0.00000  Uiso   1.00
S348   S     0.62992   0.16975   0.07963   0.00000  Uiso   1.00
S349   S     0.61822   0.41938   0.08117   0.00000  Uiso   1.00
S350   S     0.88239   0.05829   0.24131   0.00000  Uiso   1.00
S351   S     0.88795   0.05170   0.09568   0.00000  Uiso   1.00
S352   S     0.99502   0.15563   0.28002   0.00000  Uiso   1.00
S353   S     0.61684   0.44647   0.23961   0.00000  Uiso   1.00
S354   S     0.87937   0.42473   0.25260   0.00000  Uiso   1.00
S355   S     0.61675   0.05379   0.09404   0.00000  Uiso   1.00
S356   S     0.61970   0.08104   0.25317   0.00000  Uiso   1.00
S357   S     0.86749   0.41779   0.07347   0.00000  Uiso   1.00
S358   S     0.50545   0.15532   0.05099   0.00000  Uiso   1.00
S359   S     0.50309   0.34471   0.28238   0.00000  Uiso   1.00
S360   S     0.75648   0.09466   0.05347   0.00000  Uiso   1.00
S361   S     0.75447   0.40554   0.28012   0.00000  Uiso   1.00
S362   S     0.74443   0.40523   0.05120   0.00000  Uiso   1.00
S363   S     0.74526   0.09457   0.28223   0.00000  Uiso   1.00
S364   S     0.88312   0.16616   0.07428   0.00000  Uiso   1.00
Zn365  Zn    0.50000   0.25000   0.21771   0.00000  Uiso   1.00
Zn366  Zn    0.50000   0.25000   0.11563   0.00000  Uiso   1.00
Zn367  Zn    0.75000   0.00000   0.21771   0.00000  Uiso   1.00
Zn368  Zn    0.75000   0.00000   0.11563   0.00000  Uiso   1.00
C369   C     0.06233   0.69267   0.16606   0.00000  Uiso   1.00
C370   C     0.00076   0.70980   0.30865   0.00000  Uiso   1.00
C371   C     0.00077   0.70978   0.02368   0.00000  Uiso   1.00
C372   C     0.49963   0.79026   0.30964   0.00000  Uiso   1.00
C373   C     0.25020   0.54032   0.02468   0.00000  Uiso   1.00
C374   C     0.24936   0.95979   0.30869   0.00000  Uiso   1.00
C375   C     0.24933   0.95973   0.02373   0.00000  Uiso   1.00
C376   C     0.25001   0.54024   0.30961   0.00000  Uiso   1.00
C377   C     0.39066   0.63847   0.12550   0.00000  Uiso   1.00
C378   C     0.11013   0.86105   0.20835   0.00000  Uiso   1.00
C379   C     0.12012   0.84766   0.13028   0.00000  Uiso   1.00
C380   C     0.43826   0.80771   0.16654   0.00000  Uiso   1.00
C381   C     0.38771   0.64195   0.20645   0.00000  Uiso   1.00
C382   C     0.12023   0.65258   0.20334   0.00000  Uiso   1.00
C383   C     0.38165   0.84884   0.12694   0.00000  Uiso   1.00
C384   C     0.38326   0.85154   0.20480   0.00000  Uiso   1.00
C385   C     0.11059   0.63934   0.12520   0.00000  Uiso   1.00
C386   C     0.13956   0.88891   0.12572   0.00000  Uiso   1.00
C387   C     0.36687   0.60122   0.20543   0.00000  Uiso   1.00
C388   C     0.36921   0.59768   0.12765   0.00000  Uiso   1.00
C389   C     0.13040   0.90198   0.20398   0.00000  Uiso   1.00
C390   C     0.36281   0.89247   0.20626   0.00000  Uiso   1.00
C391   C     0.43754   0.69263   0.16648   0.00000  Uiso   1.00
C392   C     0.13048   0.59820   0.12961   0.00000  Uiso   1.00
C393   C     0.13982   0.61129   0.20786   0.00000  Uiso   1.00
C394   C     0.36073   0.89007   0.12504   0.00000  Uiso   1.00
C395   C     0.09916   0.83755   0.16936   0.00000  Uiso   1.00
C396   C     0.40226   0.66029   0.16588   0.00000  Uiso   1.00
C397   C     0.40195   0.83798   0.16591   0.00000  Uiso   1.00
C398   C     0.09946   0.66278   0.16416   0.00000  Uiso   1.00
C399   C     0.34845   0.58739   0.16642   0.00000  Uiso   1.00
C400   C     0.15090   0.91225   0.16458   0.00000  Uiso   1.00
C401   C     0.15095   0.58781   0.16896   0.00000  Uiso   1.00
C402   C     0.06224   0.80744   0.16731   0.00000  Uiso   1.00
C403   C     0.34869   0.91144   0.16572   0.00000  Uiso   1.00
C404   C     0.31273   0.94302   0.16646   0.00000  Uiso   1.00
C405   C     0.18779   0.55752   0.16725   0.00000  Uiso   1.00
C406   C     0.18778   0.94249   0.16612   0.00000  Uiso   1.00
C407   C     0.31185   0.55755   0.16665   0.00000  Uiso   1.00
C408   C     0.49955   0.79038   0.02473   0.00000  Uiso   1.00
H409   H     0.48877   0.88439   0.11342   0.00000  Uiso   1.00
H410   H     0.14835   0.84526   0.32036   0.00000  Uiso   1.00
H411   H     0.20207   0.79614   0.09355   0.00000  Uiso   1.00
H412   H     0.34437   0.66480   0.31445   0.00000  Uiso   1.00
H413   H     0.18668   0.71577   0.28024   0.00000  Uiso   1.00
H414   H     0.36963   0.77913   0.02841   0.00000  Uiso   1.00
H415   H     0.31274   0.78925   0.27795   0.00000  Uiso   1.00
H416   H     0.15117   0.65591   0.01423   0.00000  Uiso   1.00
H417   H     0.05989   0.95577   0.07148   0.00000  Uiso   1.00
H418   H     0.43370   0.54352   0.28550   0.00000  Uiso   1.00
H419   H     0.44646   0.53369   0.06358   0.00000  Uiso   1.00
H420   H     0.49127   0.61462   0.22108   0.00000  Uiso   1.00
H421   H     0.06722   0.96162   0.28614   0.00000  Uiso   1.00
H422   H     0.43767   0.95890   0.26853   0.00000  Uiso   1.00
H423   H     0.06677   0.53818   0.04815   0.00000  Uiso   1.00
H424   H     0.06191   0.54450   0.26457   0.00000  Uiso   1.00
H425   H     0.42117   0.94868   0.04210   0.00000  Uiso   1.00
H426   H     0.00868   0.61478   0.10938   0.00000  Uiso   1.00
H427   H     0.00465   0.88634   0.22471   0.00000  Uiso   1.00
H428   H     0.26073   0.63458   0.11300   0.00000  Uiso   1.00
H429   H     0.25640   0.86380   0.22155   0.00000  Uiso   1.00
H430   H     0.24277   0.86471   0.10968   0.00000  Uiso   1.00
H431   H     0.24389   0.63602   0.22440   0.00000  Uiso   1.00
H432   H     0.33100   0.70495   0.04832   0.00000  Uiso   1.00
N433   N     0.00000   0.75000   0.28573   0.00000  Uiso   1.00
N434   N    -0.00000   0.75000   0.04760   0.00000  Uiso   1.00
N435   N     0.25000   0.50000   0.28573   0.00000  Uiso   1.00
N436   N     0.25000   0.50000   0.04760   0.00000  Uiso   1.00
O437   O     0.04580   0.70419   0.20487   0.00000  Uiso   1.00
O438   O     0.20419   0.54581   0.12846   0.00000  Uiso   1.00
O439   O     0.20419   0.54581   0.20487   0.00000  Uiso   1.00
O440   O     0.29580   0.95419   0.12846   0.00000  Uiso   1.00
O441   O     0.20419   0.95419   0.12846   0.00000  Uiso   1.00
O442   O     0.29580   0.54581   0.20487   0.00000  Uiso   1.00
O443   O     0.29580   0.54581   0.12846   0.00000  Uiso   1.00
O444   O     0.20419   0.95419   0.20487   0.00000  Uiso   1.00
O445   O     0.02083   0.88005   0.03464   0.00000  Uiso   1.00
O446   O     0.44802   0.85782   0.04542   0.00000  Uiso   1.00
O447   O     0.00060   0.85420   0.10728   0.00000  Uiso   1.00
O448   O     0.45419   0.79581   0.12846   0.00000  Uiso   1.00
O449   O     0.02459   0.62150   0.29845   0.00000  Uiso   1.00
O450   O     0.45070   0.64226   0.29036   0.00000  Uiso   1.00
O451   O     0.00060   0.64591   0.22613   0.00000  Uiso   1.00
O452   O     0.47433   0.62296   0.03189   0.00000  Uiso   1.00
O453   O     0.04894   0.63909   0.04008   0.00000  Uiso   1.00
O454   O     0.49983   0.64622   0.10473   0.00000  Uiso   1.00
O455   O     0.47015   0.87561   0.30091   0.00000  Uiso   1.00
O456   O     0.04584   0.86225   0.29425   0.00000  Uiso   1.00
O457   O     0.49912   0.85395   0.22850   0.00000  Uiso   1.00
O458   O     0.30121   0.60787   0.04453   0.00000  Uiso   1.00
O459   O     0.45419   0.79581   0.20487   0.00000  Uiso   1.00
O460   O     0.22777   0.62938   0.03466   0.00000  Uiso   1.00
O461   O     0.24941   0.60416   0.10718   0.00000  Uiso   1.00
O462   O     0.29834   0.89089   0.29098   0.00000  Uiso   1.00
O463   O     0.22393   0.87240   0.29835   0.00000  Uiso   1.00
O464   O     0.24959   0.89591   0.22615   0.00000  Uiso   1.00
O465   O     0.20065   0.88963   0.04102   0.00000  Uiso   1.00
O466   O     0.27497   0.87211   0.03204   0.00000  Uiso   1.00
O467   O     0.25061   0.89637   0.10490   0.00000  Uiso   1.00
O468   O     0.20189   0.61090   0.29348   0.00000  Uiso   1.00
O469   O     0.27667   0.62667   0.30113   0.00000  Uiso   1.00
O470   O     0.04580   0.70419   0.12846   0.00000  Uiso   1.00
O471   O     0.25033   0.60384   0.22846   0.00000  Uiso   1.00
O472   O     0.41128   0.70487   0.06396   0.00000  Uiso   1.00
O473   O     0.38849   0.63199   0.03838   0.00000  Uiso   1.00
O474   O     0.33303   0.68503   0.07408   0.00000  Uiso   1.00
O475   O     0.09820   0.79456   0.26838   0.00000  Uiso   1.00
O476   O     0.17019   0.81061   0.24332   0.00000  Uiso   1.00
O477   O     0.13537   0.86485   0.29800   0.00000  Uiso   1.00
O478   O     0.13455   0.76203   0.12225   0.00000  Uiso   1.00
O479   O     0.10217   0.79819   0.05849   0.00000  Uiso   1.00
O480   O     0.18221   0.81024   0.07266   0.00000  Uiso   1.00
O481   O     0.45419   0.70419   0.12846   0.00000  Uiso   1.00
O482   O     0.40051   0.71085   0.26563   0.00000  Uiso   1.00
O483   O     0.32872   0.69713   0.23708   0.00000  Uiso   1.00
O484   O     0.35899   0.64398   0.29398   0.00000  Uiso   1.00
O485   O     0.13480   0.73823   0.21164   0.00000  Uiso   1.00
O486   O     0.10203   0.70185   0.27524   0.00000  Uiso   1.00
O487   O     0.18221   0.68940   0.26076   0.00000  Uiso   1.00
O488   O     0.36380   0.76116   0.12144   0.00000  Uiso   1.00
O489   O     0.31602   0.81216   0.08418   0.00000  Uiso   1.00
O490   O     0.38888   0.79579   0.04834   0.00000  Uiso   1.00
O491   O     0.36741   0.76681   0.21184   0.00000  Uiso   1.00
O492   O     0.04580   0.79581   0.20487   0.00000  Uiso   1.00
O493   O     0.39725   0.80356   0.27746   0.00000  Uiso   1.00
O494   O     0.31774   0.81525   0.25868   0.00000  Uiso   1.00
O495   O     0.10019   0.70595   0.06537   0.00000  Uiso   1.00
O496   O     0.17164   0.68991   0.09252   0.00000  Uiso   1.00
O497   O     0.13868   0.63592   0.03649   0.00000  Uiso   1.00
O498   O     0.14759   0.95497   0.06506   0.00000  Uiso   1.00
O499   O     0.10813   0.88843   0.04366   0.00000  Uiso   1.00
O500   O     0.07247   0.94246   0.09816   0.00000  Uiso   1.00
O501   O     0.35128   0.55399   0.27833   0.00000  Uiso   1.00
O502   O     0.38275   0.51628   0.21407   0.00000  Uiso   1.00
O503   O     0.04580   0.79581   0.12846   0.00000  Uiso   1.00
O504   O     0.43115   0.56547   0.26144   0.00000  Uiso   1.00
O505   O     0.38544   0.50988   0.12250   0.00000  Uiso   1.00
O506   O     0.36211   0.54578   0.05465   0.00000  Uiso   1.00
O507   O     0.43867   0.55995   0.08204   0.00000  Uiso   1.00
O508   O     0.14932   0.95168   0.27533   0.00000  Uiso   1.00
O509   O     0.11569   0.98762   0.21195   0.00000  Uiso   1.00
O510   O     0.06894   0.93922   0.26195   0.00000  Uiso   1.00
O511   O     0.34847   0.96004   0.26703   0.00000  Uiso   1.00
O512   O     0.38676   0.89422   0.29054   0.00000  Uiso   1.00
O513   O     0.42612   0.94803   0.24010   0.00000  Uiso   1.00
O514   O     0.45419   0.70419   0.20487   0.00000  Uiso   1.00
O515   O     0.14906   0.54841   0.05815   0.00000  Uiso   1.00
O516   O     0.11586   0.51274   0.12184   0.00000  Uiso   1.00
O517   O     0.06872   0.56099   0.07195   0.00000  Uiso   1.00
O518   O     0.14921   0.54505   0.26839   0.00000  Uiso   1.00
O519   O     0.11099   0.61210   0.29099   0.00000  Uiso   1.00
O520   O     0.07334   0.55845   0.23768   0.00000  Uiso   1.00
O521   O     0.36264   0.88382   0.03729   0.00000  Uiso   1.00
O522   O     0.33850   0.95603   0.06354   0.00000  Uiso   1.00
O523   O     0.41715   0.93756   0.07239   0.00000  Uiso   1.00
O524   O     0.29580   0.95419   0.20487   0.00000  Uiso   1.00
S525   S     0.49295   0.84482   0.05364   0.00000  Uiso   1.00
S526   S     0.12803   0.83080   0.25477   0.00000  Uiso   1.00
S527   S     0.13411   0.80331   0.09472   0.00000  Uiso   1.00
S528   S     0.36964   0.67583   0.25078   0.00000  Uiso   1.00
S529   S     0.13406   0.69688   0.23904   0.00000  Uiso   1.00
S530   S     0.36149   0.80333   0.09513   0.00000  Uiso   1.00
S531   S     0.36698   0.80832   0.23975   0.00000  Uiso   1.00
S532   S     0.12992   0.66975   0.07963   0.00000  Uiso   1.00
S533   S     0.11822   0.91938   0.08117   0.00000  Uiso   1.00
S534   S     0.38239   0.55829   0.24131   0.00000  Uiso   1.00
S535   S     0.38795   0.55170   0.09568   0.00000  Uiso   1.00
S536   S     0.49502   0.65563   0.28002   0.00000  Uiso   1.00
S537   S     0.11684   0.94647   0.23961   0.00000  Uiso   1.00
S538   S     0.37937   0.92473   0.25260   0.00000  Uiso   1.00
S539   S     0.11675   0.55379   0.09404   0.00000  Uiso   1.00
S540   S     0.11970   0.58104   0.25317   0.00000  Uiso   1.00
S541   S     0.36749   0.91779   0.07347   0.00000  Uiso   1.00
S542   S     0.00545   0.65532   0.05099   0.00000  Uiso   1.00
S543   S     0.00309   0.84471   0.28238   0.00000  Uiso   1.00
S544   S     0.25648   0.59466   0.05347   0.00000  Uiso   1.00
S545   S     0.25447   0.90554   0.28012   0.00000  Uiso   1.00
S546   S     0.24443   0.90523   0.05120   0.00000  Uiso   1.00
S547   S     0.24526   0.59457   0.28223   0.00000  Uiso   1.00
S548   S     0.38312   0.66616   0.07428   0.00000  Uiso   1.00
Zn549  Zn   -0.00000   0.75000   0.21771   0.00000  Uiso   1.00
Zn550  Zn    0.00000   0.75000   0.11563   0.00000  Uiso   1.00
Zn551  Zn    0.25000   0.50000   0.21771   0.00000  Uiso   1.00
Zn552  Zn    0.25000   0.50000   0.11563   0.00000  Uiso   1.00
C553   C     0.56233   0.69267   0.16606   0.00000  Uiso   1.00
C554   C     0.50076   0.70980   0.30865   0.00000  Uiso   1.00
C555   C     0.50077   0.70978   0.02368   0.00000  Uiso   1.00
C556   C     0.99963   0.79026   0.30964   0.00000  Uiso   1.00
C557   C     0.75020   0.54032   0.02468   0.00000  Uiso   1.00
C558   C     0.74936   0.95979   0.30869   0.00000  Uiso   1.00
C559   C     0.74933   0.95973   0.02373   0.00000  Uiso   1.00
C560   C     0.75001   0.54024   0.30961   0.00000  Uiso   1.00
C561   C     0.89066   0.63847   0.12550   0.00000  Uiso   1.00
C562   C     0.61013   0.86105   0.20835   0.00000  Uiso   1.00
C563   C     0.62012   0.84766   0.13028   0.00000  Uiso   1.00
C564   C     0.93826   0.80771   0.16654   0.00000  Uiso   1.00
C565   C     0.88771   0.64195   0.20645   0.00000  Uiso   1.00
C566   C     0.62023   0.65258   0.20334   0.00000  Uiso   1.00
C567   C     0.88165   0.84884   0.12694   0.00000  Uiso   1.00
C568   C     0.88326   0.85154   0.20480   0.00000  Uiso   1.00
C569   C     0.61059   0.63934   0.12520   0.00000  Uiso   1.00
C570   C     0.63956   0.88891   0.12572   0.00000  Uiso   1.00
C571   C     0.86687   0.60122   0.20543   0.00000  Uiso   1.00
C572   C     0.86921   0.59768   0.12765   0.00000  Uiso   1.00
C573   C     0.63040   0.90198   0.20398   0.00000  Uiso   1.00
C574   C     0.86281   0.89247   0.20626   0.00000  Uiso   1.00
C575   C     0.93754   0.69263   0.16648   0.00000  Uiso   1.00
C576   C     0.63048   0.59820   0.12961   0.00000  Uiso   1.00
C577   C     0.63982   0.61129   0.20786   0.00000  Uiso   1.00
C578   C     0.86073   0.89007   0.12504   0.00000  Uiso   1.00
C579   C     0.59916   0.83755   0.16936   0.00000  Uiso   1.00
C580   C     0.90226   0.66029   0.16588   0.00000  Uiso   1.00
C581   C     0.90195   0.83798   0.16591   0.00000  Uiso   1.00
C582   C     0.59946   0.66278   0.16416   0.00000  Uiso   1.00
C583   C     0.84845   0.58739   0.16642   0.00000  Uiso   1.00
C584   C     0.65090   0.91225   0.16458   0.00000  Uiso   1.00
C585   C     0.65095   0.58781   0.16896   0.00000  Uiso   1.00
C586   C     0.56224   0.80744   0.16731   0.00000  Uiso   1.00
C587   C     0.84869   0.91144   0.16572   0.00000  Uiso   1.00
C588   C     0.81273   0.94302   0.16646   0.00000  Uiso   1.00
C589   C     0.68779   0.55752   0.16725   0.00000  Uiso   1.00
C590   C     0.68778   0.94249   0.16612   0.00000  Uiso   1.00
C591   C     0.81185   0.55755   0.16665   0.00000  Uiso   1.00
C592   C     0.99955   0.79038   0.02473   0.00000  Uiso   1.00
H593   H     0.98877   0.88439   0.11342   0.00000  Uiso   1.00
H594   H     0.64835   0.84526   0.32036   0.00000  Uiso   1.00
H595   H     0.70207   0.79614   0.09355   0.00000  Uiso   1.00
H596   H     0.84437   0.66480   0.31445   0.00000  Uiso   1.00
H597   H     0.68668   0.71577   0.28024   0.00000  Uiso   1.00
H598   H     0.86963   0.77913   0.02841   0.00000  Uiso   1.00
H599   H     0.81274   0.78925   0.27795   0.00000  Uiso   1.00
H600   H     0.65117   0.65591   0.01423   0.00000  Uiso   1.00
H601   H     0.55989   0.95577   0.07148   0.00000  Uiso   1.00
H602   H     0.93370   0.54352   0.28550   0.00000  Uiso   1.00
H603   H     0.94646   0.53369   0.06358   0.00000  Uiso   1.00
H604   H     0.99127   0.61462   0.22108   0.00000  Uiso   1.00
H605   H     0.56722   0.96162   0.28614   0.00000  Uiso   1.00
H606   H     0.93767   0.95890   0.26853   0.00000  Uiso   1.00
H607   H     0.56677   0.53818   0.04815   0.00000  Uiso   1.00
H608   H     0.56191   0.54450   0.26457   0.00000  Uiso   1.00
H609   H     0.92117   0.94868   0.04210   0.00000  Uiso   1.00
H610   H     0.50868   0.61478   0.10938   0.00000  Uiso   1.00
H611   H     0.50465   0.88634   0.22471   0.00000  Uiso   1.00
H612   H     0.76073   0.63458   0.11300   0.00000  Uiso   1.00
H613   H     0.75640   0.86380   0.22155   0.00000  Uiso   1.00
H614   H     0.74277   0.86471   0.10968   0.00000  Uiso   1.00
H615   H     0.74389   0.63602   0.22440   0.00000  Uiso   1.00
H616   H     0.83100   0.70495   0.04832   0.00000  Uiso   1.00
N617   N     0.50000   0.75000   0.28573   0.00000  Uiso   1.00
N618   N     0.50000   0.75000   0.04760   0.00000  Uiso   1.00
N619   N     0.75000   0.50000   0.28573   0.00000  Uiso   1.00
N620   N     0.75000   0.50000   0.04760   0.00000  Uiso   1.00
O621   O     0.54580   0.70419   0.20487   0.00000  Uiso   1.00
O622   O     0.70419   0.54581   0.12846   0.00000  Uiso   1.00
O623   O     0.70419   0.54581   0.20487   0.00000  Uiso   1.00
O624   O     0.79580   0.95419   0.12846   0.00000  Uiso   1.00
O625   O     0.70419   0.95419   0.12846   0.00000  Uiso   1.00
O626   O     0.79580   0.54581   0.20487   0.00000  Uiso   1.00
O627   O     0.79580   0.54581   0.12846   0.00000  Uiso   1.00
O628   O     0.70419   0.95419   0.20487   0.00000  Uiso   1.00
O629   O     0.52083   0.88005   0.03464   0.00000  Uiso   1.00
O630   O     0.94802   0.85782   0.04542   0.00000  Uiso   1.00
O631   O     0.50060   0.85420   0.10728   0.00000  Uiso   1.00
O632   O     0.95419   0.79581   0.12846   0.00000  Uiso   1.00
O633   O     0.52459   0.62150   0.29845   0.00000  Uiso   1.00
O634   O     0.95070   0.64226   0.29036   0.00000  Uiso   1.00
O635   O     0.50060   0.64591   0.22613   0.00000  Uiso   1.00
O636   O     0.97433   0.62296   0.03189   0.00000  Uiso   1.00
O637   O     0.54894   0.63909   0.04008   0.00000  Uiso   1.00
O638   O     0.99983   0.64622   0.10473   0.00000  Uiso   1.00
O639   O     0.97015   0.87561   0.30091   0.00000  Uiso   1.00
O640   O     0.54584   0.86225   0.29425   0.00000  Uiso   1.00
O641   O     0.99912   0.85395   0.22850   0.00000  Uiso   1.00
O642   O     0.80121   0.60787   0.04453   0.00000  Uiso   1.00
O643   O     0.95419   0.79581   0.20487   0.00000  Uiso   1.00
O644   O     0.72777   0.62938   0.03466   0.00000  Uiso   1.00
O645   O     0.74941   0.60416   0.10718   0.00000  Uiso   1.00
O646   O     0.79834   0.89089   0.29098   0.00000  Uiso   1.00
O647   O     0.72393   0.87240   0.29835   0.00000  Uiso   1.00
O648   O     0.74959   0.89591   0.22615   0.00000  Uiso   1.00
O649   O     0.70065   0.88963   0.04102   0.00000  Uiso   1.00
O650   O     0.77497   0.87211   0.03204   0.00000  Uiso   1.00
O651   O     0.75061   0.89637   0.10490   0.00000  Uiso   1.00
O652   O     0.70189   0.61090   0.29348   0.00000  Uiso   1.00
O653   O     0.77667   0.62667   0.30113   0.00000  Uiso   1.00
O654   O     0.54580   0.70419   0.12846   0.00000  Uiso   1.00
O655   O     0.75033   0.60384   0.22846   0.00000  Uiso   1.00
O656   O     0.91128   0.70487   0.06396   0.00000  Uiso   1.00
O657   O     0.88849   0.63199   0.03838   0.00000  Uiso   1.00
O658   O     0.83303   0.68503   0.07408   0.00000  Uiso   1.00
O659   O     0.59820   0.79456   0.26838   0.00000  Uiso   1.00
O660   O     0.67019   0.81061   0.24332   0.00000  Uiso   1.00
O661   O     0.63537   0.86485   0.29800   0.00000  Uiso   1.00
O662   O     0.63455   0.76203   0.12225   0.00000  Uiso   1.00
O663   O     0.60217   0.79819   0.05849   0.00000  Uiso   1.00
O664   O     0.68221   0.81024   0.07266   0.00000  Uiso   1.00
O665   O     0.95419   0.70419   0.12846   0.00000  Uiso   1.00
O666   O     0.90051   0.71085   0.26563   0.00000  Uiso   1.00
O667   O     0.82872   0.69713   0.23708   0.00000  Uiso   1.00
O668   O     0.85899   0.64398   0.29398   0.00000  Uiso   1.00
O669   O     0.63480   0.73823   0.21164   0.00000  Uiso   1.00
O670   O     0.60203   0.70185   0.27524   0.00000  Uiso   1.00
O671   O     0.68221   0.68940   0.26076   0.00000  Uiso   1.00
O672   O     0.86380   0.76116   0.12144   0.00000  Uiso   1.00
O673   O     0.81602   0.81216   0.08418   0.00000  Uiso   1.00
O674   O     0.88888   0.79579   0.04834   0.00000  Uiso   1.00
O675   O     0.86741   0.76681   0.21184   0.00000  Uiso   1.00
O676   O     0.54580   0.79581   0.20487   0.00000  Uiso   1.00
O677   O     0.89725   0.80356   0.27746   0.00000  Uiso   1.00
O678   O     0.81774   0.81525   0.25868   0.00000  Uiso   1.00
O679   O     0.60019   0.70595   0.06537   0.00000  Uiso   1.00
O680   O     0.67164   0.68991   0.09252   0.00000  Uiso   1.00
O681   O     0.63868   0.63592   0.03649   0.00000  Uiso   1.00
O682   O     0.64759   0.95497   0.06506   0.00000  Uiso   1.00
O683   O     0.60813   0.88843   0.04366   0.00000  Uiso   1.00
O684   O     0.57247   0.94246   0.09816   0.00000  Uiso   1.00
O685   O     0.85128   0.55399   0.27833   0.00000  Uiso   1.00
O686   O     0.88275   0.51628   0.21407   0.00000  Uiso   1.00
O687   O     0.54580   0.79581   0.12846   0.00000  Uiso   1.00
O688   O     0.93115   0.56547   0.26144   0.00000  Uiso   1.00
O689   O     0.88544   0.50988   0.12250   0.00000  Uiso   1.00
O690   O     0.86211   0.54578   0.05465   0.00000  Uiso   1.00
O691   O     0.93867   0.55995   0.08204   0.00000  Uiso   1.00
O692   O     0.64932   0.95168   0.27533   0.00000  Uiso   1.00
O693   O     0.61569   0.98762   0.21195   0.00000  Uiso   1.00
O694   O     0.56894   0.93922   0.26195   0.00000  Uiso   1.00
O695   O     0.84847   0.96004   0.26703   0.00000  Uiso   1.00
O696   O     0.88676   0.89422   0.29054   0.00000  Uiso   1.00
O697   O     0.92612   0.94803   0.24010   0.00000  Uiso   1.00
O698   O     0.95419   0.70419   0.20487   0.00000  Uiso   1.00
O699   O     0.64906   0.54841   0.05815   0.00000  Uiso   1.00
O700   O     0.61586   0.51274   0.12184   0.00000  Uiso   1.00
O701   O     0.56872   0.56099   0.07195   0.00000  Uiso   1.00
O702   O     0.64921   0.54505   0.26839   0.00000  Uiso   1.00
O703   O     0.61099   0.61210   0.29099   0.00000  Uiso   1.00
O704   O     0.57334   0.55845   0.23768   0.00000  Uiso   1.00
O705   O     0.86264   0.88382   0.03729   0.00000  Uiso   1.00
O706   O     0.83850   0.95603   0.06354   0.00000  Uiso   1.00
O707   O     0.91715   0.93756   0.07239   0.00000  Uiso   1.00
O708   O     0.79580   0.95419   0.20487   0.00000  Uiso   1.00
S709   S     0.99295   0.84482   0.05364   0.00000  Uiso   1.00
S710   S     0.62803   0.83080   0.25477   0.00000  Uiso   1.00
S711   S     0.63411   0.80331   0.09472   0.00000  Uiso   1.00
S712   S     0.86964   0.67583   0.25078   0.00000  Uiso   1.00
S713   S     0.63406   0.69688   0.23904   0.00000  Uiso   1.00
S714   S     0.86149   0.80333   0.09513   0.00000  Uiso   1.00
S715   S     0.86698   0.80832   0.23975   0.00000  Uiso   1.00
S716   S     0.62992   0.66975   0.07963   0.00000  Uiso   1.00
S717   S     0.61822   0.91938   0.08117   0.00000  Uiso   1.00
S718   S     0.88239   0.55829   0.24131   0.00000  Uiso   1.00
S719   S     0.88795   0.55170   0.09568   0.00000  Uiso   1.00
S720   S     0.99502   0.65563   0.28002   0.00000  Uiso   1.00
S721   S     0.61684   0.94647   0.23961   0.00000  Uiso   1.00
S722   S     0.87937   0.92473   0.25260   0.00000  Uiso   1.00
S723   S     0.61675   0.55379   0.09404   0.00000  Uiso   1.00
S724   S     0.61970   0.58104   0.25317   0.00000  Uiso   1.00
S725   S     0.86749   0.91779   0.07347   0.00000  Uiso   1.00
S726   S     0.50545   0.65532   0.05099   0.00000  Uiso   1.00
S727   S     0.50309   0.84471   0.28238   0.00000  Uiso   1.00
S728   S     0.75648   0.59466   0.05347   0.00000  Uiso   1.00
S729   S     0.75447   0.90554   0.28012   0.00000  Uiso   1.00
S730   S     0.74443   0.90523   0.05120   0.00000  Uiso   1.00
S731   S     0.74526   0.59457   0.28223   0.00000  Uiso   1.00
S732   S     0.88312   0.66616   0.07428   0.00000  Uiso   1.00
Zn733  Zn    0.50000   0.75000   0.21771   0.00000  Uiso   1.00
Zn734  Zn    0.50000   0.75000   0.11563   0.00000  Uiso   1.00
Zn735  Zn    0.75000   0.50000   0.21771   0.00000  Uiso   1.00
Zn736  Zn    0.75000   0.50000   0.11563   0.00000  Uiso   1.00
C737   C     0.06233   0.19267   0.49939   0.00000  Uiso   1.00
C738   C     0.00076   0.20980   0.64199   0.00000  Uiso   1.00
C739   C     0.00077   0.20978   0.35701   0.00000  Uiso   1.00
C740   C     0.49963   0.29026   0.64297   0.00000  Uiso   1.00
C741   C     0.25020   0.04032   0.35802   0.00000  Uiso   1.00
C742   C     0.24936   0.45979   0.64202   0.00000  Uiso   1.00
C743   C     0.24933   0.45973   0.35706   0.00000  Uiso   1.00
C744   C     0.25001   0.04024   0.64294   0.00000  Uiso   1.00
C745   C     0.39066   0.13847   0.45884   0.00000  Uiso   1.00
C746   C     0.11013   0.36105   0.54168   0.00000  Uiso   1.00
C747   C     0.12012   0.34766   0.46361   0.00000  Uiso   1.00
C748   C     0.43826   0.30771   0.49987   0.00000  Uiso   1.00
C749   C     0.38771   0.14195   0.53978   0.00000  Uiso   1.00
C750   C     0.12023   0.15258   0.53668   0.00000  Uiso   1.00
C751   C     0.38165   0.34884   0.46027   0.00000  Uiso   1.00
C752   C     0.38326   0.35154   0.53814   0.00000  Uiso   1.00
C753   C     0.11059   0.13934   0.45853   0.00000  Uiso   1.00
C754   C     0.13956   0.38891   0.45905   0.00000  Uiso   1.00
C755   C     0.36687   0.10122   0.53877   0.00000  Uiso   1.00
C756   C     0.36921   0.09768   0.46098   0.00000  Uiso   1.00
C757   C     0.13040   0.40198   0.53731   0.00000  Uiso   1.00
C758   C     0.36281   0.39247   0.53959   0.00000  Uiso   1.00
C759   C     0.43754   0.19263   0.49981   0.00000  Uiso   1.00
C760   C     0.13048   0.09820   0.46294   0.00000  Uiso   1.00
C761   C     0.13982   0.11129   0.54120   0.00000  Uiso   1.00
C762   C     0.36073   0.39007   0.45838   0.00000  Uiso   1.00
C763   C     0.09916   0.33755   0.50269   0.00000  Uiso   1.00
C764   C     0.40226   0.16029   0.49921   0.00000  Uiso   1.00
C765   C     0.40195   0.33798   0.49924   0.00000  Uiso   1.00
C766   C     0.09946   0.16278   0.49749   0.00000  Uiso   1.00
C767   C     0.34845   0.08739   0.49975   0.00000  Uiso   1.00
C768   C     0.15090   0.41225   0.49792   0.00000  Uiso   1.00
C769   C     0.15095   0.08781   0.50230   0.00000  Uiso   1.00
C770   C     0.06224   0.30744   0.50065   0.00000  Uiso   1.00
C771   C     0.34869   0.41144   0.49906   0.00000  Uiso   1.00
C772   C     0.31273   0.44302   0.49979   0.00000  Uiso   1.00
C773   C     0.18779   0.05752   0.50059   0.00000  Uiso   1.00
C774   C     0.18778   0.44249   0.49945   0.00000  Uiso   1.00
C775   C     0.31185   0.05755   0.49998   0.00000  Uiso   1.00
C776   C     0.49955   0.29038   0.35806   0.00000  Uiso   1.00
H777   H     0.48877   0.38439   0.44675   0.00000  Uiso   1.00
H778   H     0.14835   0.34526   0.65369   0.00000  Uiso   1.00
H779   H     0.20207   0.29614   0.42688   0.00000  Uiso   1.00
H780   H     0.34437   0.16480   0.64778   0.00000  Uiso   1.00
H781   H     0.18668   0.21577   0.61357   0.00000  Uiso   1.00
H782   H     0.36963   0.27913   0.36174   0.00000  Uiso   1.00
H783   H     0.31274   0.28925   0.61129   0.00000  Uiso   1.00
H784   H     0.15117   0.15591   0.34756   0.00000  Uiso   1.00
H785   H     0.05989   0.45577   0.40482   0.00000  Uiso   1.00
H786   H     0.43370   0.04352   0.61883   0.00000  Uiso   1.00
H787   H     0.44646   0.03369   0.39691   0.00000  Uiso   1.00
H788   H     0.49127   0.11462   0.55441   0.00000  Uiso   1.00
H789   H     0.06722   0.46162   0.61948   0.00000  Uiso   1.00
H790   H     0.43767   0.45890   0.60186   0.00000  Uiso   1.00
H791   H     0.06677   0.03818   0.38149   0.00000  Uiso   1.00
H792   H     0.06191   0.04450   0.59790   0.00000  Uiso   1.00
H793   H     0.42117   0.44868   0.37543   0.00000  Uiso   1.00
H794   H     0.00868   0.11478   0.44271   0.00000  Uiso   1.00
H795   H     0.00465   0.38634   0.55805   0.00000  Uiso   1.00
H796   H     0.26073   0.13458   0.44633   0.00000  Uiso   1.00
H797   H     0.25640   0.36380   0.55488   0.00000  Uiso   1.00
H798   H     0.24277   0.36471   0.44302   0.00000  Uiso   1.00
H799   H     0.24389   0.13602   0.55773   0.00000  Uiso   1.00
H800   H     0.33100   0.20495   0.38166   0.00000  Uiso   1.00
N801   N     0.00000   0.25000   0.61907   0.00000  Uiso   1.00
N802   N    -0.00000   0.25000   0.38093   0.00000  Uiso   1.00
N803   N     0.25000   0.00000   0.61907   0.00000  Uiso   1.00
N804   N     0.25000   0.00000   0.38093   0.00000  Uiso   1.00
O805   O     0.04580   0.20419   0.53821   0.00000  Uiso   1.00
O806   O     0.20419   0.04581   0.46179   0.00000  Uiso   1.00
O807   O     0.20419   0.04581   0.53821   0.00000  Uiso   1.00
O808   O     0.29580   0.45419   0.46179   0.00000  Uiso   1.00
O809   O     0.20419   0.45419   0.46179   0.00000  Uiso   1.00
O810   O     0.29580   0.04581   0.53821   0.00000  Uiso   1.00
O811   O     0.29580   0.04581   0.46179   0.00000  Uiso   1.00
O812   O     0.20419   0.45419   0.53821   0.00000  Uiso   1.00
O813   O     0.02083   0.38005   0.36798   0.00000  Uiso   1.00
O814   O     0.44802   0.35782   0.37875   0.00000  Uiso   1.00
O815   O     0.00060   0.35420   0.44061   0.00000  Uiso   1.00
O816   O     0.45419   0.29581   0.46179   0.00000  Uiso   1.00
O817   O     0.02459   0.12150   0.63178   0.00000  Uiso   1.00
O818   O     0.45070   0.14226   0.62369   0.00000  Uiso   1.00
O819   O     0.00060   0.14591   0.55946   0.00000  Uiso   1.00
O820   O     0.47433   0.12296   0.36522   0.00000  Uiso   1.00
O821   O     0.04894   0.13909   0.37342   0.00000  Uiso   1.00
O822   O     0.49983   0.14622   0.43806   0.00000  Uiso   1.00
O823   O     0.47015   0.37561   0.63424   0.00000  Uiso   1.00
O824   O     0.04584   0.36225   0.62759   0.00000  Uiso   1.00
O825   O     0.49912   0.35395   0.56183   0.00000  Uiso   1.00
O826   O     0.30121   0.10787   0.37786   0.00000  Uiso   1.00
O827   O     0.45419   0.29581   0.53821   0.00000  Uiso   1.00
O828   O     0.22777   0.12938   0.36799   0.00000  Uiso   1.00
O829   O     0.24941   0.10416   0.44052   0.00000  Uiso   1.00
O830   O     0.29834   0.39089   0.62431   0.00000  Uiso   1.00
O831   O     0.22393   0.37240   0.63169   0.00000  Uiso   1.00
O832   O     0.24959   0.39591   0.55948   0.00000  Uiso   1.00
O833   O     0.20065   0.38963   0.37435   0.00000  Uiso   1.00
O834   O     0.27497   0.37211   0.36537   0.00000  Uiso   1.00
O835   O     0.25061   0.39637   0.43823   0.00000  Uiso   1.00
O836   O     0.20189   0.11090   0.62681   0.00000  Uiso   1.00
O837   O     0.27667   0.12667   0.63446   0.00000  Uiso   1.00
O838   O     0.04580   0.20419   0.46179   0.00000  Uiso   1.00
O839   O     0.25033   0.10384   0.56179   0.00000  Uiso   1.00
O840   O     0.41128   0.20487   0.39729   0.00000  Uiso   1.00
O841   O     0.38849   0.13199   0.37172   0.00000  Uiso   1.00
O842   O     0.33303   0.18503   0.40741   0.00000  Uiso   1.00
O843   O     0.09820   0.29456   0.60172   0.00000  Uiso   1.00
O844   O     0.17019   0.31061   0.57665   0.00000  Uiso   1.00
O845   O     0.13537   0.36485   0.63133   0.00000  Uiso   1.00
O846   O     0.13455   0.26203   0.45558   0.00000  Uiso   1.00
O847   O     0.10217   0.29819   0.39182   0.00000  Uiso   1.00
O848   O     0.18221   0.31024   0.40599   0.00000  Uiso   1.00
O849   O     0.45419   0.20419   0.46179   0.00000  Uiso   1.00
O850   O     0.40051   0.21085   0.59897   0.00000  Uiso   1.00
O851   O     0.32872   0.19713   0.57041   0.00000  Uiso   1.00
O852   O     0.35899   0.14398   0.62731   0.00000  Uiso   1.00
O853   O     0.13480   0.23823   0.54497   0.00000  Uiso   1.00
O854   O     0.10203   0.20185   0.60857   0.00000  Uiso   1.00
O855   O     0.18221   0.18940   0.59409   0.00000  Uiso   1.00
O856   O     0.36380   0.26116   0.45478   0.00000  Uiso   1.00
O857   O     0.31602   0.31216   0.41751   0.00000  Uiso   1.00
O858   O     0.38888   0.29579   0.38167   0.00000  Uiso   1.00
O859   O     0.36741   0.26681   0.54517   0.00000  Uiso   1.00
O860   O     0.04580   0.29581   0.53821   0.00000  Uiso   1.00
O861   O     0.39725   0.30356   0.61080   0.00000  Uiso   1.00
O862   O     0.31774   0.31525   0.59201   0.00000  Uiso   1.00
O863   O     0.10019   0.20595   0.39870   0.00000  Uiso   1.00
O864   O     0.17164   0.18991   0.42585   0.00000  Uiso   1.00
O865   O     0.13868   0.13592   0.36982   0.00000  Uiso   1.00
O866   O     0.14759   0.45497   0.39839   0.00000  Uiso   1.00
O867   O     0.10813   0.38843   0.37699   0.00000  Uiso   1.00
O868   O     0.07247   0.44246   0.43150   0.00000  Uiso   1.00
O869   O     0.35128   0.05399   0.61167   0.00000  Uiso   1.00
O870   O     0.38275   0.01628   0.54740   0.00000  Uiso   1.00
O871   O     0.04580   0.29581   0.46179   0.00000  Uiso   1.00
O872   O     0.43115   0.06547   0.59477   0.00000  Uiso   1.00
O873   O     0.38544   0.00988   0.45583   0.00000  Uiso   1.00
O874   O     0.36211   0.04578   0.38798   0.00000  Uiso   1.00
O875   O     0.43867   0.05995   0.41538   0.00000  Uiso   1.00
O876   O     0.14932   0.45168   0.60866   0.00000  Uiso   1.00
O877   O     0.11569   0.48762   0.54528   0.00000  Uiso   1.00
O878   O     0.06894   0.43922   0.59528   0.00000  Uiso   1.00
O879   O     0.34847   0.46004   0.60037   0.00000  Uiso   1.00
O880   O     0.38676   0.39422   0.62387   0.00000  Uiso   1.00
O881   O     0.42612   0.44803   0.57343   0.00000  Uiso   1.00
O882   O     0.45419   0.20419   0.53821   0.00000  Uiso   1.00
O883   O     0.14906   0.04841   0.39149   0.00000  Uiso   1.00
O884   O     0.11586   0.01274   0.45517   0.00000  Uiso   1.00
O885   O     0.06872   0.06099   0.40528   0.00000  Uiso   1.00
O886   O     0.14921   0.04505   0.60173   0.00000  Uiso   1.00
O887   O     0.11099   0.11210   0.62433   0.00000  Uiso   1.00
O888   O     0.07334   0.05845   0.57101   0.00000  Uiso   1.00
O889   O     0.36264   0.38382   0.37063   0.00000  Uiso   1.00
O890   O     0.33850   0.45603   0.39687   0.00000  Uiso   1.00
O891   O     0.41715   0.43756   0.40572   0.00000  Uiso   1.00
O892   O     0.29580   0.45419   0.53821   0.00000  Uiso   1.00
S893   S     0.49295   0.34482   0.38697   0.00000  Uiso   1.00
S894   S     0.12803   0.33080   0.58810   0.00000  Uiso   1.00
S895   S     0.13411   0.30331   0.42805   0.00000  Uiso   1.00
S896   S     0.36964   0.17583   0.58412   0.00000  Uiso   1.00
S897   S     0.13406   0.19688   0.57238   0.00000  Uiso   1.00
S898   S     0.36149   0.30333   0.42846   0.00000  Uiso   1.00
S899   S     0.36698   0.30832   0.57308   0.00000  Uiso   1.00
S900   S     0.12992   0.16975   0.41296   0.00000  Uiso   1.00
S901   S     0.11822   0.41938   0.41450   0.00000  Uiso   1.00
S902   S     0.38239   0.05829   0.57464   0.00000  Uiso   1.00
S903   S     0.38795   0.05170   0.42901   0.00000  Uiso   1.00
S904   S     0.49502   0.15563   0.61335   0.00000  Uiso   1.00
S905   S     0.11684   0.44647   0.57295   0.00000  Uiso   1.00
S906   S     0.37937   0.42473   0.58593   0.00000  Uiso   1.00
S907   S     0.11675   0.05379   0.42737   0.00000  Uiso   1.00
S908   S     0.11970   0.08104   0.58650   0.00000  Uiso   1.00
S909   S     0.36749   0.41779   0.40681   0.00000  Uiso   1.00
S910   S     0.00545   0.15532   0.38432   0.00000  Uiso   1.00
S911   S     0.00309   0.34471   0.61571   0.00000  Uiso   1.00
S912   S     0.25648   0.09466   0.38680   0.00000  Uiso   1.00
S913   S     0.25447   0.40554   0.61345   0.00000  Uiso   1.00
S914   S     0.24443   0.40523   0.38453   0.00000  Uiso   1.00
S915   S     0.24526   0.09457   0.61556   0.00000  Uiso   1.00
S916   S     0.38312   0.16616   0.40762   0.00000  Uiso   1.00
Zn917  Zn   -0.00000   0.25000   0.55104   0.00000  Uiso   1.00
Zn918  Zn    0.00000   0.25000   0.44896   0.00000  Uiso   1.00
Zn919  Zn    0.25000   0.00000   0.55104   0.00000  Uiso   1.00
Zn920  Zn    0.25000   0.00000   0.44896   0.00000  Uiso   1.00
C921   C     0.56233   0.19267   0.49939   0.00000  Uiso   1.00
C922   C     0.50076   0.20980   0.64199   0.00000  Uiso   1.00
C923   C     0.50077   0.20978   0.35701   0.00000  Uiso   1.00
C924   C     0.99963   0.29026   0.64297   0.00000  Uiso   1.00
C925   C     0.75020   0.04032   0.35802   0.00000  Uiso   1.00
C926   C     0.74936   0.45979   0.64202   0.00000  Uiso   1.00
C927   C     0.74933   0.45973   0.35706   0.00000  Uiso   1.00
C928   C     0.75001   0.04024   0.64294   0.00000  Uiso   1.00
C929   C     0.89066   0.13847   0.45884   0.00000  Uiso   1.00
C930   C     0.61013   0.36105   0.54168   0.00000  Uiso   1.00
C931   C     0.62012   0.34766   0.46361   0.00000  Uiso   1.00
C932   C     0.93826   0.30771   0.49987   0.00000  Uiso   1.00
C933   C     0.88771   0.14195   0.53978   0.00000  Uiso   1.00
C934   C     0.62023   0.15258   0.53668   0.00000  Uiso   1.00
C935   C     0.88165   0.34884   0.46027   0.00000  Uiso   1.00
C936   C     0.88326   0.35154   0.53814   0.00000  Uiso   1.00
C937   C     0.61059   0.13934   0.45853   0.00000  Uiso   1.00
C938   C     0.63956   0.38891   0.45905   0.00000  Uiso   1.00
C939   C     0.86687   0.10122   0.53877   0.00000  Uiso   1.00
C940   C     0.86921   0.09768   0.46098   0.00000  Uiso   1.00
C941   C     0.63040   0.40198   0.53731   0.00000  Uiso   1.00
C942   C     0.86281   0.39247   0.53959   0.00000  Uiso   1.00
C943   C     0.93754   0.19263   0.49981   0.00000  Uiso   1.00
C944   C     0.63048   0.09820   0.46294   0.00000  Uiso   1.00
C945   C     0.63982   0.11129   0.54120   0.00000  Uiso   1.00
C946   C     0.86073   0.39007   0.45838   0.00000  Uiso   1.00
C947   C     0.59916   0.33755   0.50269   0.00000  Uiso   1.00
C948   C     0.90226   0.16029   0.49921   0.00000  Uiso   1.00
C949   C     0.90195   0.33798   0.49924   0.00000  Uiso   1.00
C950   C     0.59946   0.16278   0.49749   0.00000  Uiso   1.00
C951   C     0.84845   0.08739   0.49975   0.00000  Uiso   1.00
C952   C     0.65090   0.41225   0.49792   0.00000  Uiso   1.00
C953   C     0.65095   0.08781   0.50230   0.00000  Uiso   1.00
C954   C     0.56224   0.30744   0.50065   0.00000  Uiso   1.00
C955   C     0.84869   0.41144   0.49906   0.00000  Uiso   1.00
C956   C     0.81273   0.44302   0.49979   0.00000  Uiso   1.00
C957   C     0.68779   0.05752   0.50059   0.00000  Uiso   1.00
C958   C     0.68778   0.44249   0.49945   0.00000  Uiso   1.00
C959   C     0.81185   0.05755   0.49998   0.00000  Uiso   1.00
C960   C     0.99955   0.29038   0.35806   0.00000  Uiso   1.00
H961   H     0.98877   0.38439   0.44675   0.00000  Uiso   1.00
H962   H     0.64835   0.34526   0.65369   0.00000  Uiso   1.00
H963   H     0.70207   0.29614   0.42688   0.00000  Uiso   1.00
H964   H     0.84437   0.16480   0.64778   0.00000  Uiso   1.00
H965   H     0.68668   0.21577   0.61357   0.00000  Uiso   1.00
H966   H     0.86963   0.27913   0.36174   0.00000  Uiso   1.00
H967   H     0.81274   0.28925   0.61129   0.00000  Uiso   1.00
H968   H     0.65117   0.15591   0.34756   0.00000  Uiso   1.00
H969   H     0.55989   0.45577   0.40482   0.00000  Uiso   1.00
H970   H     0.93370   0.04352   0.61883   0.00000  Uiso   1.00
H971   H     0.94646   0.03369   0.39691   0.00000  Uiso   1.00
H972   H     0.99127   0.11462   0.55441   0.00000  Uiso   1.00
H973   H     0.56722   0.46162   0.61948   0.00000  Uiso   1.00
H974   H     0.93767   0.45890   0.60186   0.00000  Uiso   1.00
H975   H     0.56677   0.03818   0.38149   0.00000  Uiso   1.00
H976   H     0.56191   0.04450   0.59790   0.00000  Uiso   1.00
H977   H     0.92117   0.44868   0.37543   0.00000  Uiso   1.00
H978   H     0.50868   0.11478   0.44271   0.00000  Uiso   1.00
H979   H     0.50465   0.38634   0.55805   0.00000  Uiso   1.00
H980   H     0.76073   0.13458   0.44633   0.00000  Uiso   1.00
H981   H     0.75640   0.36380   0.55488   0.00000  Uiso   1.00
H982   H     0.74277   0.36471   0.44302   0.00000  Uiso   1.00
H983   H     0.74389   0.13602   0.55773   0.00000  Uiso   1.00
H984   H     0.83100   0.20495   0.38166   0.00000  Uiso   1.00
N985   N     0.50000   0.25000   0.61907   0.00000  Uiso   1.00
N986   N     0.50000   0.25000   0.38093   0.00000  Uiso   1.00
N987   N     0.75000   0.00000   0.61907   0.00000  Uiso   1.00
N988   N     0.75000   0.00000   0.38093   0.00000  Uiso   1.00
O989   O     0.54580   0.20419   0.53821   0.00000  Uiso   1.00
O990   O     0.70419   0.04581   0.46179   0.00000  Uiso   1.00
O991   O     0.70419   0.04581   0.53821   0.00000  Uiso   1.00
O992   O     0.79580   0.45419   0.46179   0.00000  Uiso   1.00
O993   O     0.70419   0.45419   0.46179   0.00000  Uiso   1.00
O994   O     0.79580   0.04581   0.53821   0.00000  Uiso   1.00
O995   O     0.79580   0.04581   0.46179   0.00000  Uiso   1.00
O996   O     0.70419   0.45419   0.53821   0.00000  Uiso   1.00
O997   O     0.52083   0.38005   0.36798   0.00000  Uiso   1.00
O998   O     0.94802   0.35782   0.37875   0.00000  Uiso   1.00
O999   O     0.50060   0.35420   0.44061   0.00000  Uiso   1.00
O1000  O     0.95419   0.29581   0.46179   0.00000  Uiso   1.00
O1001  O     0.52459   0.12150   0.63178   0.00000  Uiso   1.00
O1002  O     0.95070   0.14226   0.62369   0.00000  Uiso   1.00
O1003  O     0.50060   0.14591   0.55946   0.00000  Uiso   1.00
O1004  O     0.97433   0.12296   0.36522   0.00000  Uiso   1.00
O1005  O     0.54894   0.13909   0.37342   0.00000  Uiso   1.00
O1006  O     0.99983   0.14622   0.43806   0.00000  Uiso   1.00
O1007  O     0.97015   0.37561   0.63424   0.00000  Uiso   1.00
O1008  O     0.54584   0.36225   0.62759   0.00000  Uiso   1.00
O1009  O     0.99912   0.35395   0.56183   0.00000  Uiso   1.00
O1010  O     0.80121   0.10787   0.37786   0.00000  Uiso   1.00
O1011  O     0.95419   0.29581   0.53821   0.00000  Uiso   1.00
O1012  O     0.72777   0.12938   0.36799   0.00000  Uiso   1.00
O1013  O     0.74941   0.10416   0.44052   0.00000  Uiso   1.00
O1014  O     0.79834   0.39089   0.62431   0.00000  Uiso   1.00
O1015  O     0.72393   0.37240   0.63169   0.00000  Uiso   1.00
O1016  O     0.74959   0.39591   0.55948   0.00000  Uiso   1.00
O1017  O     0.70065   0.38963   0.37435   0.00000  Uiso   1.00
O1018  O     0.77497   0.37211   0.36537   0.00000  Uiso   1.00
O1019  O     0.75061   0.39637   0.43823   0.00000  Uiso   1.00
O1020  O     0.70189   0.11090   0.62681   0.00000  Uiso   1.00
O1021  O     0.77667   0.12667   0.63446   0.00000  Uiso   1.00
O1022  O     0.54580   0.20419   0.46179   0.00000  Uiso   1.00
O1023  O     0.75033   0.10384   0.56179   0.00000  Uiso   1.00
O1024  O     0.91128   0.20487   0.39729   0.00000  Uiso   1.00
O1025  O     0.88849   0.13199   0.37172   0.00000  Uiso   1.00
O1026  O     0.83303   0.18503   0.40741   0.00000  Uiso   1.00
O1027  O     0.59820   0.29456   0.60172   0.00000  Uiso   1.00
O1028  O     0.67019   0.31061   0.57665   0.00000  Uiso   1.00
O1029  O     0.63537   0.36485   0.63133   0.00000  Uiso   1.00
O1030  O     0.63455   0.26203   0.45558   0.00000  Uiso   1.00
O1031  O     0.60217   0.29819   0.39182   0.00000  Uiso   1.00
O1032  O     0.68221   0.31024   0.40599   0.00000  Uiso   1.00
O1033  O     0.95419   0.20419   0.46179   0.00000  Uiso   1.00
O1034  O     0.90051   0.21085   0.59897   0.00000  Uiso   1.00
O1035  O     0.82872   0.19713   0.57041   0.00000  Uiso   1.00
O1036  O     0.85899   0.14398   0.62731   0.00000  Uiso   1.00
O1037  O     0.63480   0.23823   0.54497   0.00000  Uiso   1.00
O1038  O     0.60203   0.20185   0.60857   0.00000  Uiso   1.00
O1039  O     0.68221   0.18940   0.59409   0.00000  Uiso   1.00
O1040  O     0.86380   0.26116   0.45478   0.00000  Uiso   1.00
O1041  O     0.81602   0.31216   0.41751   0.00000  Uiso   1.00
O1042  O     0.88888   0.29579   0.38167   0.00000  Uiso   1.00
O1043  O     0.86741   0.26681   0.54517   0.00000  Uiso   1.00
O1044  O     0.54580   0.29581   0.53821   0.00000  Uiso   1.00
O1045  O     0.89725   0.30356   0.61080   0.00000  Uiso   1.00
O1046  O     0.81774   0.31525   0.59201   0.00000  Uiso   1.00
O1047  O     0.60019   0.20595   0.39870   0.00000  Uiso   1.00
O1048  O     0.67164   0.18991   0.42585   0.00000  Uiso   1.00
O1049  O     0.63868   0.13592   0.36982   0.00000  Uiso   1.00
O1050  O     0.64759   0.45497   0.39839   0.00000  Uiso   1.00
O1051  O     0.60813   0.38843   0.37699   0.00000  Uiso   1.00
O1052  O     0.57247   0.44246   0.43150   0.00000  Uiso   1.00
O1053  O     0.85128   0.05399   0.61167   0.00000  Uiso   1.00
O1054  O     0.88275   0.01628   0.54740   0.00000  Uiso   1.00
O1055  O     0.54580   0.29581   0.46179   0.00000  Uiso   1.00
O1056  O     0.93115   0.06547   0.59477   0.00000  Uiso   1.00
O1057  O     0.88544   0.00988   0.45583   0.00000  Uiso   1.00
O1058  O     0.86211   0.04578   0.38798   0.00000  Uiso   1.00
O1059  O     0.93867   0.05995   0.41538   0.00000  Uiso   1.00
O1060  O     0.64932   0.45168   0.60866   0.00000  Uiso   1.00
O1061  O     0.61569   0.48762   0.54528   0.00000  Uiso   1.00
O1062  O     0.56894   0.43922   0.59528   0.00000  Uiso   1.00
O1063  O     0.84847   0.46004   0.60037   0.00000  Uiso   1.00
O1064  O     0.88676   0.39422   0.62387   0.00000  Uiso   1.00
O1065  O     0.92612   0.44803   0.57343   0.00000  Uiso   1.00
O1066  O     0.95419   0.20419   0.53821   0.00000  Uiso   1.00
O1067  O     0.64906   0.04841   0.39149   0.00000  Uiso   1.00
O1068  O     0.61586   0.01274   0.45517   0.00000  Uiso   1.00
O1069  O     0.56872   0.06099   0.40528   0.00000  Uiso   1.00
O1070  O     0.64921   0.04505   0.60173   0.00000  Uiso   1.00
O1071  O     0.61099   0.11210   0.62433   0.00000  Uiso   1.00
O1072  O     0.57334   0.05845   0.57101   0.00000  Uiso   1.00
O1073  O     0.86264   0.38382   0.37063   0.00000  Uiso   1.00
O1074  O     0.83850   0.45603   0.39687   0.00000  Uiso   1.00
O1075  O     0.91715   0.43756   0.40572   0.00000  Uiso   1.00
O1076  O     0.79580   0.45419   0.53821   0.00000  Uiso   1.00
S1077  S     0.99295   0.34482   0.38697   0.00000  Uiso   1.00
S1078  S     0.62803   0.33080   0.58810   0.00000  Uiso   1.00
S1079  S     0.63411   0.30331   0.42805   0.00000  Uiso   1.00
S1080  S     0.86964   0.17583   0.58412   0.00000  Uiso   1.00
S1081  S     0.63406   0.19688   0.57238   0.00000  Uiso   1.00
S1082  S     0.86149   0.30333   0.42846   0.00000  Uiso   1.00
S1083  S     0.86698   0.30832   0.57308   0.00000  Uiso   1.00
S1084  S     0.62992   0.16975   0.41296   0.00000  Uiso   1.00
S1085  S     0.61822   0.41938   0.41450   0.00000  Uiso   1.00
S1086  S     0.88239   0.05829   0.57464   0.00000  Uiso   1.00
S1087  S     0.88795   0.05170   0.42901   0.00000  Uiso   1.00
S1088  S     0.99502   0.15563   0.61335   0.00000  Uiso   1.00
S1089  S     0.61684   0.44647   0.57295   0.00000  Uiso   1.00
S1090  S     0.87937   0.42473   0.58593   0.00000  Uiso   1.00
S1091  S     0.61675   0.05379   0.42737   0.00000  Uiso   1.00
S1092  S     0.61970   0.08104   0.58650   0.00000  Uiso   1.00
S1093  S     0.86749   0.41779   0.40681   0.00000  Uiso   1.00
S1094  S     0.50545   0.15532   0.38432   0.00000  Uiso   1.00
S1095  S     0.50309   0.34471   0.61571   0.00000  Uiso   1.00
S1096  S     0.75648   0.09466   0.38680   0.00000  Uiso   1.00
S1097  S     0.75447   0.40554   0.61345   0.00000  Uiso   1.00
S1098  S     0.74443   0.40523   0.38453   0.00000  Uiso   1.00
S1099  S     0.74526   0.09457   0.61556   0.00000  Uiso   1.00
S1100  S     0.88312   0.16616   0.40762   0.00000  Uiso   1.00
Zn1101 Zn    0.50000   0.25000   0.55104   0.00000  Uiso   1.00
Zn1102 Zn    0.50000   0.25000   0.44896   0.00000  Uiso   1.00
Zn1103 Zn    0.75000   0.00000   0.55104   0.00000  Uiso   1.00
Zn1104 Zn    0.75000   0.00000   0.44896   0.00000  Uiso   1.00
C1105  C     0.06233   0.69267   0.49939   0.00000  Uiso   1.00
C1106  C     0.00076   0.70980   0.64199   0.00000  Uiso   1.00
C1107  C     0.00077   0.70978   0.35701   0.00000  Uiso   1.00
C1108  C     0.49963   0.79026   0.64297   0.00000  Uiso   1.00
C1109  C     0.25020   0.54032   0.35802   0.00000  Uiso   1.00
C1110  C     0.24936   0.95979   0.64202   0.00000  Uiso   1.00
C1111  C     0.24933   0.95973   0.35706   0.00000  Uiso   1.00
C1112  C     0.25001   0.54024   0.64294   0.00000  Uiso   1.00
C1113  C     0.39066   0.63847   0.45884   0.00000  Uiso   1.00
C1114  C     0.11013   0.86105   0.54168   0.00000  Uiso   1.00
C1115  C     0.12012   0.84766   0.46361   0.00000  Uiso   1.00
C1116  C     0.43826   0.80771   0.49987   0.00000  Uiso   1.00
C1117  C     0.38771   0.64195   0.53978   0.00000  Uiso   1.00
C1118  C     0.12023   0.65258   0.53668   0.00000  Uiso   1.00
C1119  C     0.38165   0.84884   0.46027   0.00000  Uiso   1.00
C1120  C     0.38326   0.85154   0.53814   0.00000  Uiso   1.00
C1121  C     0.11059   0.63934   0.45853   0.00000  Uiso   1.00
C1122  C     0.13956   0.88891   0.45905   0.00000  Uiso   1.00
C1123  C     0.36687   0.60122   0.53877   0.00000  Uiso   1.00
C1124  C     0.36921   0.59768   0.46098   0.00000  Uiso   1.00
C1125  C     0.13040   0.90198   0.53731   0.00000  Uiso   1.00
C1126  C     0.36281   0.89247   0.53959   0.00000  Uiso   1.00
C1127  C     0.43754   0.69263   0.49981   0.00000  Uiso   1.00
C1128  C     0.13048   0.59820   0.46294   0.00000  Uiso   1.00
C1129  C     0.13982   0.61129   0.54120   0.00000  Uiso   1.00
C1130  C     0.36073   0.89007   0.45838   0.00000  Uiso   1.00
C1131  C     0.09916   0.83755   0.50269   0.00000  Uiso   1.00
C1132  C     0.40226   0.66029   0.49921   0.00000  Uiso   1.00
C1133  C     0.40195   0.83798   0.49924   0.00000  Uiso   1.00
C1134  C     0.09946   0.66278   0.49749   0.00000  Uiso   1.00
C1135  C     0.34845   0.58739   0.49975   0.00000  Uiso   1.00
C1136  C     0.15090   0.91225   0.49792   0.00000  Uiso   1.00
C1137  C     0.15095   0.58781   0.50230   0.00000  Uiso   1.00
C1138  C     0.06224   0.80744   0.50065   0.00000  Uiso   1.00
C1139  C     0.34869   0.91144   0.49906   0.00000  Uiso   1.00
C1140  C     0.31273   0.94302   0.49979   0.00000  Uiso   1.00
C1141  C     0.18779   0.55752   0.50059   0.00000  Uiso   1.00
C1142  C     0.18778   0.94249   0.49945   0.00000  Uiso   1.00
C1143  C     0.31185   0.55755   0.49998   0.00000  Uiso   1.00
C1144  C     0.49955   0.79038   0.35806   0.00000  Uiso   1.00
H1145  H     0.48877   0.88439   0.44675   0.00000  Uiso   1.00
H1146  H     0.14835   0.84526   0.65369   0.00000  Uiso   1.00
H1147  H     0.20207   0.79614   0.42688   0.00000  Uiso   1.00
H1148  H     0.34437   0.66480   0.64778   0.00000  Uiso   1.00
H1149  H     0.18668   0.71577   0.61357   0.00000  Uiso   1.00
H1150  H     0.36963   0.77913   0.36174   0.00000  Uiso   1.00
H1151  H     0.31274   0.78925   0.61129   0.00000  Uiso   1.00
H1152  H     0.15117   0.65591   0.34756   0.00000  Uiso   1.00
H1153  H     0.05989   0.95577   0.40482   0.00000  Uiso   1.00
H1154  H     0.43370   0.54352   0.61883   0.00000  Uiso   1.00
H1155  H     0.44646   0.53369   0.39691   0.00000  Uiso   1.00
H1156  H     0.49127   0.61462   0.55441   0.00000  Uiso   1.00
H1157  H     0.06722   0.96162   0.61948   0.00000  Uiso   1.00
H1158  H     0.43767   0.95890   0.60186   0.00000  Uiso   1.00
H1159  H     0.06677   0.53818   0.38149   0.00000  Uiso   1.00
H1160  H     0.06191   0.54450   0.59790   0.00000  Uiso   1.00
H1161  H     0.42117   0.94868   0.37543   0.00000  Uiso   1.00
H1162  H     0.00868   0.61478   0.44271   0.00000  Uiso   1.00
H1163  H     0.00465   0.88634   0.55805   0.00000  Uiso   1.00
H1164  H     0.26073   0.63458   0.44633   0.00000  Uiso   1.00
H1165  H     0.25640   0.86380   0.55488   0.00000  Uiso   1.00
H1166  H     0.24277   0.86471   0.44302   0.00000  Uiso   1.00
H1167  H     0.24389   0.63602   0.55773   0.00000  Uiso   1.00
H1168  H     0.33100   0.70495   0.38166   0.00000  Uiso   1.00
N1169  N     0.00000   0.75000   0.61907   0.00000  Uiso   1.00
N1170  N    -0.00000   0.75000   0.38093   0.00000  Uiso   1.00
N1171  N     0.25000   0.50000   0.61907   0.00000  Uiso   1.00
N1172  N     0.25000   0.50000   0.38093   0.00000  Uiso   1.00
O1173  O     0.04580   0.70419   0.53821   0.00000  Uiso   1.00
O1174  O     0.20419   0.54581   0.46179   0.00000  Uiso   1.00
O1175  O     0.20419   0.54581   0.53821   0.00000  Uiso   1.00
O1176  O     0.29580   0.95419   0.46179   0.00000  Uiso   1.00
O1177  O     0.20419   0.95419   0.46179   0.00000  Uiso   1.00
O1178  O     0.29580   0.54581   0.53821   0.00000  Uiso   1.00
O1179  O     0.29580   0.54581   0.46179   0.00000  Uiso   1.00
O1180  O     0.20419   0.95419   0.53821   0.00000  Uiso   1.00
O1181  O     0.02083   0.88005   0.36798   0.00000  Uiso   1.00
O1182  O     0.44802   0.85782   0.37875   0.00000  Uiso   1.00
O1183  O     0.00060   0.85420   0.44061   0.00000  Uiso   1.00
O1184  O     0.45419   0.79581   0.46179   0.00000  Uiso   1.00
O1185  O     0.02459   0.62150   0.63178   0.00000  Uiso   1.00
O1186  O     0.45070   0.64226   0.62369   0.00000  Uiso   1.00
O1187  O     0.00060   0.64591   0.55946   0.00000  Uiso   1.00
O1188  O     0.47433   0.62296   0.36522   0.00000  Uiso   1.00
O1189  O     0.04894   0.63909   0.37342   0.00000  Uiso   1.00
O1190  O     0.49983   0.64622   0.43806   0.00000  Uiso   1.00
O1191  O     0.47015   0.87561   0.63424   0.00000  Uiso   1.00
O1192  O     0.04584   0.86225   0.62759   0.00000  Uiso   1.00
O1193  O     0.49912   0.85395   0.56183   0.00000  Uiso   1.00
O1194  O     0.30121   0.60787   0.37786   0.00000  Uiso   1.00
O1195  O     0.45419   0.79581   0.53821   0.00000  Uiso   1.00
O1196  O     0.22777   0.62938   0.36799   0.00000  Uiso   1.00
O1197  O     0.24941   0.60416   0.44052   0.00000  Uiso   1.00
O1198  O     0.29834   0.89089   0.62431   0.00000  Uiso   1.00
O1199  O     0.22393   0.87240   0.63169   0.00000  Uiso   1.00
O1200  O     0.24959   0.89591   0.55948   0.00000  Uiso   1.00
O1201  O     0.20065   0.88963   0.37435   0.00000  Uiso   1.00
O1202  O     0.27497   0.87211   0.36537   0.00000  Uiso   1.00
O1203  O     0.25061   0.89637   0.43823   0.00000  Uiso   1.00
O1204  O     0.20189   0.61090   0.62681   0.00000  Uiso   1.00
O1205  O     0.27667   0.62667   0.63446   0.00000  Uiso   1.00
O1206  O     0.04580   0.70419   0.46179   0.00000  Uiso   1.00
O1207  O     0.25033   0.60384   0.56179   0.00000  Uiso   1.00
O1208  O     0.41128   0.70487   0.39729   0.00000  Uiso   1.00
O1209  O     0.38849   0.63199   0.37172   0.00000  Uiso   1.00
O1210  O     0.33303   0.68503   0.40741   0.00000  Uiso   1.00
O1211  O     0.09820   0.79456   0.60172   0.00000  Uiso   1.00
O1212  O     0.17019   0.81061   0.57665   0.00000  Uiso   1.00
O1213  O     0.13537   0.86485   0.63133   0.00000  Uiso   1.00
O1214  O     0.13455   0.76203   0.45558   0.00000  Uiso   1.00
O1215  O     0.10217   0.79819   0.39182   0.00000  Uiso   1.00
O1216  O     0.18221   0.81024   0.40599   0.00000  Uiso   1.00
O1217  O     0.45419   0.70419   0.46179   0.00000  Uiso   1.00
O1218  O     0.40051   0.71085   0.59897   0.00000  Uiso   1.00
O1219  O     0.32872   0.69713   0.57041   0.00000  Uiso   1.00
O1220  O     0.35899   0.64398   0.62731   0.00000  Uiso   1.00
O1221  O     0.13480   0.73823   0.54497   0.00000  Uiso   1.00
O1222  O     0.10203   0.70185   0.60857   0.00000  Uiso   1.00
O1223  O     0.18221   0.68940   0.59409   0.00000  Uiso   1.00
O1224  O     0.36380   0.76116   0.45478   0.00000  Uiso   1.00
O1225  O     0.31602   0.81216   0.41751   0.00000  Uiso   1.00
O1226  O     0.38888   0.79579   0.38167   0.00000  Uiso   1.00
O1227  O     0.36741   0.76681   0.54517   0.00000  Uiso   1.00
O1228  O     0.04580   0.79581   0.53821   0.00000  Uiso   1.00
O1229  O     0.39725   0.80356   0.61080   0.00000  Uiso   1.00
O1230  O     0.31774   0.81525   0.59201   0.00000  Uiso   1.00
O1231  O     0.10019   0.70595   0.39870   0.00000  Uiso   1.00
O1232  O     0.17164   0.68991   0.42585   0.00000  Uiso   1.00
O1233  O     0.13868   0.63592   0.36982   0.00000  Uiso   1.00
O1234  O     0.14759   0.95497   0.39839   0.00000  Uiso   1.00
O1235  O     0.10813   0.88843   0.37699   0.00000  Uiso   1.00
O1236  O     0.07247   0.94246   0.43150   0.00000  Uiso   1.00
O1237  O     0.35128   0.55399   0.61167   0.00000  Uiso   1.00
O1238  O     0.38275   0.51628   0.54740   0.00000  Uiso   1.00
O1239  O     0.04580   0.79581   0.46179   0.00000  Uiso   1.00
O1240  O     0.43115   0.56547   0.59477   0.00000  Uiso   1.00
O1241  O     0.38544   0.50988   0.45583   0.00000  Uiso   1.00
O1242  O     0.36211   0.54578   0.38798   0.00000  Uiso   1.00
O1243  O     0.43867   0.55995   0.41538   0.00000  Uiso   1.00
O1244  O     0.14932   0.95168   0.60866   0.00000  Uiso   1.00
O1245  O     0.11569   0.98762   0.54528   0.00000  Uiso   1.00
O1246  O     0.06894   0.93922   0.59528   0.00000  Uiso   1.00
O1247  O     0.34847   0.96004   0.60037   0.00000  Uiso   1.00
O1248  O     0.38676   0.89422   0.62387   0.00000  Uiso   1.00
O1249  O     0.42612   0.94803   0.57343   0.00000  Uiso   1.00
O1250  O     0.45419   0.70419   0.53821   0.00000  Uiso   1.00
O1251  O     0.14906   0.54841   0.39149   0.00000  Uiso   1.00
O1252  O     0.11586   0.51274   0.45517   0.00000  Uiso   1.00
O1253  O     0.06872   0.56099   0.40528   0.00000  Uiso   1.00
O1254  O     0.14921   0.54505   0.60173   0.00000  Uiso   1.00
O1255  O     0.11099   0.61210   0.62433   0.00000  Uiso   1.00
O1256  O     0.07334   0.55845   0.57101   0.00000  Uiso   1.00
O1257  O     0.36264   0.88382   0.37063   0.00000  Uiso   1.00
O1258  O     0.33850   0.95603   0.39687   0.00000  Uiso   1.00
O1259  O     0.41715   0.93756   0.40572   0.00000  Uiso   1.00
O1260  O     0.29580   0.95419   0.53821   0.00000  Uiso   1.00
S1261  S     0.49295   0.84482   0.38697   0.00000  Uiso   1.00
S1262  S     0.12803   0.83080   0.58810   0.00000  Uiso   1.00
S1263  S     0.13411   0.80331   0.42805   0.00000  Uiso   1.00
S1264  S     0.36964   0.67583   0.58412   0.00000  Uiso   1.00
S1265  S     0.13406   0.69688   0.57238   0.00000  Uiso   1.00
S1266  S     0.36149   0.80333   0.42846   0.00000  Uiso   1.00
S1267  S     0.36698   0.80832   0.57308   0.00000  Uiso   1.00
S1268  S     0.12992   0.66975   0.41296   0.00000  Uiso   1.00
S1269  S     0.11822   0.91938   0.41450   0.00000  Uiso   1.00
S1270  S     0.38239   0.55829   0.57464   0.00000  Uiso   1.00
S1271  S     0.38795   0.55170   0.42901   0.00000  Uiso   1.00
S1272  S     0.49502   0.65563   0.61335   0.00000  Uiso   1.00
S1273  S     0.11684   0.94647   0.57295   0.00000  Uiso   1.00
S1274  S     0.37937   0.92473   0.58593   0.00000  Uiso   1.00
S1275  S     0.11675   0.55379   0.42737   0.00000  Uiso   1.00
S1276  S     0.11970   0.58104   0.58650   0.00000  Uiso   1.00
S1277  S     0.36749   0.91779   0.40681   0.00000  Uiso   1.00
S1278  S     0.00545   0.65532   0.38432   0.00000  Uiso   1.00
S1279  S     0.00309   0.84471   0.61571   0.00000  Uiso   1.00
S1280  S     0.25648   0.59466   0.38680   0.00000  Uiso   1.00
S1281  S     0.25447   0.90554   0.61345   0.00000  Uiso   1.00
S1282  S     0.24443   0.90523   0.38453   0.00000  Uiso   1.00
S1283  S     0.24526   0.59457   0.61556   0.00000  Uiso   1.00
S1284  S     0.38312   0.66616   0.40762   0.00000  Uiso   1.00
Zn1285 Zn   -0.00000   0.75000   0.55104   0.00000  Uiso   1.00
Zn1286 Zn    0.00000   0.75000   0.44896   0.00000  Uiso   1.00
Zn1287 Zn    0.25000   0.50000   0.55104   0.00000  Uiso   1.00
Zn1288 Zn    0.25000   0.50000   0.44896   0.00000  Uiso   1.00
C1289  C     0.56233   0.69267   0.49939   0.00000  Uiso   1.00
C1290  C     0.50076   0.70980   0.64199   0.00000  Uiso   1.00
C1291  C     0.50077   0.70978   0.35701   0.00000  Uiso   1.00
C1292  C     0.99963   0.79026   0.64297   0.00000  Uiso   1.00
C1293  C     0.75020   0.54032   0.35802   0.00000  Uiso   1.00
C1294  C     0.74936   0.95979   0.64202   0.00000  Uiso   1.00
C1295  C     0.74933   0.95973   0.35706   0.00000  Uiso   1.00
C1296  C     0.75001   0.54024   0.64294   0.00000  Uiso   1.00
C1297  C     0.89066   0.63847   0.45884   0.00000  Uiso   1.00
C1298  C     0.61013   0.86105   0.54168   0.00000  Uiso   1.00
C1299  C     0.62012   0.84766   0.46361   0.00000  Uiso   1.00
C1300  C     0.93826   0.80771   0.49987   0.00000  Uiso   1.00
C1301  C     0.88771   0.64195   0.53978   0.00000  Uiso   1.00
C1302  C     0.62023   0.65258   0.53668   0.00000  Uiso   1.00
C1303  C     0.88165   0.84884   0.46027   0.00000  Uiso   1.00
C1304  C     0.88326   0.85154   0.53814   0.00000  Uiso   1.00
C1305  C     0.61059   0.63934   0.45853   0.00000  Uiso   1.00
C1306  C     0.63956   0.88891   0.45905   0.00000  Uiso   1.00
C1307  C     0.86687   0.60122   0.53877   0.00000  Uiso   1.00
C1308  C     0.86921   0.59768   0.46098   0.00000  Uiso   1.00
C1309  C     0.63040   0.90198   0.53731   0.00000  Uiso   1.00
C1310  C     0.86281   0.89247   0.53959   0.00000  Uiso   1.00
C1311  C     0.93754   0.69263   0.49981   0.00000  Uiso   1.00
C1312  C     0.63048   0.59820   0.46294   0.00000  Uiso   1.00
C1313  C     0.63982   0.61129   0.54120   0.00000  Uiso   1.00
C1314  C     0.86073   0.89007   0.45838   0.00000  Uiso   1.00
C1315  C     0.59916   0.83755   0.50269   0.00000  Uiso   1.00
C1316  C     0.90226   0.66029   0.49921   0.00000  Uiso   1.00
C1317  C     0.90195   0.83798   0.49924   0.00000  Uiso   1.00
C1318  C     0.59946   0.66278   0.49749   0.00000  Uiso   1.00
C1319  C     0.84845   0.58739   0.49975   0.00000  Uiso   1.00
C1320  C     0.65090   0.91225   0.49792   0.00000  Uiso   1.00
C1321  C     0.65095   0.58781   0.50230   0.00000  Uiso   1.00
C1322  C     0.56224   0.80744   0.50065   0.00000  Uiso   1.00
C1323  C     0.84869   0.91144   0.49906   0.00000  Uiso   1.00
C1324  C     0.81273   0.94302   0.49979   0.00000  Uiso   1.00
C1325  C     0.68779   0.55752   0.50059   0.00000  Uiso   1.00
C1326  C     0.68778   0.94249   0.49945   0.00000  Uiso   1.00
C1327  C     0.81185   0.55755   0.49998   0.00000  Uiso   1.00
C1328  C     0.99955   0.79038   0.35806   0.00000  Uiso   1.00
H1329  H     0.98877   0.88439   0.44675   0.00000  Uiso   1.00
H1330  H     0.64835   0.84526   0.65369   0.00000  Uiso   1.00
H1331  H     0.70207   0.79614   0.42688   0.00000  Uiso   1.00
H1332  H     0.84437   0.66480   0.64778   0.00000  Uiso   1.00
H1333  H     0.68668   0.71577   0.61357   0.00000  Uiso   1.00
H1334  H     0.86963   0.77913   0.36174   0.00000  Uiso   1.00
H1335  H     0.81274   0.78925   0.61129   0.00000  Uiso   1.00
H1336  H     0.65117   0.65591   0.34756   0.00000  Uiso   1.00
H1337  H     0.55989   0.95577   0.40482   0.00000  Uiso   1.00
H1338  H     0.93370   0.54352   0.61883   0.00000  Uiso   1.00
H1339  H     0.94646   0.53369   0.39691   0.00000  Uiso   1.00
H1340  H     0.99127   0.61462   0.55441   0.00000  Uiso   1.00
H1341  H     0.56722   0.96162   0.61948   0.00000  Uiso   1.00
H1342  H     0.93767   0.95890   0.60186   0.00000  Uiso   1.00
H1343  H     0.56677   0.53818   0.38149   0.00000  Uiso   1.00
H1344  H     0.56191   0.54450   0.59790   0.00000  Uiso   1.00
H1345  H     0.92117   0.94868   0.37543   0.00000  Uiso   1.00
H1346  H     0.50868   0.61478   0.44271   0.00000  Uiso   1.00
H1347  H     0.50465   0.88634   0.55805   0.00000  Uiso   1.00
H1348  H     0.76073   0.63458   0.44633   0.00000  Uiso   1.00
H1349  H     0.75640   0.86380   0.55488   0.00000  Uiso   1.00
H1350  H     0.74277   0.86471   0.44302   0.00000  Uiso   1.00
H1351  H     0.74389   0.63602   0.55773   0.00000  Uiso   1.00
H1352  H     0.83100   0.70495   0.38166   0.00000  Uiso   1.00
N1353  N     0.50000   0.75000   0.61907   0.00000  Uiso   1.00
N1354  N     0.50000   0.75000   0.38093   0.00000  Uiso   1.00
N1355  N     0.75000   0.50000   0.61907   0.00000  Uiso   1.00
N1356  N     0.75000   0.50000   0.38093   0.00000  Uiso   1.00
O1357  O     0.54580   0.70419   0.53821   0.00000  Uiso   1.00
O1358  O     0.70419   0.54581   0.46179   0.00000  Uiso   1.00
O1359  O     0.70419   0.54581   0.53821   0.00000  Uiso   1.00
O1360  O     0.79580   0.95419   0.46179   0.00000  Uiso   1.00
O1361  O     0.70419   0.95419   0.46179   0.00000  Uiso   1.00
O1362  O     0.79580   0.54581   0.53821   0.00000  Uiso   1.00
O1363  O     0.79580   0.54581   0.46179   0.00000  Uiso   1.00
O1364  O     0.70419   0.95419   0.53821   0.00000  Uiso   1.00
O1365  O     0.52083   0.88005   0.36798   0.00000  Uiso   1.00
O1366  O     0.94802   0.85782   0.37875   0.00000  Uiso   1.00
O1367  O     0.50060   0.85420   0.44061   0.00000  Uiso   1.00
O1368  O     0.95419   0.79581   0.46179   0.00000  Uiso   1.00
O1369  O     0.52459   0.62150   0.63178   0.00000  Uiso   1.00
O1370  O     0.95070   0.64226   0.62369   0.00000  Uiso   1.00
O1371  O     0.50060   0.64591   0.55946   0.00000  Uiso   1.00
O1372  O     0.97433   0.62296   0.36522   0.00000  Uiso   1.00
O1373  O     0.54894   0.63909   0.37342   0.00000  Uiso   1.00
O1374  O     0.99983   0.64622   0.43806   0.00000  Uiso   1.00
O1375  O     0.97015   0.87561   0.63424   0.00000  Uiso   1.00
O1376  O     0.54584   0.86225   0.62759   0.00000  Uiso   1.00
O1377  O     0.99912   0.85395   0.56183   0.00000  Uiso   1.00
O1378  O     0.80121   0.60787   0.37786   0.00000  Uiso   1.00
O1379  O     0.95419   0.79581   0.53821   0.00000  Uiso   1.00
O1380  O     0.72777   0.62938   0.36799   0.00000  Uiso   1.00
O1381  O     0.74941   0.60416   0.44052   0.00000  Uiso   1.00
O1382  O     0.79834   0.89089   0.62431   0.00000  Uiso   1.00
O1383  O     0.72393   0.87240   0.63169   0.00000  Uiso   1.00
O1384  O     0.74959   0.89591   0.55948   0.00000  Uiso   1.00
O1385  O     0.70065   0.88963   0.37435   0.00000  Uiso   1.00
O1386  O     0.77497   0.87211   0.36537   0.00000  Uiso   1.00
O1387  O     0.75061   0.89637   0.43823   0.00000  Uiso   1.00
O1388  O     0.70189   0.61090   0.62681   0.00000  Uiso   1.00
O1389  O     0.77667   0.62667   0.63446   0.00000  Uiso   1.00
O1390  O     0.54580   0.70419   0.46179   0.00000  Uiso   1.00
O1391  O     0.75033   0.60384   0.56179   0.00000  Uiso   1.00
O1392  O     0.91128   0.70487   0.39729   0.00000  Uiso   1.00
O1393  O     0.88849   0.63199   0.37172   0.00000  Uiso   1.00
O1394  O     0.83303   0.68503   0.40741   0.00000  Uiso   1.00
O1395  O     0.59820   0.79456   0.60172   0.00000  Uiso   1.00
O1396  O     0.67019   0.81061   0.57665   0.00000  Uiso   1.00
O1397  O     0.63537   0.86485   0.63133   0.00000  Uiso   1.00
O1398  O     0.63455   0.76203   0.45558   0.00000  Uiso   1.00
O1399  O     0.60217   0.79819   0.39182   0.00000  Uiso   1.00
O1400  O     0.68221   0.81024   0.40599   0.00000  Uiso   1.00
O1401  O     0.95419   0.70419   0.46179   0.00000  Uiso   1.00
O1402  O     0.90051   0.71085   0.59897   0.00000  Uiso   1.00
O1403  O     0.82872   0.69713   0.57041   0.00000  Uiso   1.00
O1404  O     0.85899   0.64398   0.62731   0.00000  Uiso   1.00
O1405  O     0.63480   0.73823   0.54497   0.00000  Uiso   1.00
O1406  O     0.60203   0.70185   0.60857   0.00000  Uiso   1.00
O1407  O     0.68221   0.68940   0.59409   0.00000  Uiso   1.00
O1408  O     0.86380   0.76116   0.45478   0.00000  Uiso   1.00
O1409  O     0.81602   0.81216   0.41751   0.00000  Uiso   1.00
O1410  O     0.88888   0.79579   0.38167   0.00000  Uiso   1.00
O1411  O     0.86741   0.76681   0.54517   0.00000  Uiso   1.00
O1412  O     0.54580   0.79581   0.53821   0.00000  Uiso   1.00
O1413  O     0.89725   0.80356   0.61080   0.00000  Uiso   1.00
O1414  O     0.81774   0.81525   0.59201   0.00000  Uiso   1.00
O1415  O     0.60019   0.70595   0.39870   0.00000  Uiso   1.00
O1416  O     0.67164   0.68991   0.42585   0.00000  Uiso   1.00
O1417  O     0.63868   0.63592   0.36982   0.00000  Uiso   1.00
O1418  O     0.64759   0.95497   0.39839   0.00000  Uiso   1.00
O1419  O     0.60813   0.88843   0.37699   0.00000  Uiso   1.00
O1420  O     0.57247   0.94246   0.43150   0.00000  Uiso   1.00
O1421  O     0.85128   0.55399   0.61167   0.00000  Uiso   1.00
O1422  O     0.88275   0.51628   0.54740   0.00000  Uiso   1.00
O1423  O     0.54580   0.79581   0.46179   0.00000  Uiso   1.00
O1424  O     0.93115   0.56547   0.59477   0.00000  Uiso   1.00
O1425  O     0.88544   0.50988   0.45583   0.00000  Uiso   1.00
O1426  O     0.86211   0.54578   0.38798   0.00000  Uiso   1.00
O1427  O     0.93867   0.55995   0.41538   0.00000  Uiso   1.00
O1428  O     0.64932   0.95168   0.60866   0.00000  Uiso   1.00
O1429  O     0.61569   0.98762   0.54528   0.00000  Uiso   1.00
O1430  O     0.56894   0.93922   0.59528   0.00000  Uiso   1.00
O1431  O     0.84847   0.96004   0.60037   0.00000  Uiso   1.00
O1432  O     0.88676   0.89422   0.62387   0.00000  Uiso   1.00
O1433  O     0.92612   0.94803   0.57343   0.00000  Uiso   1.00
O1434  O     0.95419   0.70419   0.53821   0.00000  Uiso   1.00
O1435  O     0.64906   0.54841   0.39149   0.00000  Uiso   1.00
O1436  O     0.61586   0.51274   0.45517   0.00000  Uiso   1.00
O1437  O     0.56872   0.56099   0.40528   0.00000  Uiso   1.00
O1438  O     0.64921   0.54505   0.60173   0.00000  Uiso   1.00
O1439  O     0.61099   0.61210   0.62433   0.00000  Uiso   1.00
O1440  O     0.57334   0.55845   0.57101   0.00000  Uiso   1.00
O1441  O     0.86264   0.88382   0.37063   0.00000  Uiso   1.00
O1442  O     0.83850   0.95603   0.39687   0.00000  Uiso   1.00
O1443  O     0.91715   0.93756   0.40572   0.00000  Uiso   1.00
O1444  O     0.79580   0.95419   0.53821   0.00000  Uiso   1.00
S1445  S     0.99295   0.84482   0.38697   0.00000  Uiso   1.00
S1446  S     0.62803   0.83080   0.58810   0.00000  Uiso   1.00
S1447  S     0.63411   0.80331   0.42805   0.00000  Uiso   1.00
S1448  S     0.86964   0.67583   0.58412   0.00000  Uiso   1.00
S1449  S     0.63406   0.69688   0.57238   0.00000  Uiso   1.00
S1450  S     0.86149   0.80333   0.42846   0.00000  Uiso   1.00
S1451  S     0.86698   0.80832   0.57308   0.00000  Uiso   1.00
S1452  S     0.62992   0.66975   0.41296   0.00000  Uiso   1.00
S1453  S     0.61822   0.91938   0.41450   0.00000  Uiso   1.00
S1454  S     0.88239   0.55829   0.57464   0.00000  Uiso   1.00
S1455  S     0.88795   0.55170   0.42901   0.00000  Uiso   1.00
S1456  S     0.99502   0.65563   0.61335   0.00000  Uiso   1.00
S1457  S     0.61684   0.94647   0.57295   0.00000  Uiso   1.00
S1458  S     0.87937   0.92473   0.58593   0.00000  Uiso   1.00
S1459  S     0.61675   0.55379   0.42737   0.00000  Uiso   1.00
S1460  S     0.61970   0.58104   0.58650   0.00000  Uiso   1.00
S1461  S     0.86749   0.91779   0.40681   0.00000  Uiso   1.00
S1462  S     0.50545   0.65532   0.38432   0.00000  Uiso   1.00
S1463  S     0.50309   0.84471   0.61571   0.00000  Uiso   1.00
S1464  S     0.75648   0.59466   0.38680   0.00000  Uiso   1.00
S1465  S     0.75447   0.90554   0.61345   0.00000  Uiso   1.00
S1466  S     0.74443   0.90523   0.38453   0.00000  Uiso   1.00
S1467  S     0.74526   0.59457   0.61556   0.00000  Uiso   1.00
S1468  S     0.88312   0.66616   0.40762   0.00000  Uiso   1.00
Zn1469 Zn    0.50000   0.75000   0.55104   0.00000  Uiso   1.00
Zn1470 Zn    0.50000   0.75000   0.44896   0.00000  Uiso   1.00
Zn1471 Zn    0.75000   0.50000   0.55104   0.00000  Uiso   1.00
Zn1472 Zn    0.75000   0.50000   0.44896   0.00000  Uiso   1.00
C1473  C     0.06233   0.19267   0.83272   0.00000  Uiso   1.00
C1474  C     0.00076   0.20980   0.97532   0.00000  Uiso   1.00
C1475  C     0.00077   0.20978   0.69034   0.00000  Uiso   1.00
C1476  C     0.49963   0.29026   0.97631   0.00000  Uiso   1.00
C1477  C     0.25020   0.04032   0.69135   0.00000  Uiso   1.00
C1478  C     0.24936   0.45979   0.97536   0.00000  Uiso   1.00
C1479  C     0.24933   0.45973   0.69040   0.00000  Uiso   1.00
C1480  C     0.25001   0.04024   0.97627   0.00000  Uiso   1.00
C1481  C     0.39066   0.13847   0.79217   0.00000  Uiso   1.00
C1482  C     0.11013   0.36105   0.87501   0.00000  Uiso   1.00
C1483  C     0.12012   0.34766   0.79695   0.00000  Uiso   1.00
C1484  C     0.43826   0.30771   0.83321   0.00000  Uiso   1.00
C1485  C     0.38771   0.14195   0.87311   0.00000  Uiso   1.00
C1486  C     0.12023   0.15258   0.87001   0.00000  Uiso   1.00
C1487  C     0.38165   0.34884   0.79360   0.00000  Uiso   1.00
C1488  C     0.38326   0.35154   0.87147   0.00000  Uiso   1.00
C1489  C     0.11059   0.13934   0.79186   0.00000  Uiso   1.00
C1490  C     0.13956   0.38891   0.79239   0.00000  Uiso   1.00
C1491  C     0.36687   0.10122   0.87210   0.00000  Uiso   1.00
C1492  C     0.36921   0.09768   0.79432   0.00000  Uiso   1.00
C1493  C     0.13040   0.40198   0.87065   0.00000  Uiso   1.00
C1494  C     0.36281   0.39247   0.87292   0.00000  Uiso   1.00
C1495  C     0.43754   0.19263   0.83314   0.00000  Uiso   1.00
C1496  C     0.13048   0.09820   0.79627   0.00000  Uiso   1.00
C1497  C     0.13982   0.11129   0.87453   0.00000  Uiso   1.00
C1498  C     0.36073   0.39007   0.79171   0.00000  Uiso   1.00
C1499  C     0.09916   0.33755   0.83602   0.00000  Uiso   1.00
C1500  C     0.40226   0.16029   0.83255   0.00000  Uiso   1.00
C1501  C     0.40195   0.33798   0.83257   0.00000  Uiso   1.00
C1502  C     0.09946   0.16278   0.83082   0.00000  Uiso   1.00
C1503  C     0.34845   0.08739   0.83308   0.00000  Uiso   1.00
C1504  C     0.15090   0.41225   0.83125   0.00000  Uiso   1.00
C1505  C     0.15095   0.08781   0.83563   0.00000  Uiso   1.00
C1506  C     0.06224   0.30744   0.83398   0.00000  Uiso   1.00
C1507  C     0.34869   0.41144   0.83239   0.00000  Uiso   1.00
C1508  C     0.31273   0.44302   0.83312   0.00000  Uiso   1.00
C1509  C     0.18779   0.05752   0.83392   0.00000  Uiso   1.00
C1510  C     0.18778   0.44249   0.83278   0.00000  Uiso   1.00
C1511  C     0.31185   0.05755   0.83331   0.00000  Uiso   1.00
C1512  C     0.49955   0.29038   0.69139   0.00000  Uiso   1.00
H1513  H     0.48877   0.38439   0.78008   0.00000  Uiso   1.00
H1514  H     0.14835   0.34526   0.98703   0.00000  Uiso   1.00
H1515  H     0.20207   0.29614   0.76022   0.00000  Uiso   1.00
H1516  H     0.34437   0.16480   0.98111   0.00000  Uiso   1.00
H1517  H     0.18668   0.21577   0.94690   0.00000  Uiso   1.00
H1518  H     0.36963   0.27913   0.69508   0.00000  Uiso   1.00
H1519  H     0.31274   0.28925   0.94462   0.00000  Uiso   1.00
H1520  H     0.15117   0.15591   0.68089   0.00000  Uiso   1.00
H1521  H     0.05989   0.45577   0.73815   0.00000  Uiso   1.00
H1522  H     0.43370   0.04352   0.95216   0.00000  Uiso   1.00
H1523  H     0.44646   0.03369   0.73024   0.00000  Uiso   1.00
H1524  H     0.49127   0.11462   0.88775   0.00000  Uiso   1.00
H1525  H     0.06722   0.46162   0.95281   0.00000  Uiso   1.00
H1526  H     0.43767   0.45890   0.93519   0.00000  Uiso   1.00
H1527  H     0.06677   0.03818   0.71482   0.00000  Uiso   1.00
H1528  H     0.06191   0.04450   0.93123   0.00000  Uiso   1.00
H1529  H     0.42117   0.44868   0.70876   0.00000  Uiso   1.00
H1530  H     0.00868   0.11478   0.77604   0.00000  Uiso   1.00
H1531  H     0.00465   0.38634   0.89138   0.00000  Uiso   1.00
H1532  H     0.26073   0.13458   0.77967   0.00000  Uiso   1.00
H1533  H     0.25640   0.36380   0.88821   0.00000  Uiso   1.00
H1534  H     0.24277   0.36471   0.77635   0.00000  Uiso   1.00
H1535  H     0.24389   0.13602   0.89106   0.00000  Uiso   1.00
H1536  H     0.33100   0.20495   0.71499   0.00000  Uiso   1.00
N1537  N     0.00000   0.25000   0.95240   0.00000  Uiso   1.00
N1538  N    -0.00000   0.25000   0.71427   0.00000  Uiso   1.00
N1539  N     0.25000   0.00000   0.95240   0.00000  Uiso   1.00
N1540  N     0.25000   0.00000   0.71427   0.00000  Uiso   1.00
O1541  O     0.04580   0.20419   0.87154   0.00000  Uiso   1.00
O1542  O     0.20419   0.04581   0.79513   0.00000  Uiso   1.00
O1543  O     0.20419   0.04581   0.87154   0.00000  Uiso   1.00
O1544  O     0.29580   0.45419   0.79513   0.00000  Uiso   1.00
O1545  O     0.20419   0.45419   0.79513   0.00000  Uiso   1.00
O1546  O     0.29580   0.04581   0.87154   0.00000  Uiso   1.00
O1547  O     0.29580   0.04581   0.79513   0.00000  Uiso   1.00
O1548  O     0.20419   0.45419   0.87154   0.00000  Uiso   1.00
O1549  O     0.02083   0.38005   0.70131   0.00000  Uiso   1.00
O1550  O     0.44802   0.35782   0.71209   0.00000  Uiso   1.00
O1551  O     0.00060   0.35420   0.77394   0.00000  Uiso   1.00
O1552  O     0.45419   0.29581   0.79513   0.00000  Uiso   1.00
O1553  O     0.02459   0.12150   0.96511   0.00000  Uiso   1.00
O1554  O     0.45070   0.14226   0.95702   0.00000  Uiso   1.00
O1555  O     0.00060   0.14591   0.89280   0.00000  Uiso   1.00
O1556  O     0.47433   0.12296   0.69856   0.00000  Uiso   1.00
O1557  O     0.04894   0.13909   0.70675   0.00000  Uiso   1.00
O1558  O     0.49983   0.14622   0.77139   0.00000  Uiso   1.00
O1559  O     0.47015   0.37561   0.96758   0.00000  Uiso   1.00
O1560  O     0.04584   0.36225   0.96092   0.00000  Uiso   1.00
O1561  O     0.49912   0.35395   0.89517   0.00000  Uiso   1.00
O1562  O     0.30121   0.10787   0.71119   0.00000  Uiso   1.00
O1563  O     0.45419   0.29581   0.87154   0.00000  Uiso   1.00
O1564  O     0.22777   0.12938   0.70132   0.00000  Uiso   1.00
O1565  O     0.24941   0.10416   0.77385   0.00000  Uiso   1.00
O1566  O     0.29834   0.39089   0.95765   0.00000  Uiso   1.00
O1567  O     0.22393   0.37240   0.96502   0.00000  Uiso   1.00
O1568  O     0.24959   0.39591   0.89282   0.00000  Uiso   1.00
O1569  O     0.20065   0.38963   0.70768   0.00000  Uiso   1.00
O1570  O     0.27497   0.37211   0.69871   0.00000  Uiso   1.00
O1571  O     0.25061   0.39637   0.77157   0.00000  Uiso   1.00
O1572  O     0.20189   0.11090   0.96014   0.00000  Uiso   1.00
O1573  O     0.27667   0.12667   0.96779   0.00000  Uiso   1.00
O1574  O     0.04580   0.20419   0.79513   0.00000  Uiso   1.00
O1575  O     0.25033   0.10384   0.89513   0.00000  Uiso   1.00
O1576  O     0.41128   0.20487   0.73063   0.00000  Uiso   1.00
O1577  O     0.38849   0.13199   0.70505   0.00000  Uiso   1.00
O1578  O     0.33303   0.18503   0.74075   0.00000  Uiso   1.00
O1579  O     0.09820   0.29456   0.93505   0.00000  Uiso   1.00
O1580  O     0.17019   0.31061   0.90998   0.00000  Uiso   1.00
O1581  O     0.13537   0.36485   0.96467   0.00000  Uiso   1.00
O1582  O     0.13455   0.26203   0.78892   0.00000  Uiso   1.00
O1583  O     0.10217   0.29819   0.72515   0.00000  Uiso   1.00
O1584  O     0.18221   0.31024   0.73933   0.00000  Uiso   1.00
O1585  O     0.45419   0.20419   0.79513   0.00000  Uiso   1.00
O1586  O     0.40051   0.21085   0.93230   0.00000  Uiso   1.00
O1587  O     0.32872   0.19713   0.90374   0.00000  Uiso   1.00
O1588  O     0.35899   0.14398   0.96065   0.00000  Uiso   1.00
O1589  O     0.13480   0.23823   0.87831   0.00000  Uiso   1.00
O1590  O     0.10203   0.20185   0.94191   0.00000  Uiso   1.00
O1591  O     0.18221   0.18940   0.92743   0.00000  Uiso   1.00
O1592  O     0.36380   0.26116   0.78811   0.00000  Uiso   1.00
O1593  O     0.31602   0.31216   0.75084   0.00000  Uiso   1.00
O1594  O     0.38888   0.29579   0.71500   0.00000  Uiso   1.00
O1595  O     0.36741   0.26681   0.87850   0.00000  Uiso   1.00
O1596  O     0.04580   0.29581   0.87154   0.00000  Uiso   1.00
O1597  O     0.39725   0.30356   0.94413   0.00000  Uiso   1.00
O1598  O     0.31774   0.31525   0.92534   0.00000  Uiso   1.00
O1599  O     0.10019   0.20595   0.73204   0.00000  Uiso   1.00
O1600  O     0.17164   0.18991   0.75918   0.00000  Uiso   1.00
O1601  O     0.13868   0.13592   0.70316   0.00000  Uiso   1.00
O1602  O     0.14759   0.45497   0.73172   0.00000  Uiso   1.00
O1603  O     0.10813   0.38843   0.71032   0.00000  Uiso   1.00
O1604  O     0.07247   0.44246   0.76483   0.00000  Uiso   1.00
O1605  O     0.35128   0.05399   0.94500   0.00000  Uiso   1.00
O1606  O     0.38275   0.01628   0.88074   0.00000  Uiso   1.00
O1607  O     0.04580   0.29581   0.79513   0.00000  Uiso   1.00
O1608  O     0.43115   0.06547   0.92811   0.00000  Uiso   1.00
O1609  O     0.38544   0.00988   0.78916   0.00000  Uiso   1.00
O1610  O     0.36211   0.04578   0.72132   0.00000  Uiso   1.00
O1611  O     0.43867   0.05995   0.74871   0.00000  Uiso   1.00
O1612  O     0.14932   0.45168   0.94200   0.00000  Uiso   1.00
O1613  O     0.11569   0.48762   0.87861   0.00000  Uiso   1.00
O1614  O     0.06894   0.43922   0.92862   0.00000  Uiso   1.00
O1615  O     0.34847   0.46004   0.93370   0.00000  Uiso   1.00
O1616  O     0.38676   0.39422   0.95721   0.00000  Uiso   1.00
O1617  O     0.42612   0.44803   0.90677   0.00000  Uiso   1.00
O1618  O     0.45419   0.20419   0.87154   0.00000  Uiso   1.00
O1619  O     0.14906   0.04841   0.72482   0.00000  Uiso   1.00
O1620  O     0.11586   0.01274   0.78850   0.00000  Uiso   1.00
O1621  O     0.06872   0.06099   0.73862   0.00000  Uiso   1.00
O1622  O     0.14921   0.04505   0.93506   0.00000  Uiso   1.00
O1623  O     0.11099   0.11210   0.95766   0.00000  Uiso   1.00
O1624  O     0.07334   0.05845   0.90435   0.00000  Uiso   1.00
O1625  O     0.36264   0.38382   0.70396   0.00000  Uiso   1.00
O1626  O     0.33850   0.45603   0.73020   0.00000  Uiso   1.00
O1627  O     0.41715   0.43756   0.73906   0.00000  Uiso   1.00
O1628  O     0.29580   0.45419   0.87154   0.00000  Uiso   1.00
S1629  S     0.49295   0.34482   0.72031   0.00000  Uiso   1.00
S1630  S     0.12803   0.33080   0.92144   0.00000  Uiso   1.00
S1631  S     0.13411   0.30331   0.76139   0.00000  Uiso   1.00
S1632  S     0.36964   0.17583   0.91745   0.00000  Uiso   1.00
S1633  S     0.13406   0.19688   0.90571   0.00000  Uiso   1.00
S1634  S     0.36149   0.30333   0.76180   0.00000  Uiso   1.00
S1635  S     0.36698   0.30832   0.90641   0.00000  Uiso   1.00
S1636  S     0.12992   0.16975   0.74630   0.00000  Uiso   1.00
S1637  S     0.11822   0.41938   0.74783   0.00000  Uiso   1.00
S1638  S     0.38239   0.05829   0.90797   0.00000  Uiso   1.00
S1639  S     0.38795   0.05170   0.76235   0.00000  Uiso   1.00
S1640  S     0.49502   0.15563   0.94668   0.00000  Uiso   1.00
S1641  S     0.11684   0.44647   0.90628   0.00000  Uiso   1.00
S1642  S     0.37937   0.42473   0.91927   0.00000  Uiso   1.00
S1643  S     0.11675   0.05379   0.76070   0.00000  Uiso   1.00
S1644  S     0.11970   0.08104   0.91983   0.00000  Uiso   1.00
S1645  S     0.36749   0.41779   0.74014   0.00000  Uiso   1.00
S1646  S     0.00545   0.15532   0.71766   0.00000  Uiso   1.00
S1647  S     0.00309   0.34471   0.94904   0.00000  Uiso   1.00
S1648  S     0.25648   0.09466   0.72014   0.00000  Uiso   1.00
S1649  S     0.25447   0.40554   0.94679   0.00000  Uiso   1.00
S1650  S     0.24443   0.40523   0.71786   0.00000  Uiso   1.00
S1651  S     0.24526   0.09457   0.94890   0.00000  Uiso   1.00
S1652  S     0.38312   0.16616   0.74095   0.00000  Uiso   1.00
Zn1653 Zn   -0.00000   0.25000   0.88437   0.00000  Uiso   1.00
Zn1654 Zn    0.00000   0.25000   0.78229   0.00000  Uiso   1.00
Zn1655 Zn    0.25000   0.00000   0.88437   0.00000  Uiso   1.00
Zn1656 Zn    0.25000   0.00000   0.78229   0.00000  Uiso   1.00
C1657  C     0.56233   0.19267   0.83272   0.00000  Uiso   1.00
C1658  C     0.50076   0.20980   0.97532   0.00000  Uiso   1.00
C1659  C     0.50077   0.20978   0.69034   0.00000  Uiso   1.00
C1660  C     0.99963   0.29026   0.97631   0.00000  Uiso   1.00
C1661  C     0.75020   0.04032   0.69135   0.00000  Uiso   1.00
C1662  C     0.74936   0.45979   0.97536   0.00000  Uiso   1.00
C1663  C     0.74933   0.45973   0.69040   0.00000  Uiso   1.00
C1664  C     0.75001   0.04024   0.97627   0.00000  Uiso   1.00
C1665  C     0.89066   0.13847   0.79217   0.00000  Uiso   1.00
C1666  C     0.61013   0.36105   0.87501   0.00000  Uiso   1.00
C1667  C     0.62012   0.34766   0.79695   0.00000  Uiso   1.00
C1668  C     0.93826   0.30771   0.83321   0.00000  Uiso   1.00
C1669  C     0.88771   0.14195   0.87311   0.00000  Uiso   1.00
C1670  C     0.62023   0.15258   0.87001   0.00000  Uiso   1.00
C1671  C     0.88165   0.34884   0.79360   0.00000  Uiso   1.00
C1672  C     0.88326   0.35154   0.87147   0.00000  Uiso   1.00
C1673  C     0.61059   0.13934   0.79186   0.00000  Uiso   1.00
C1674  C     0.63956   0.38891   0.79239   0.00000  Uiso   1.00
C1675  C     0.86687   0.10122   0.87210   0.00000  Uiso   1.00
C1676  C     0.86921   0.09768   0.79432   0.00000  Uiso   1.00
C1677  C     0.63040   0.40198   0.87065   0.00000  Uiso   1.00
C1678  C     0.86281   0.39247   0.87292   0.00000  Uiso   1.00
C1679  C     0.93754   0.19263   0.83314   0.00000  Uiso   1.00
C1680  C     0.63048   0.09820   0.79627   0.00000  Uiso   1.00
C1681  C     0.63982   0.11129   0.87453   0.00000  Uiso   1.00
C1682  C     0.86073   0.39007   0.79171   0.00000  Uiso   1.00
C1683  C     0.59916   0.33755   0.83602   0.00000  Uiso   1.00
C1684  C     0.90226   0.16029   0.83255   0.00000  Uiso   1.00
C1685  C     0.90195   0.33798   0.83257   0.00000  Uiso   1.00
C1686  C     0.59946   0.16278   0.83082   0.00000  Uiso   1.00
C1687  C     0.84845   0.08739   0.83308   0.00000  Uiso   1.00
C1688  C     0.65090   0.41225   0.83125   0.00000  Uiso   1.00
C1689  C     0.65095   0.08781   0.83563   0.00000  Uiso   1.00
C1690  C     0.56224   0.30744   0.83398   0.00000  Uiso   1.00
C1691  C     0.84869   0.41144   0.83239   0.00000  Uiso   1.00
C1692  C     0.81273   0.44302   0.83312   0.00000  Uiso   1.00
C1693  C     0.68779   0.05752   0.83392   0.00000  Uiso   1.00
C1694  C     0.68778   0.44249   0.83278   0.00000  Uiso   1.00
C1695  C     0.81185   0.05755   0.83331   0.00000  Uiso   1.00
C1696  C     0.99955   0.29038   0.69139   0.00000  Uiso   1.00
H1697  H     0.98877   0.38439   0.78008   0.00000  Uiso   1.00
H1698  H     0.64835   0.34526   0.98703   0.00000  Uiso   1.00
H1699  H     0.70207   0.29614   0.76022   0.00000  Uiso   1.00
H1700  H     0.84437   0.16480   0.98111   0.00000  Uiso   1.00
H1701  H     0.68668   0.21577   0.94690   0.00000  Uiso   1.00
H1702  H     0.86963   0.27913   0.69508   0.00000  Uiso   1.00
H1703  H     0.81274   0.28925   0.94462   0.00000  Uiso   1.00
H1704  H     0.65117   0.15591   0.68089   0.00000  Uiso   1.00
H1705  H     0.55989   0.45577   0.73815   0.00000  Uiso   1.00
H1706  H     0.93370   0.04352   0.95216   0.00000  Uiso   1.00
H1707  H     0.94646   0.03369   0.73024   0.00000  Uiso   1.00
H1708  H     0.99127   0.11462   0.88775   0.00000  Uiso   1.00
H1709  H     0.56722   0.46162   0.95281   0.00000  Uiso   1.00
H1710  H     0.93767   0.45890   0.93519   0.00000  Uiso   1.00
H1711  H     0.56677   0.03818   0.71482   0.00000  Uiso   1.00
H1712  H     0.56191   0.04450   0.93123   0.00000  Uiso   1.00
H1713  H     0.92117   0.44868   0.70876   0.00000  Uiso   1.00
H1714  H     0.50868   0.11478   0.77604   0.00000  Uiso   1.00
H1715  H     0.50465   0.38634   0.89138   0.00000  Uiso   1.00
H1716  H     0.76073   0.13458   0.77967   0.00000  Uiso   1.00
H1717  H     0.75640   0.36380   0.88821   0.00000  Uiso   1.00
H1718  H     0.74277   0.36471   0.77635   0.00000  Uiso   1.00
H1719  H     0.74389   0.13602   0.89106   0.00000  Uiso   1.00
H1720  H     0.83100   0.20495   0.71499   0.00000  Uiso   1.00
N1721  N     0.50000   0.25000   0.95240   0.00000  Uiso   1.00
N1722  N     0.50000   0.25000   0.71427   0.00000  Uiso   1.00
N1723  N     0.75000   0.00000   0.95240   0.00000  Uiso   1.00
N1724  N     0.75000   0.00000   0.71427   0.00000  Uiso   1.00
O1725  O     0.54580   0.20419   0.87154   0.00000  Uiso   1.00
O1726  O     0.70419   0.04581   0.79513   0.00000  Uiso   1.00
O1727  O     0.70419   0.04581   0.87154   0.00000  Uiso   1.00
O1728  O     0.79580   0.45419   0.79513   0.00000  Uiso   1.00
O1729  O     0.70419   0.45419   0.79513   0.00000  Uiso   1.00
O1730  O     0.79580   0.04581   0.87154   0.00000  Uiso   1.00
O1731  O     0.79580   0.04581   0.79513   0.00000  Uiso   1.00
O1732  O     0.70419   0.45419   0.87154   0.00000  Uiso   1.00
O1733  O     0.52083   0.38005   0.70131   0.00000  Uiso   1.00
O1734  O     0.94802   0.35782   0.71209   0.00000  Uiso   1.00
O1735  O     0.50060   0.35420   0.77394   0.00000  Uiso   1.00
O1736  O     0.95419   0.29581   0.79513   0.00000  Uiso   1.00
O1737  O     0.52459   0.12150   0.96511   0.00000  Uiso   1.00
O1738  O     0.95070   0.14226   0.95702   0.00000  Uiso   1.00
O1739  O     0.50060   0.14591   0.89280   0.00000  Uiso   1.00
O1740  O     0.97433   0.12296   0.69856   0.00000  Uiso   1.00
O1741  O     0.54894   0.13909   0.70675   0.00000  Uiso   1.00
O1742  O     0.99983   0.14622   0.77139   0.00000  Uiso   1.00
O1743  O     0.97015   0.37561   0.96758   0.00000  Uiso   1.00
O1744  O     0.54584   0.36225   0.96092   0.00000  Uiso   1.00
O1745  O     0.99912   0.35395   0.89517   0.00000  Uiso   1.00
O1746  O     0.80121   0.10787   0.71119   0.00000  Uiso   1.00
O1747  O     0.95419   0.29581   0.87154   0.00000  Uiso   1.00
O1748  O     0.72777   0.12938   0.70132   0.00000  Uiso   1.00
O1749  O     0.74941   0.10416   0.77385   0.00000  Uiso   1.00
O1750  O     0.79834   0.39089   0.95765   0.00000  Uiso   1.00
O1751  O     0.72393   0.37240   0.96502   0.00000  Uiso   1.00
O1752  O     0.74959   0.39591   0.89282   0.00000  Uiso   1.00
O1753  O     0.70065   0.38963   0.70768   0.00000  Uiso   1.00
O1754  O     0.77497   0.37211   0.69871   0.00000  Uiso   1.00
O1755  O     0.75061   0.39637   0.77157   0.00000  Uiso   1.00
O1756  O     0.70189   0.11090   0.96014   0.00000  Uiso   1.00
O1757  O     0.77667   0.12667   0.96779   0.00000  Uiso   1.00
O1758  O     0.54580   0.20419   0.79513   0.00000  Uiso   1.00
O1759  O     0.75033   0.10384   0.89513   0.00000  Uiso   1.00
O1760  O     0.91128   0.20487   0.73063   0.00000  Uiso   1.00
O1761  O     0.88849   0.13199   0.70505   0.00000  Uiso   1.00
O1762  O     0.83303   0.18503   0.74075   0.00000  Uiso   1.00
O1763  O     0.59820   0.29456   0.93505   0.00000  Uiso   1.00
O1764  O     0.67019   0.31061   0.90998   0.00000  Uiso   1.00
O1765  O     0.63537   0.36485   0.96467   0.00000  Uiso   1.00
O1766  O     0.63455   0.26203   0.78892   0.00000  Uiso   1.00
O1767  O     0.60217   0.29819   0.72515   0.00000  Uiso   1.00
O1768  O     0.68221   0.31024   0.73933   0.00000  Uiso   1.00
O1769  O     0.95419   0.20419   0.79513   0.00000  Uiso   1.00
O1770  O     0.90051   0.21085   0.93230   0.00000  Uiso   1.00
O1771  O     0.82872   0.19713   0.90374   0.00000  Uiso   1.00
O1772  O     0.85899   0.14398   0.96065   0.00000  Uiso   1.00
O1773  O     0.63480   0.23823   0.87831   0.00000  Uiso   1.00
O1774  O     0.60203   0.20185   0.94191   0.00000  Uiso   1.00
O1775  O     0.68221   0.18940   0.92743   0.00000  Uiso   1.00
O1776  O     0.86380   0.26116   0.78811   0.00000  Uiso   1.00
O1777  O     0.81602   0.31216   0.75084   0.00000  Uiso   1.00
O1778  O     0.88888   0.29579   0.71500   0.00000  Uiso   1.00
O1779  O     0.86741   0.26681   0.87850   0.00000  Uiso   1.00
O1780  O     0.54580   0.29581   0.87154   0.00000  Uiso   1.00
O1781  O     0.89725   0.30356   0.94413   0.00000  Uiso   1.00
O1782  O     0.81774   0.31525   0.92534   0.00000  Uiso   1.00
O1783  O     0.60019   0.20595   0.73204   0.00000  Uiso   1.00
O1784  O     0.67164   0.18991   0.75918   0.00000  Uiso   1.00
O1785  O     0.63868   0.13592   0.70316   0.00000  Uiso   1.00
O1786  O     0.64759   0.45497   0.73172   0.00000  Uiso   1.00
O1787  O     0.60813   0.38843   0.71032   0.00000  Uiso   1.00
O1788  O     0.57247   0.44246   0.76483   0.00000  Uiso   1.00
O1789  O     0.85128   0.05399   0.94500   0.00000  Uiso   1.00
O1790  O     0.88275   0.01628   0.88074   0.00000  Uiso   1.00
O1791  O     0.54580   0.29581   0.79513   0.00000  Uiso   1.00
O1792  O     0.93115   0.06547   0.92811   0.00000  Uiso   1.00
O1793  O     0.88544   0.00988   0.78916   0.00000  Uiso   1.00
O1794  O     0.86211   0.04578   0.72132   0.00000  Uiso   1.00
O1795  O     0.93867   0.05995   0.74871   0.00000  Uiso   1.00
O1796  O     0.64932   0.45168   0.94200   0.00000  Uiso   1.00
O1797  O     0.61569   0.48762   0.87861   0.00000  Uiso   1.00
O1798  O     0.56894   0.43922   0.92862   0.00000  Uiso   1.00
O1799  O     0.84847   0.46004   0.93370   0.00000  Uiso   1.00
O1800  O     0.88676   0.39422   0.95721   0.00000  Uiso   1.00
O1801  O     0.92612   0.44803   0.90677   0.00000  Uiso   1.00
O1802  O     0.95419   0.20419   0.87154   0.00000  Uiso   1.00
O1803  O     0.64906   0.04841   0.72482   0.00000  Uiso   1.00
O1804  O     0.61586   0.01274   0.78850   0.00000  Uiso   1.00
O1805  O     0.56872   0.06099   0.73862   0.00000  Uiso   1.00
O1806  O     0.64921   0.04505   0.93506   0.00000  Uiso   1.00
O1807  O     0.61099   0.11210   0.95766   0.00000  Uiso   1.00
O1808  O     0.57334   0.05845   0.90435   0.00000  Uiso   1.00
O1809  O     0.86264   0.38382   0.70396   0.00000  Uiso   1.00
O1810  O     0.83850   0.45603   0.73020   0.00000  Uiso   1.00
O1811  O     0.91715   0.43756   0.73906   0.00000  Uiso   1.00
O1812  O     0.79580   0.45419   0.87154   0.00000  Uiso   1.00
S1813  S     0.99295   0.34482   0.72031   0.00000  Uiso   1.00
S1814  S     0.62803   0.33080   0.92144   0.00000  Uiso   1.00
S1815  S     0.63411   0.30331   0.76139   0.00000  Uiso   1.00
S1816  S     0.86964   0.17583   0.91745   0.00000  Uiso   1.00
S1817  S     0.63406   0.19688   0.90571   0.00000  Uiso   1.00
S1818  S     0.86149   0.30333   0.76180   0.00000  Uiso   1.00
S1819  S     0.86698   0.30832   0.90641   0.00000  Uiso   1.00
S1820  S     0.62992   0.16975   0.74630   0.00000  Uiso   1.00
S1821  S     0.61822   0.41938   0.74783   0.00000  Uiso   1.00
S1822  S     0.88239   0.05829   0.90797   0.00000  Uiso   1.00
S1823  S     0.88795   0.05170   0.76235   0.00000  Uiso   1.00
S1824  S     0.99502   0.15563   0.94668   0.00000  Uiso   1.00
S1825  S     0.61684   0.44647   0.90628   0.00000  Uiso   1.00
S1826  S     0.87937   0.42473   0.91927   0.00000  Uiso   1.00
S1827  S     0.61675   0.05379   0.76070   0.00000  Uiso   1.00
S1828  S     0.61970   0.08104   0.91983   0.00000  Uiso   1.00
S1829  S     0.86749   0.41779   0.74014   0.00000  Uiso   1.00
S1830  S     0.50545   0.15532   0.71766   0.00000  Uiso   1.00
S1831  S     0.50309   0.34471   0.94904   0.00000  Uiso   1.00
S1832  S     0.75648   0.09466   0.72014   0.00000  Uiso   1.00
S1833  S     0.75447   0.40554   0.94679   0.00000  Uiso   1.00
S1834  S     0.74443   0.40523   0.71786   0.00000  Uiso   1.00
S1835  S     0.74526   0.09457   0.94890   0.00000  Uiso   1.00
S1836  S     0.88312   0.16616   0.74095   0.00000  Uiso   1.00
Zn1837 Zn    0.50000   0.25000   0.88437   0.00000  Uiso   1.00
Zn1838 Zn    0.50000   0.25000   0.78229   0.00000  Uiso   1.00
Zn1839 Zn    0.75000   0.00000   0.88437   0.00000  Uiso   1.00
Zn1840 Zn    0.75000   0.00000   0.78229   0.00000  Uiso   1.00
C1841  C     0.06233   0.69267   0.83272   0.00000  Uiso   1.00
C1842  C     0.00076   0.70980   0.97532   0.00000  Uiso   1.00
C1843  C     0.00077   0.70978   0.69034   0.00000  Uiso   1.00
C1844  C     0.49963   0.79026   0.97631   0.00000  Uiso   1.00
C1845  C     0.25020   0.54032   0.69135   0.00000  Uiso   1.00
C1846  C     0.24936   0.95979   0.97536   0.00000  Uiso   1.00
C1847  C     0.24933   0.95973   0.69040   0.00000  Uiso   1.00
C1848  C     0.25001   0.54024   0.97627   0.00000  Uiso   1.00
C1849  C     0.39066   0.63847   0.79217   0.00000  Uiso   1.00
C1850  C     0.11013   0.86105   0.87501   0.00000  Uiso   1.00
C1851  C     0.12012   0.84766   0.79695   0.00000  Uiso   1.00
C1852  C     0.43826   0.80771   0.83321   0.00000  Uiso   1.00
C1853  C     0.38771   0.64195   0.87311   0.00000  Uiso   1.00
C1854  C     0.12023   0.65258   0.87001   0.00000  Uiso   1.00
C1855  C     0.38165   0.84884   0.79360   0.00000  Uiso   1.00
C1856  C     0.38326   0.85154   0.87147   0.00000  Uiso   1.00
C1857  C     0.11059   0.63934   0.79186   0.00000  Uiso   1.00
C1858  C     0.13956   0.88891   0.79239   0.00000  Uiso   1.00
C1859  C     0.36687   0.60122   0.87210   0.00000  Uiso   1.00
C1860  C     0.36921   0.59768   0.79432   0.00000  Uiso   1.00
C1861  C     0.13040   0.90198   0.87065   0.00000  Uiso   1.00
C1862  C     0.36281   0.89247   0.87292   0.00000  Uiso   1.00
C1863  C     0.43754   0.69263   0.83314   0.00000  Uiso   1.00
C1864  C     0.13048   0.59820   0.79627   0.00000  Uiso   1.00
C1865  C     0.13982   0.61129   0.87453   0.00000  Uiso   1.00
C1866  C     0.36073   0.89007   0.79171   0.00000  Uiso   1.00
C1867  C     0.09916   0.83755   0.83602   0.00000  Uiso   1.00
C1868  C     0.40226   0.66029   0.83255   0.00000  Uiso   1.00
C1869  C     0.40195   0.83798   0.83257   0.00000  Uiso   1.00
C1870  C     0.09946   0.66278   0.83082   0.00000  Uiso   1.00
C1871  C     0.34845   0.58739   0.83308   0.00000  Uiso   1.00
C1872  C     0.15090   0.91225   0.83125   0.00000  Uiso   1.00
C1873  C     0.15095   0.58781   0.83563   0.00000  Uiso   1.00
C1874  C     0.06224   0.80744   0.83398   0.00000  Uiso   1.00
C1875  C     0.34869   0.91144   0.83239   0.00000  Uiso   1.00
C1876  C     0.31273   0.94302   0.83312   0.00000  Uiso   1.00
C1877  C     0.18779   0.55752   0.83392   0.00000  Uiso   1.00
C1878  C     0.18778   0.94249   0.83278   0.00000  Uiso   1.00
C1879  C     0.31185   0.55755   0.83331   0.00000  Uiso   1.00
C1880  C     0.49955   0.79038   0.69139   0.00000  Uiso   1.00
H1881  H     0.48877   0.88439   0.78008   0.00000  Uiso   1.00
H1882  H     0.14835   0.84526   0.98703   0.00000  Uiso   1.00
H1883  H     0.20207   0.79614   0.76022   0.00000  Uiso   1.00
H1884  H     0.34437   0.66480   0.98111   0.00000  Uiso   1.00
H1885  H     0.18668   0.71577   0.94690   0.00000  Uiso   1.00
H1886  H     0.36963   0.77913   0.69508   0.00000  Uiso   1.00
H1887  H     0.31274   0.78925   0.94462   0.00000  Uiso   1.00
H1888  H     0.15117   0.65591   0.68089   0.00000  Uiso   1.00
H1889  H     0.05989   0.95577   0.73815   0.00000  Uiso   1.00
H1890  H     0.43370   0.54352   0.95216   0.00000  Uiso   1.00
H1891  H     0.44646   0.53369   0.73024   0.00000  Uiso   1.00
H1892  H     0.49127   0.61462   0.88775   0.00000  Uiso   1.00
H1893  H     0.06722   0.96162   0.95281   0.00000  Uiso   1.00
H1894  H     0.43767   0.95890   0.93519   0.00000  Uiso   1.00
H1895  H     0.06677   0.53818   0.71482   0.00000  Uiso   1.00
H1896  H     0.06191   0.54450   0.93123   0.00000  Uiso   1.00
H1897  H     0.42117   0.94868   0.70876   0.00000  Uiso   1.00
H1898  H     0.00868   0.61478   0.77604   0.00000  Uiso   1.00
H1899  H     0.00465   0.88634   0.89138   0.00000  Uiso   1.00
H1900  H     0.26073   0.63458   0.77967   0.00000  Uiso   1.00
H1901  H     0.25640   0.86380   0.88821   0.00000  Uiso   1.00
H1902  H     0.24277   0.86471   0.77635   0.00000  Uiso   1.00
H1903  H     0.24389   0.63602   0.89106   0.00000  Uiso   1.00
H1904  H     0.33100   0.70495   0.71499   0.00000  Uiso   1.00
N1905  N     0.00000   0.75000   0.95240   0.00000  Uiso   1.00
N1906  N    -0.00000   0.75000   0.71427   0.00000  Uiso   1.00
N1907  N     0.25000   0.50000   0.95240   0.00000  Uiso   1.00
N1908  N     0.25000   0.50000   0.71427   0.00000  Uiso   1.00
O1909  O     0.04580   0.70419   0.87154   0.00000  Uiso   1.00
O1910  O     0.20419   0.54581   0.79513   0.00000  Uiso   1.00
O1911  O     0.20419   0.54581   0.87154   0.00000  Uiso   1.00
O1912  O     0.29580   0.95419   0.79513   0.00000  Uiso   1.00
O1913  O     0.20419   0.95419   0.79513   0.00000  Uiso   1.00
O1914  O     0.29580   0.54581   0.87154   0.00000  Uiso   1.00
O1915  O     0.29580   0.54581   0.79513   0.00000  Uiso   1.00
O1916  O     0.20419   0.95419   0.87154   0.00000  Uiso   1.00
O1917  O     0.02083   0.88005   0.70131   0.00000  Uiso   1.00
O1918  O     0.44802   0.85782   0.71209   0.00000  Uiso   1.00
O1919  O     0.00060   0.85420   0.77394   0.00000  Uiso   1.00
O1920  O     0.45419   0.79581   0.79513   0.00000  Uiso   1.00
O1921  O     0.02459   0.62150   0.96511   0.00000  Uiso   1.00
O1922  O     0.45070   0.64226   0.95702   0.00000  Uiso   1.00
O1923  O     0.00060   0.64591   0.89280   0.00000  Uiso   1.00
O1924  O     0.47433   0.62296   0.69856   0.00000  Uiso   1.00
O1925  O     0.04894   0.63909   0.70675   0.00000  Uiso   1.00
O1926  O     0.49983   0.64622   0.77139   0.00000  Uiso   1.00
O1927  O     0.47015   0.87561   0.96758   0.00000  Uiso   1.00
O1928  O     0.04584   0.86225   0.96092   0.00000  Uiso   1.00
O1929  O     0.49912   0.85395   0.89517   0.00000  Uiso   1.00
O1930  O     0.30121   0.60787   0.71119   0.00000  Uiso   1.00
O1931  O     0.45419   0.79581   0.87154   0.00000  Uiso   1.00
O1932  O     0.22777   0.62938   0.70132   0.00000  Uiso   1.00
O1933  O     0.24941   0.60416   0.77385   0.00000  Uiso   1.00
O1934  O     0.29834   0.89089   0.95765   0.00000  Uiso   1.00
O1935  O     0.22393   0.87240   0.96502   0.00000  Uiso   1.00
O1936  O     0.24959   0.89591   0.89282   0.00000  Uiso   1.00
O1937  O     0.20065   0.88963   0.70768   0.00000  Uiso   1.00
O1938  O     0.27497   0.87211   0.69871   0.00000  Uiso   1.00
O1939  O     0.25061   0.89637   0.77157   0.00000  Uiso   1.00
O1940  O     0.20189   0.61090   0.96014   0.00000  Uiso   1.00
O1941  O     0.27667   0.62667   0.96779   0.00000  Uiso   1.00
O1942  O     0.04580   0.70419   0.79513   0.00000  Uiso   1.00
O1943  O     0.25033   0.60384   0.89513   0.00000  Uiso   1.00
O1944  O     0.41128   0.70487   0.73063   0.00000  Uiso   1.00
O1945  O     0.38849   0.63199   0.70505   0.00000  Uiso   1.00
O1946  O     0.33303   0.68503   0.74075   0.00000  Uiso   1.00
O1947  O     0.09820   0.79456   0.93505   0.00000  Uiso   1.00
O1948  O     0.17019   0.81061   0.90998   0.00000  Uiso   1.00
O1949  O     0.13537   0.86485   0.96467   0.00000  Uiso   1.00
O1950  O     0.13455   0.76203   0.78892   0.00000  Uiso   1.00
O1951  O     0.10217   0.79819   0.72515   0.00000  Uiso   1.00
O1952  O     0.18221   0.81024   0.73933   0.00000  Uiso   1.00
O1953  O     0.45419   0.70419   0.79513   0.00000  Uiso   1.00
O1954  O     0.40051   0.71085   0.93230   0.00000  Uiso   1.00
O1955  O     0.32872   0.69713   0.90374   0.00000  Uiso   1.00
O1956  O     0.35899   0.64398   0.96065   0.00000  Uiso   1.00
O1957  O     0.13480   0.73823   0.87831   0.00000  Uiso   1.00
O1958  O     0.10203   0.70185   0.94191   0.00000  Uiso   1.00
O1959  O     0.18221   0.68940   0.92743   0.00000  Uiso   1.00
O1960  O     0.36380   0.76116   0.78811   0.00000  Uiso   1.00
O1961  O     0.31602   0.81216   0.75084   0.00000  Uiso   1.00
O1962  O     0.38888   0.79579   0.71500   0.00000  Uiso   1.00
O1963  O     0.36741   0.76681   0.87850   0.00000  Uiso   1.00
O1964  O     0.04580   0.79581   0.87154   0.00000  Uiso   1.00
O1965  O     0.39725   0.80356   0.94413   0.00000  Uiso   1.00
O1966  O     0.31774   0.81525   0.92534   0.00000  Uiso   1.00
O1967  O     0.10019   0.70595   0.73204   0.00000  Uiso   1.00
O1968  O     0.17164   0.68991   0.75918   0.00000  Uiso   1.00
O1969  O     0.13868   0.63592   0.70316   0.00000  Uiso   1.00
O1970  O     0.14759   0.95497   0.73172   0.00000  Uiso   1.00
O1971  O     0.10813   0.88843   0.71032   0.00000  Uiso   1.00
O1972  O     0.07247   0.94246   0.76483   0.00000  Uiso   1.00
O1973  O     0.35128   0.55399   0.94500   0.00000  Uiso   1.00
O1974  O     0.38275   0.51628   0.88074   0.00000  Uiso   1.00
O1975  O     0.04580   0.79581   0.79513   0.00000  Uiso   1.00
O1976  O     0.43115   0.56547   0.92811   0.00000  Uiso   1.00
O1977  O     0.38544   0.50988   0.78916   0.00000  Uiso   1.00
O1978  O     0.36211   0.54578   0.72132   0.00000  Uiso   1.00
O1979  O     0.43867   0.55995   0.74871   0.00000  Uiso   1.00
O1980  O     0.14932   0.95168   0.94200   0.00000  Uiso   1.00
O1981  O     0.11569   0.98762   0.87861   0.00000  Uiso   1.00
O1982  O     0.06894   0.93922   0.92862   0.00000  Uiso   1.00
O1983  O     0.34847   0.96004   0.93370   0.00000  Uiso   1.00
O1984  O     0.38676   0.89422   0.95721   0.00000  Uiso   1.00
O1985  O     0.42612   0.94803   0.90677   0.00000  Uiso   1.00
O1986  O     0.45419   0.70419   0.87154   0.00000  Uiso   1.00
O1987  O     0.14906   0.54841   0.72482   0.00000  Uiso   1.00
O1988  O     0.11586   0.51274   0.78850   0.00000  Uiso   1.00
O1989  O     0.06872   0.56099   0.73862   0.00000  Uiso   1.00
O1990  O     0.14921   0.54505   0.93506   0.00000  Uiso   1.00
O1991  O     0.11099   0.61210   0.95766   0.00000  Uiso   1.00
O1992  O     0.07334   0.55845   0.90435   0.00000  Uiso   1.00
O1993  O     0.36264   0.88382   0.70396   0.00000  Uiso   1.00
O1994  O     0.33850   0.95603   0.73020   0.00000  Uiso   1.00
O1995  O     0.41715   0.93756   0.73906   0.00000  Uiso   1.00
O1996  O     0.29580   0.95419   0.87154   0.00000  Uiso   1.00
S1997  S     0.49295   0.84482   0.72031   0.00000  Uiso   1.00
S1998  S     0.12803   0.83080   0.92144   0.00000  Uiso   1.00
S1999  S     0.13411   0.80331   0.76139   0.00000  Uiso   1.00
S2000  S     0.36964   0.67583   0.91745   0.00000  Uiso   1.00
S2001  S     0.13406   0.69688   0.90571   0.00000  Uiso   1.00
S2002  S     0.36149   0.80333   0.76180   0.00000  Uiso   1.00
S2003  S     0.36698   0.80832   0.90641   0.00000  Uiso   1.00
S2004  S     0.12992   0.66975   0.74630   0.00000  Uiso   1.00
S2005  S     0.11822   0.91938   0.74783   0.00000  Uiso   1.00
S2006  S     0.38239   0.55829   0.90797   0.00000  Uiso   1.00
S2007  S     0.38795   0.55170   0.76235   0.00000  Uiso   1.00
S2008  S     0.49502   0.65563   0.94668   0.00000  Uiso   1.00
S2009  S     0.11684   0.94647   0.90628   0.00000  Uiso   1.00
S2010  S     0.37937   0.92473   0.91927   0.00000  Uiso   1.00
S2011  S     0.11675   0.55379   0.76070   0.00000  Uiso   1.00
S2012  S     0.11970   0.58104   0.91983   0.00000  Uiso   1.00
S2013  S     0.36749   0.91779   0.74014   0.00000  Uiso   1.00
S2014  S     0.00545   0.65532   0.71766   0.00000  Uiso   1.00
S2015  S     0.00309   0.84471   0.94904   0.00000  Uiso   1.00
S2016  S     0.25648   0.59466   0.72014   0.00000  Uiso   1.00
S2017  S     0.25447   0.90554   0.94679   0.00000  Uiso   1.00
S2018  S     0.24443   0.90523   0.71786   0.00000  Uiso   1.00
S2019  S     0.24526   0.59457   0.94890   0.00000  Uiso   1.00
S2020  S     0.38312   0.66616   0.74095   0.00000  Uiso   1.00
Zn2021 Zn   -0.00000   0.75000   0.88437   0.00000  Uiso   1.00
Zn2022 Zn    0.00000   0.75000   0.78229   0.00000  Uiso   1.00
Zn2023 Zn    0.25000   0.50000   0.88437   0.00000  Uiso   1.00
Zn2024 Zn    0.25000   0.50000   0.78229   0.00000  Uiso   1.00
C2025  C     0.56233   0.69267   0.83272   0.00000  Uiso   1.00
C2026  C     0.50076   0.70980   0.97532   0.00000  Uiso   1.00
C2027  C     0.50077   0.70978   0.69034   0.00000  Uiso   1.00
C2028  C     0.99963   0.79026   0.97631   0.00000  Uiso   1.00
C2029  C     0.75020   0.54032   0.69135   0.00000  Uiso   1.00
C2030  C     0.74936   0.95979   0.97536   0.00000  Uiso   1.00
C2031  C     0.74933   0.95973   0.69040   0.00000  Uiso   1.00
C2032  C     0.75001   0.54024   0.97627   0.00000  Uiso   1.00
C2033  C     0.89066   0.63847   0.79217   0.00000  Uiso   1.00
C2034  C     0.61013   0.86105   0.87501   0.00000  Uiso   1.00
C2035  C     0.62012   0.84766   0.79695   0.00000  Uiso   1.00
C2036  C     0.93826   0.80771   0.83321   0.00000  Uiso   1.00
C2037  C     0.88771   0.64195   0.87311   0.00000  Uiso   1.00
C2038  C     0.62023   0.65258   0.87001   0.00000  Uiso   1.00
C2039  C     0.88165   0.84884   0.79360   0.00000  Uiso   1.00
C2040  C     0.88326   0.85154   0.87147   0.00000  Uiso   1.00
C2041  C     0.61059   0.63934   0.79186   0.00000  Uiso   1.00
C2042  C     0.63956   0.88891   0.79239   0.00000  Uiso   1.00
C2043  C     0.86687   0.60122   0.87210   0.00000  Uiso   1.00
C2044  C     0.86921   0.59768   0.79432   0.00000  Uiso   1.00
C2045  C     0.63040   0.90198   0.87065   0.00000  Uiso   1.00
C2046  C     0.86281   0.89247   0.87292   0.00000  Uiso   1.00
C2047  C     0.93754   0.69263   0.83314   0.00000  Uiso   1.00
C2048  C     0.63048   0.59820   0.79627   0.00000  Uiso   1.00
C2049  C     0.63982   0.61129   0.87453   0.00000  Uiso   1.00
C2050  C     0.86073   0.89007   0.79171   0.00000  Uiso   1.00
C2051  C     0.59916   0.83755   0.83602   0.00000  Uiso   1.00
C2052  C     0.90226   0.66029   0.83255   0.00000  Uiso   1.00
C2053  C     0.90195   0.83798   0.83257   0.00000  Uiso   1.00
C2054  C     0.59946   0.66278   0.83082   0.00000  Uiso   1.00
C2055  C     0.84845   0.58739   0.83308   0.00000  Uiso   1.00
C2056  C     0.65090   0.91225   0.83125   0.00000  Uiso   1.00
C2057  C     0.65095   0.58781   0.83563   0.00000  Uiso   1.00
C2058  C     0.56224   0.80744   0.83398   0.00000  Uiso   1.00
C2059  C     0.84869   0.91144   0.83239   0.00000  Uiso   1.00
C2060  C     0.81273   0.94302   0.83312   0.00000  Uiso   1.00
C2061  C     0.68779   0.55752   0.83392   0.00000  Uiso   1.00
C2062  C     0.68778   0.94249   0.83278   0.00000  Uiso   1.00
C2063  C     0.81185   0.55755   0.83331   0.00000  Uiso   1.00
C2064  C     0.99955   0.79038   0.69139   0.00000  Uiso   1.00
H2065  H     0.98877   0.88439   0.78008   0.00000  Uiso   1.00
H2066  H     0.64835   0.84526   0.98703   0.00000  Uiso   1.00
H2067  H     0.70207   0.79614   0.76022   0.00000  Uiso   1.00
H2068  H     0.84437   0.66480   0.98111   0.00000  Uiso   1.00
H2069  H     0.68668   0.71577   0.94690   0.00000  Uiso   1.00
H2070  H     0.86963   0.77913   0.69508   0.00000  Uiso   1.00
H2071  H     0.81274   0.78925   0.94462   0.00000  Uiso   1.00
H2072  H     0.65117   0.65591   0.68089   0.00000  Uiso   1.00
H2073  H     0.55989   0.95577   0.73815   0.00000  Uiso   1.00
H2074  H     0.93370   0.54352   0.95216   0.00000  Uiso   1.00
H2075  H     0.94646   0.53369   0.73024   0.00000  Uiso   1.00
H2076  H     0.99127   0.61462   0.88775   0.00000  Uiso   1.00
H2077  H     0.56722   0.96162   0.95281   0.00000  Uiso   1.00
H2078  H     0.93767   0.95890   0.93519   0.00000  Uiso   1.00
H2079  H     0.56677   0.53818   0.71482   0.00000  Uiso   1.00
H2080  H     0.56191   0.54450   0.93123   0.00000  Uiso   1.00
H2081  H     0.92117   0.94868   0.70876   0.00000  Uiso   1.00
H2082  H     0.50868   0.61478   0.77604   0.00000  Uiso   1.00
H2083  H     0.50465   0.88634   0.89138   0.00000  Uiso   1.00
H2084  H     0.76073   0.63458   0.77967   0.00000  Uiso   1.00
H2085  H     0.75640   0.86380   0.88821   0.00000  Uiso   1.00
H2086  H     0.74277   0.86471   0.77635   0.00000  Uiso   1.00
H2087  H     0.74389   0.63602   0.89106   0.00000  Uiso   1.00
H2088  H     0.83100   0.70495   0.71499   0.00000  Uiso   1.00
N2089  N     0.50000   0.75000   0.95240   0.00000  Uiso   1.00
N2090  N     0.50000   0.75000   0.71427   0.00000  Uiso   1.00
N2091  N     0.75000   0.50000   0.95240   0.00000  Uiso   1.00
N2092  N     0.75000   0.50000   0.71427   0.00000  Uiso   1.00
O2093  O     0.54580   0.70419   0.87154   0.00000  Uiso   1.00
O2094  O     0.70419   0.54581   0.79513   0.00000  Uiso   1.00
O2095  O     0.70419   0.54581   0.87154   0.00000  Uiso   1.00
O2096  O     0.79580   0.95419   0.79513   0.00000  Uiso   1.00
O2097  O     0.70419   0.95419   0.79513   0.00000  Uiso   1.00
O2098  O     0.79580   0.54581   0.87154   0.00000  Uiso   1.00
O2099  O     0.79580   0.54581   0.79513   0.00000  Uiso   1.00
O2100  O     0.70419   0.95419   0.87154   0.00000  Uiso   1.00
O2101  O     0.52083   0.88005   0.70131   0.00000  Uiso   1.00
O2102  O     0.94802   0.85782   0.71209   0.00000  Uiso   1.00
O2103  O     0.50060   0.85420   0.77394   0.00000  Uiso   1.00
O2104  O     0.95419   0.79581   0.79513   0.00000  Uiso   1.00
O2105  O     0.52459   0.62150   0.96511   0.00000  Uiso   1.00
O2106  O     0.95070   0.64226   0.95702   0.00000  Uiso   1.00
O2107  O     0.50060   0.64591   0.89280   0.00000  Uiso   1.00
O2108  O     0.97433   0.62296   0.69856   0.00000  Uiso   1.00
O2109  O     0.54894   0.63909   0.70675   0.00000  Uiso   1.00
O2110  O     0.99983   0.64622   0.77139   0.00000  Uiso   1.00
O2111  O     0.97015   0.87561   0.96758   0.00000  Uiso   1.00
O2112  O     0.54584   0.86225   0.96092   0.00000  Uiso   1.00
O2113  O     0.99912   0.85395   0.89517   0.00000  Uiso   1.00
O2114  O     0.80121   0.60787   0.71119   0.00000  Uiso   1.00
O2115  O     0.95419   0.79581   0.87154   0.00000  Uiso   1.00
O2116  O     0.72777   0.62938   0.70132   0.00000  Uiso   1.00
O2117  O     0.74941   0.60416   0.77385   0.00000  Uiso   1.00
O2118  O     0.79834   0.89089   0.95765   0.00000  Uiso   1.00
O2119  O     0.72393   0.87240   0.96502   0.00000  Uiso   1.00
O2120  O     0.74959   0.89591   0.89282   0.00000  Uiso   1.00
O2121  O     0.70065   0.88963   0.70768   0.00000  Uiso   1.00
O2122  O     0.77497   0.87211   0.69871   0.00000  Uiso   1.00
O2123  O     0.75061   0.89637   0.77157   0.00000  Uiso   1.00
O2124  O     0.70189   0.61090   0.96014   0.00000  Uiso   1.00
O2125  O     0.77667   0.62667   0.96779   0.00000  Uiso   1.00
O2126  O     0.54580   0.70419   0.79513   0.00000  Uiso   1.00
O2127  O     0.75033   0.60384   0.89513   0.00000  Uiso   1.00
O2128  O     0.91128   0.70487   0.73063   0.00000  Uiso   1.00
O2129  O     0.88849   0.63199   0.70505   0.00000  Uiso   1.00
O2130  O     0.83303   0.68503   0.74075   0.00000  Uiso   1.00
O2131  O     0.59820   0.79456   0.93505   0.00000  Uiso   1.00
O2132  O     0.67019   0.81061   0.90998   0.00000  Uiso   1.00
O2133  O     0.63537   0.86485   0.96467   0.00000  Uiso   1.00
O2134  O     0.63455   0.76203   0.78892   0.00000  Uiso   1.00
O2135  O     0.60217   0.79819   0.72515   0.00000  Uiso   1.00
O2136  O     0.68221   0.81024   0.73933   0.00000  Uiso   1.00
O2137  O     0.95419   0.70419   0.79513   0.00000  Uiso   1.00
O2138  O     0.90051   0.71085   0.93230   0.00000  Uiso   1.00
O2139  O     0.82872   0.69713   0.90374   0.00000  Uiso   1.00
O2140  O     0.85899   0.64398   0.96065   0.00000  Uiso   1.00
O2141  O     0.63480   0.73823   0.87831   0.00000  Uiso   1.00
O2142  O     0.60203   0.70185   0.94191   0.00000  Uiso   1.00
O2143  O     0.68221   0.68940   0.92743   0.00000  Uiso   1.00
O2144  O     0.86380   0.76116   0.78811   0.00000  Uiso   1.00
O2145  O     0.81602   0.81216   0.75084   0.00000  Uiso   1.00
O2146  O     0.88888   0.79579   0.71500   0.00000  Uiso   1.00
O2147  O     0.86741   0.76681   0.87850   0.00000  Uiso   1.00
O2148  O     0.54580   0.79581   0.87154   0.00000  Uiso   1.00
O2149  O     0.89725   0.80356   0.94413   0.00000  Uiso   1.00
O2150  O     0.81774   0.81525   0.92534   0.00000  Uiso   1.00
O2151  O     0.60019   0.70595   0.73204   0.00000  Uiso   1.00
O2152  O     0.67164   0.68991   0.75918   0.00000  Uiso   1.00
O2153  O     0.63868   0.63592   0.70316   0.00000  Uiso   1.00
O2154  O     0.64759   0.95497   0.73172   0.00000  Uiso   1.00
O2155  O     0.60813   0.88843   0.71032   0.00000  Uiso   1.00
O2156  O     0.57247   0.94246   0.76483   0.00000  Uiso   1.00
O2157  O     0.85128   0.55399   0.94500   0.00000  Uiso   1.00
O2158  O     0.88275   0.51628   0.88074   0.00000  Uiso   1.00
O2159  O     0.54580   0.79581   0.79513   0.00000  Uiso   1.00
O2160  O     0.93115   0.56547   0.92811   0.00000  Uiso   1.00
O2161  O     0.88544   0.50988   0.78916   0.00000  Uiso   1.00
O2162  O     0.86211   0.54578   0.72132   0.00000  Uiso   1.00
O2163  O     0.93867   0.55995   0.74871   0.00000  Uiso   1.00
O2164  O     0.64932   0.95168   0.94200   0.00000  Uiso   1.00
O2165  O     0.61569   0.98762   0.87861   0.00000  Uiso   1.00
O2166  O     0.56894   0.93922   0.92862   0.00000  Uiso   1.00
O2167  O     0.84847   0.96004   0.93370   0.00000  Uiso   1.00
O2168  O     0.88676   0.89422   0.95721   0.00000  Uiso   1.00
O2169  O     0.92612   0.94803   0.90677   0.00000  Uiso   1.00
O2170  O     0.95419   0.70419   0.87154   0.00000  Uiso   1.00
O2171  O     0.64906   0.54841   0.72482   0.00000  Uiso   1.00
O2172  O     0.61586   0.51274   0.78850   0.00000  Uiso   1.00
O2173  O     0.56872   0.56099   0.73862   0.00000  Uiso   1.00
O2174  O     0.64921   0.54505   0.93506   0.00000  Uiso   1.00
O2175  O     0.61099   0.61210   0.95766   0.00000  Uiso   1.00
O2176  O     0.57334   0.55845   0.90435   0.00000  Uiso   1.00
O2177  O     0.86264   0.88382   0.70396   0.00000  Uiso   1.00
O2178  O     0.83850   0.95603   0.73020   0.00000  Uiso   1.00
O2179  O     0.91715   0.93756   0.73906   0.00000  Uiso   1.00
O2180  O     0.79580   0.95419   0.87154   0.00000  Uiso   1.00
S2181  S     0.99295   0.84482   0.72031   0.00000  Uiso   1.00
S2182  S     0.62803   0.83080   0.92144   0.00000  Uiso   1.00
S2183  S     0.63411   0.80331   0.76139   0.00000  Uiso   1.00
S2184  S     0.86964   0.67583   0.91745   0.00000  Uiso   1.00
S2185  S     0.63406   0.69688   0.90571   0.00000  Uiso   1.00
S2186  S     0.86149   0.80333   0.76180   0.00000  Uiso   1.00
S2187  S     0.86698   0.80832   0.90641   0.00000  Uiso   1.00
S2188  S     0.62992   0.66975   0.74630   0.00000  Uiso   1.00
S2189  S     0.61822   0.91938   0.74783   0.00000  Uiso   1.00
S2190  S     0.88239   0.55829   0.90797   0.00000  Uiso   1.00
S2191  S     0.88795   0.55170   0.76235   0.00000  Uiso   1.00
S2192  S     0.99502   0.65563   0.94668   0.00000  Uiso   1.00
S2193  S     0.61684   0.94647   0.90628   0.00000  Uiso   1.00
S2194  S     0.87937   0.92473   0.91927   0.00000  Uiso   1.00
S2195  S     0.61675   0.55379   0.76070   0.00000  Uiso   1.00
S2196  S     0.61970   0.58104   0.91983   0.00000  Uiso   1.00
S2197  S     0.86749   0.91779   0.74014   0.00000  Uiso   1.00
S2198  S     0.50545   0.65532   0.71766   0.00000  Uiso   1.00
S2199  S     0.50309   0.84471   0.94904   0.00000  Uiso   1.00
S2200  S     0.75648   0.59466   0.72014   0.00000  Uiso   1.00
S2201  S     0.75447   0.90554   0.94679   0.00000  Uiso   1.00
S2202  S     0.74443   0.90523   0.71786   0.00000  Uiso   1.00
S2203  S     0.74526   0.59457   0.94890   0.00000  Uiso   1.00
S2204  S     0.88312   0.66616   0.74095   0.00000  Uiso   1.00
Zn2205 Zn    0.50000   0.75000   0.88437   0.00000  Uiso   1.00
Zn2206 Zn    0.50000   0.75000   0.78229   0.00000  Uiso   1.00
Zn2207 Zn    0.75000   0.50000   0.88437   0.00000  Uiso   1.00
Zn2208 Zn    0.75000   0.50000   0.78229   0.00000  Uiso   1.00
loop_
_geom_bond_atom_site_label_1
_geom_bond_atom_site_label_2
_geom_bond_distance
_geom_bond_site_symmetry_2
_ccdc_geom_bond_type
C1     C30     1.475   .     S
C1     O69     1.333   .     A
C1     O102    1.307   .     A
C2     N65     1.394   .     A
C2     C739    1.471   .     S
C2     S352    1.838   1_455 S
C3     S174    1.839   .     S
C3     C1474   1.471   1_554 S
C3     N66     1.397   .     S
C4     C776    1.473   .     S
C4     N249    1.398   .     S
C4     S359    1.836   .     S
C5     S176    1.846   .     S
C5     C1480   1.472   1_554 S
C5     N68     1.397   .     S
C6     N435    1.395   .     A
C6     S177    1.837   .     S
C6     C743    1.471   .     S
C7     N436    1.398   .     A
C7     S178    1.843   .     S
C7     C1478   1.471   1_554 S
C8     S179    1.837   .     S
C8     C741    1.472   .     S
C8     N67     1.397   .     S
C9     S180    1.787   .     S
C9     C20     1.398   .     A
C9     C28     1.432   .     A
C10    C27     1.415   .     A
C10    S158    1.776   .     S
C10    C21     1.389   .     A
C11    C18     1.386   .     A
C11    S159    1.757   .     S
C11    C27     1.397   .     A
C12    C29     1.461   .     S
C12    O91     1.322   .     A
C12    O80     1.309   .     A
C13    C28     1.432   .     A
C13    S160    1.771   .     S
C13    C19     1.385   .     A
C14    C30     1.397   .     A
C14    S161    1.758   .     S
C14    C25     1.387   .     A
C15    S162    1.779   .     S
C15    C29     1.389   .     A
C15    C26     1.398   .     A
C16    S163    1.758   .     S
C16    C29     1.379   .     A
C16    C22     1.382   .     A
C17    C30     1.414   .     A
C17    C24     1.387   .     A
C17    S164    1.774   .     S
C18    C32     1.413   .     A
C18    S165    1.773   .     S
C19    C31     1.382   .     A
C19    S166    1.761   .     S
C20    S167    1.775   .     S
C20    C31     1.388   .     A
C21    S169    1.758   .     S
C21    C32     1.400   .     A
C22    C35     1.433   .     A
C22    S170    1.778   .     S
C23    O146    1.324   .     A
C23    O113    1.320   .     A
C23    C28     1.478   .     S
C24    S171    1.758   .     S
C24    C33     1.399   .     A
C25    S172    1.774   .     S
C25    C33     1.413   .     A
C26    S173    1.794   .     S
C26    C35     1.437   .     A
C27    C34     1.477   .     S
C31    C39     1.463   .     S
C32    C38     1.478   .     S
C33    C37     1.475   .     S
C34    O124    1.306   .     A
C34    O135    1.334   .     A
C35    C36     1.477   .     S
C36    O156    1.325   .     A
C36    O72     1.320   .     A
C37    O70     1.332   .     A
C37    O71     1.307   .     A
C38    O76     1.332   .     A
C38    O73     1.309   .     A
C39    O74     1.320   .     A
C39    O75     1.312   .     A
C40    N250    1.398   .     A
C40    S157    1.851   .     S
C40    C1476   1.473   1_554 S
H41    O263    0.991   .     S
H42    O109    0.990   .     S
H43    O112    0.990   .     S
H44    O116    0.989   .     S
H45    O119    0.991   .     S
H46    O122    0.990   .     S
H47    O126    0.991   .     S
H48    O129    0.990   .     S
H49    O132    0.990   .     S
H50    O136    0.991   .     S
H51    O139    0.990   .     S
H52    O267    0.991   .     S
H53    O142    0.990   .     S
H54    O145    0.991   .     S
H55    O149    0.990   .     S
H56    O152    0.990   .     S
H57    O155    0.991   .     S
H58    O270    0.991   1_455 S
H59    O273    0.991   1_455 S
H60    O93     0.991   .     S
H61    O96     0.991   .     S
H62    O99     0.990   .     S
H63    O103    0.991   .     S
H64    O106    0.990   .     S
N65    C188    1.398   1_455 S
N65    Zn181   2.069   .     S
N66    C224    1.398   1_455 A
N66    Zn182   2.069   .     S
N67    Zn183   2.069   .     S
N67    C374    1.395   1_545 A
N68    C375    1.398   1_545 A
N68    Zn184   2.069   .     S
O69    Zn181   2.027   .     S
O70    Zn184   2.027   .     S
O71    Zn183   2.032   .     S
O72    Zn552   2.032   .     S
O73    Zn552   2.036   .     S
O74    Zn183   2.036   .     S
O75    Zn184   2.030   .     S
O76    Zn551   2.030   .     S
O77    S341    1.495   1_455 S
O78    S157    1.496   .     D
O79    H225    0.991   1_455 S
O79    S341    1.670   1_455 S
O80    Zn366   2.027   .     S
O81    S352    1.496   1_455 S
O82    S168    1.494   .     D
O83    H236    0.991   1_455 S
O83    S352    1.671   1_455 S
O84    S358    1.495   .     S
O85    S174    1.495   .     D
O86    H242    0.991   .     S
O86    S358    1.669   .     S
O87    S359    1.497   .     S
O88    S175    1.495   .     D
O89    H243    0.991   .     S
O89    S359    1.669   .     S
O90    S176    1.497   .     D
O91    Zn365   2.032   .     S
O92    S176    1.496   .     D
O93    S176    1.670   .     S
O94    S177    1.493   .     D
O95    S177    1.496   .     D
O96    S177    1.671   .     S
O97    S178    1.495   .     D
O98    S178    1.495   .     D
O99    S178    1.669   .     S
O100   S179    1.495   .     D
O101   S179    1.493   .     D
O102   Zn182   2.032   .     S
O103   S179    1.669   .     S
O104   S180    1.497   .     D
O105   S180    1.496   .     D
O106   S180    1.682   .     S
O107   S158    1.499   .     D
O108   S158    1.503   .     D
O109   S158    1.670   .     S
O110   S159    1.497   .     D
O111   S159    1.503   .     D
O112   S159    1.678   .     S
O113   Zn366   2.036   .     S
O114   S160    1.499   .     D
O115   S160    1.503   .     D
O116   S160    1.665   .     S
O117   S161    1.497   .     D
O118   S161    1.503   .     D
O119   S161    1.677   .     S
O120   S162    1.500   .     D
O121   S162    1.502   .     D
O122   S162    1.680   .     S
O123   S163    1.495   .     D
O124   Zn181   2.036   .     S
O125   S163    1.503   .     D
O126   S163    1.674   .     S
O127   S164    1.499   .     D
O128   S164    1.503   .     D
O129   S164    1.670   .     S
O130   S165    1.500   .     D
O131   S165    1.496   .     D
O132   S165    1.682   .     S
O133   S166    1.503   .     D
O134   S166    1.496   .     D
O135   Zn182   2.030   .     S
O136   S166    1.674   .     S
O137   S167    1.501   .     D
O138   S167    1.501   .     D
O139   S167    1.678   .     S
O140   S169    1.503   .     D
O141   S169    1.497   .     D
O142   S169    1.677   .     S
O143   S170    1.499   .     D
O144   S170    1.496   .     D
O145   S170    1.682   .     S
O146   Zn365   2.030   .     S
O147   S171    1.503   .     D
O148   S171    1.496   .     D
O149   S171    1.677   .     S
O150   S172    1.499   .     D
O151   S172    1.495   .     D
O152   S172    1.682   .     S
O153   S173    1.497   .     D
O154   S173    1.497   .     D
O155   S173    1.681   .     S
O156   Zn551   2.027   .     S
S157   O261    1.495   .     S
S157   O263    1.670   .     S
S168   O265    1.496   .     S
S168   C186    1.838   .     S
S168   O267    1.671   .     S
S174   O268    1.495   1_455 S
S174   O270    1.669   1_455 S
S175   C188    1.836   1_455 S
S175   O271    1.497   1_455 S
S175   O273    1.669   1_455 S
Zn181  O330    2.030   1_455 S
Zn181  O275    2.032   1_455 S
Zn182  O297    2.036   1_455 S
Zn182  O264    2.027   1_455 S
Zn183  O444    2.030   1_545 S
Zn183  O524    2.027   1_545 S
Zn184  O440    2.032   1_545 S
Zn184  O441    2.036   1_545 S
C185   C214    1.475   .     S
C185   O253    1.333   .     A
C185   O286    1.307   .     A
C186   N249    1.394   .     A
C186   C923    1.471   .     S
C187   S358    1.839   .     S
C187   C1658   1.471   1_554 S
C187   N250    1.397   .     S
C188   C960    1.473   .     S
C188   N65     1.398   1_655 S
C188   S175    1.836   1_655 S
C189   S360    1.846   .     S
C189   C1664   1.472   1_554 S
C189   N252    1.397   .     S
C190   N619    1.395   .     A
C190   S361    1.837   .     S
C190   C927    1.471   .     S
C191   N620    1.398   .     A
C191   S362    1.843   .     S
C191   C1662   1.471   1_554 S
C192   S363    1.837   .     S
C192   C925    1.472   .     S
C192   N251    1.397   .     S
C193   S364    1.787   .     S
C193   C204    1.398   .     A
C193   C212    1.432   .     A
C194   C211    1.415   .     A
C194   S342    1.776   .     S
C194   C205    1.389   .     A
C195   C202    1.386   .     A
C195   S343    1.757   .     S
C195   C211    1.397   .     A
C196   C213    1.461   .     S
C196   O275    1.322   .     A
C196   O264    1.309   .     A
C197   C212    1.432   .     A
C197   S344    1.771   .     S
C197   C203    1.385   .     A
C198   C214    1.397   .     A
C198   S345    1.758   .     S
C198   C209    1.387   .     A
C199   S346    1.779   .     S
C199   C213    1.389   .     A
C199   C210    1.398   .     A
C200   S347    1.758   .     S
C200   C213    1.379   .     A
C200   C206    1.382   .     A
C201   C214    1.414   .     A
C201   C208    1.387   .     A
C201   S348    1.774   .     S
C202   C216    1.413   .     A
C202   S349    1.773   .     S
C203   C215    1.382   .     A
C203   S350    1.761   .     S
C204   S351    1.775   .     S
C204   C215    1.388   .     A
C205   S353    1.758   .     S
C205   C216    1.400   .     A
C206   C219    1.433   .     A
C206   S354    1.778   .     S
C207   O330    1.324   .     A
C207   O297    1.320   .     A
C207   C212    1.478   .     S
C208   S355    1.758   .     S
C208   C217    1.399   .     A
C209   S356    1.774   .     S
C209   C217    1.413   .     A
C210   S357    1.794   .     S
C210   C219    1.437   .     A
C211   C218    1.477   .     S
C215   C223    1.463   .     S
C216   C222    1.478   .     S
C217   C221    1.475   .     S
C218   O308    1.306   .     A
C218   O319    1.334   .     A
C219   C220    1.477   .     S
C220   O340    1.325   .     A
C220   O256    1.320   .     A
C221   O254    1.332   .     A
C221   O255    1.307   .     A
C222   O260    1.332   .     A
C222   O257    1.309   .     A
C223   O258    1.320   .     A
C223   O259    1.312   .     A
C224   N66     1.398   1_655 A
C224   S341    1.851   .     S
C224   C1660   1.473   1_554 S
H225   O79     0.991   1_655 S
H226   O293    0.990   .     S
H227   O296    0.990   .     S
H228   O300    0.989   .     S
H229   O303    0.991   .     S
H230   O306    0.990   .     S
H231   O310    0.991   .     S
H232   O313    0.990   .     S
H233   O316    0.990   .     S
H234   O320    0.991   .     S
H235   O323    0.990   .     S
H236   O83     0.991   1_655 S
H237   O326    0.990   .     S
H238   O329    0.991   .     S
H239   O333    0.990   .     S
H240   O336    0.990   .     S
H241   O339    0.991   .     S
H244   O277    0.991   .     S
H245   O280    0.991   .     S
H246   O283    0.990   .     S
H247   O287    0.991   .     S
H248   O290    0.990   .     S
N249   Zn365   2.069   .     S
N250   Zn366   2.069   .     S
N251   Zn367   2.069   .     S
N251   C558    1.395   1_545 A
N252   C559    1.398   1_545 A
N252   Zn368   2.069   .     S
O253   Zn365   2.027   .     S
O254   Zn368   2.027   .     S
O255   Zn367   2.032   .     S
O256   Zn736   2.032   .     S
O257   Zn736   2.036   .     S
O258   Zn367   2.036   .     S
O259   Zn368   2.030   .     S
O260   Zn735   2.030   .     S
O262   S341    1.496   .     D
O264   Zn182   2.027   1_655 S
O266   S352    1.494   .     D
O268   S174    1.495   1_655 S
O269   S358    1.495   .     D
O270   H58     0.991   1_655 S
O270   S174    1.669   1_655 S
O271   S175    1.497   1_655 S
O272   S359    1.495   .     D
O273   H59     0.991   1_655 S
O273   S175    1.669   1_655 S
O274   S360    1.497   .     D
O275   Zn181   2.032   1_655 S
O276   S360    1.496   .     D
O277   S360    1.670   .     S
O278   S361    1.493   .     D
O279   S361    1.496   .     D
O280   S361    1.671   .     S
O281   S362    1.495   .     D
O282   S362    1.495   .     D
O283   S362    1.669   .     S
O284   S363    1.495   .     D
O285   S363    1.493   .     D
O286   Zn366   2.032   .     S
O287   S363    1.669   .     S
O288   S364    1.497   .     D
O289   S364    1.496   .     D
O290   S364    1.682   .     S
O291   S342    1.499   .     D
O292   S342    1.503   .     D
O293   S342    1.670   .     S
O294   S343    1.497   .     D
O295   S343    1.503   .     D
O296   S343    1.678   .     S
O297   Zn182   2.036   1_655 S
O298   S344    1.499   .     D
O299   S344    1.503   .     D
O300   S344    1.665   .     S
O301   S345    1.497   .     D
O302   S345    1.503   .     D
O303   S345    1.677   .     S
O304   S346    1.500   .     D
O305   S346    1.502   .     D
O306   S346    1.680   .     S
O307   S347    1.495   .     D
O308   Zn365   2.036   .     S
O309   S347    1.503   .     D
O310   S347    1.674   .     S
O311   S348    1.499   .     D
O312   S348    1.503   .     D
O313   S348    1.670   .     S
O314   S349    1.500   .     D
O315   S349    1.496   .     D
O316   S349    1.682   .     S
O317   S350    1.503   .     D
O318   S350    1.496   .     D
O319   Zn366   2.030   .     S
O320   S350    1.674   .     S
O321   S351    1.501   .     D
O322   S351    1.501   .     D
O323   S351    1.678   .     S
O324   S353    1.503   .     D
O325   S353    1.497   .     D
O326   S353    1.677   .     S
O327   S354    1.499   .     D
O328   S354    1.496   .     D
O329   S354    1.682   .     S
O330   Zn181   2.030   1_655 S
O331   S355    1.503   .     D
O332   S355    1.496   .     D
O333   S355    1.677   .     S
O334   S356    1.499   .     D
O335   S356    1.495   .     D
O336   S356    1.682   .     S
O337   S357    1.497   .     D
O338   S357    1.497   .     D
O339   S357    1.681   .     S
O340   Zn735   2.027   .     S
S341   O77     1.495   1_655 S
S341   O79     1.670   1_655 S
S352   O81     1.496   1_655 S
S352   C2      1.838   1_655 S
S352   O83     1.671   1_655 S
Zn367  O628    2.030   1_545 S
Zn367  O708    2.027   1_545 S
Zn368  O624    2.032   1_545 S
Zn368  O625    2.036   1_545 S
C369   C398    1.475   .     S
C369   O437    1.333   .     A
C369   O470    1.307   .     A
C370   N433    1.394   .     A
C370   C1107   1.471   .     S
C370   S720    1.838   1_455 S
C371   S542    1.839   .     S
C371   C1842   1.471   1_554 S
C371   N434    1.397   .     S
C372   C1144   1.473   .     S
C372   N617    1.398   .     S
C372   S727    1.836   .     S
C373   S544    1.846   .     S
C373   C1848   1.472   1_554 S
C373   N436    1.397   .     S
C374   N67     1.395   1_565 A
C374   S545    1.837   .     S
C374   C1111   1.471   .     S
C375   N68     1.398   1_565 A
C375   S546    1.843   .     S
C375   C1846   1.471   1_554 S
C376   S547    1.837   .     S
C376   C1109   1.472   .     S
C376   N435    1.397   .     S
C377   S548    1.787   .     S
C377   C388    1.398   .     A
C377   C396    1.432   .     A
C378   C395    1.415   .     A
C378   S526    1.776   .     S
C378   C389    1.389   .     A
C379   C386    1.386   .     A
C379   S527    1.757   .     S
C379   C395    1.397   .     A
C380   C397    1.461   .     S
C380   O459    1.322   .     A
C380   O448    1.309   .     A
C381   C396    1.432   .     A
C381   S528    1.771   .     S
C381   C387    1.385   .     A
C382   C398    1.397   .     A
C382   S529    1.758   .     S
C382   C393    1.387   .     A
C383   S530    1.779   .     S
C383   C397    1.389   .     A
C383   C394    1.398   .     A
C384   S531    1.758   .     S
C384   C397    1.379   .     A
C384   C390    1.382   .     A
C385   C398    1.414   .     A
C385   C392    1.387   .     A
C385   S532    1.774   .     S
C386   C400    1.413   .     A
C386   S533    1.773   .     S
C387   C399    1.382   .     A
C387   S534    1.761   .     S
C388   S535    1.775   .     S
C388   C399    1.388   .     A
C389   S537    1.758   .     S
C389   C400    1.400   .     A
C390   C403    1.433   .     A
C390   S538    1.778   .     S
C391   O514    1.324   .     A
C391   O481    1.320   .     A
C391   C396    1.478   .     S
C392   S539    1.758   .     S
C392   C401    1.399   .     A
C393   S540    1.774   .     S
C393   C401    1.413   .     A
C394   S541    1.794   .     S
C394   C403    1.437   .     A
C395   C402    1.477   .     S
C399   C407    1.463   .     S
C400   C406    1.478   .     S
C401   C405    1.475   .     S
C402   O492    1.306   .     A
C402   O503    1.334   .     A
C403   C404    1.477   .     S
C404   O524    1.325   .     A
C404   O440    1.320   .     A
C405   O438    1.332   .     A
C405   O439    1.307   .     A
C406   O444    1.332   .     A
C406   O441    1.309   .     A
C407   O442    1.320   .     A
C407   O443    1.312   .     A
C408   N618    1.398   .     A
C408   S525    1.851   .     S
C408   C1844   1.473   1_554 S
H409   O631    0.991   .     S
H410   O477    0.990   .     S
H411   O480    0.990   .     S
H412   O484    0.989   .     S
H413   O487    0.991   .     S
H414   O490    0.990   .     S
H415   O494    0.991   .     S
H416   O497    0.990   .     S
H417   O500    0.990   .     S
H418   O504    0.991   .     S
H419   O507    0.990   .     S
H420   O635    0.991   .     S
H421   O510    0.990   .     S
H422   O513    0.991   .     S
H423   O517    0.990   .     S
H424   O520    0.990   .     S
H425   O523    0.991   .     S
H426   O638    0.991   1_455 S
H427   O641    0.991   1_455 S
H428   O461    0.991   .     S
H429   O464    0.991   .     S
H430   O467    0.990   .     S
H431   O471    0.991   .     S
H432   O474    0.990   .     S
N433   C556    1.398   1_455 S
N433   Zn549   2.069   .     S
N434   C592    1.398   1_455 A
N434   Zn550   2.069   .     S
N435   Zn551   2.069   .     S
N436   Zn552   2.069   .     S
O437   Zn549   2.027   .     S
O438   Zn552   2.027   .     S
O439   Zn551   2.032   .     S
O440   Zn184   2.032   1_565 S
O441   Zn184   2.036   1_565 S
O442   Zn551   2.036   .     S
O443   Zn552   2.030   .     S
O444   Zn183   2.030   1_565 S
O445   S709    1.495   1_455 S
O446   S525    1.496   .     D
O447   H593    0.991   1_455 S
O447   S709    1.670   1_455 S
O448   Zn734   2.027   .     S
O449   S720    1.496   1_455 S
O450   S536    1.494   .     D
O451   H604    0.991   1_455 S
O451   S720    1.671   1_455 S
O452   S726    1.495   .     S
O453   S542    1.495   .     D
O454   H610    0.991   .     S
O454   S726    1.669   .     S
O455   S727    1.497   .     S
O456   S543    1.495   .     D
O457   H611    0.991   .     S
O457   S727    1.669   .     S
O458   S544    1.497   .     D
O459   Zn733   2.032   .     S
O460   S544    1.496   .     D
O461   S544    1.670   .     S
O462   S545    1.493   .     D
O463   S545    1.496   .     D
O464   S545    1.671   .     S
O465   S546    1.495   .     D
O466   S546    1.495   .     D
O467   S546    1.669   .     S
O468   S547    1.495   .     D
O469   S547    1.493   .     D
O470   Zn550   2.032   .     S
O471   S547    1.669   .     S
O472   S548    1.497   .     D
O473   S548    1.496   .     D
O474   S548    1.682   .     S
O475   S526    1.499   .     D
O476   S526    1.503   .     D
O477   S526    1.670   .     S
O478   S527    1.497   .     D
O479   S527    1.503   .     D
O480   S527    1.678   .     S
O481   Zn734   2.036   .     S
O482   S528    1.499   .     D
O483   S528    1.503   .     D
O484   S528    1.665   .     S
O485   S529    1.497   .     D
O486   S529    1.503   .     D
O487   S529    1.677   .     S
O488   S530    1.500   .     D
O489   S530    1.502   .     D
O490   S530    1.680   .     S
O491   S531    1.495   .     D
O492   Zn549   2.036   .     S
O493   S531    1.503   .     D
O494   S531    1.674   .     S
O495   S532    1.499   .     D
O496   S532    1.503   .     D
O497   S532    1.670   .     S
O498   S533    1.500   .     D
O499   S533    1.496   .     D
O500   S533    1.682   .     S
O501   S534    1.503   .     D
O502   S534    1.496   .     D
O503   Zn550   2.030   .     S
O504   S534    1.674   .     S
O505   S535    1.501   .     D
O506   S535    1.501   .     D
O507   S535    1.678   .     S
O508   S537    1.503   .     D
O509   S537    1.497   .     D
O510   S537    1.677   .     S
O511   S538    1.499   .     D
O512   S538    1.496   .     D
O513   S538    1.682   .     S
O514   Zn733   2.030   .     S
O515   S539    1.503   .     D
O516   S539    1.496   .     D
O517   S539    1.677   .     S
O518   S540    1.499   .     D
O519   S540    1.495   .     D
O520   S540    1.682   .     S
O521   S541    1.497   .     D
O522   S541    1.497   .     D
O523   S541    1.681   .     S
O524   Zn183   2.027   1_565 S
S525   O629    1.495   .     S
S525   O631    1.670   .     S
S536   O633    1.496   .     S
S536   C554    1.838   .     S
S536   O635    1.671   .     S
S542   O636    1.495   1_455 S
S542   O638    1.669   1_455 S
S543   C556    1.836   1_455 S
S543   O639    1.497   1_455 S
S543   O641    1.669   1_455 S
Zn549  O698    2.030   1_455 S
Zn549  O643    2.032   1_455 S
Zn550  O665    2.036   1_455 S
Zn550  O632    2.027   1_455 S
C553   C582    1.475   .     S
C553   O621    1.333   .     A
C553   O654    1.307   .     A
C554   N617    1.394   .     A
C554   C1291   1.471   .     S
C555   S726    1.839   .     S
C555   C2026   1.471   1_554 S
C555   N618    1.397   .     S
C556   C1328   1.473   .     S
C556   N433    1.398   1_655 S
C556   S543    1.836   1_655 S
C557   S728    1.846   .     S
C557   C2032   1.472   1_554 S
C557   N620    1.397   .     S
C558   N251    1.395   1_565 A
C558   S729    1.837   .     S
C558   C1295   1.471   .     S
C559   N252    1.398   1_565 A
C559   S730    1.843   .     S
C559   C2030   1.471   1_554 S
C560   S731    1.837   .     S
C560   C1293   1.472   .     S
C560   N619    1.397   .     S
C561   S732    1.787   .     S
C561   C572    1.398   .     A
C561   C580    1.432   .     A
C562   C579    1.415   .     A
C562   S710    1.776   .     S
C562   C573    1.389   .     A
C563   C570    1.386   .     A
C563   S711    1.757   .     S
C563   C579    1.397   .     A
C564   C581    1.461   .     S
C564   O643    1.322   .     A
C564   O632    1.309   .     A
C565   C580    1.432   .     A
C565   S712    1.771   .     S
C565   C571    1.385   .     A
C566   C582    1.397   .     A
C566   S713    1.758   .     S
C566   C577    1.387   .     A
C567   S714    1.779   .     S
C567   C581    1.389   .     A
C567   C578    1.398   .     A
C568   S715    1.758   .     S
C568   C581    1.379   .     A
C568   C574    1.382   .     A
C569   C582    1.414   .     A
C569   C576    1.387   .     A
C569   S716    1.774   .     S
C570   C584    1.413   .     A
C570   S717    1.773   .     S
C571   C583    1.382   .     A
C571   S718    1.761   .     S
C572   S719    1.775   .     S
C572   C583    1.388   .     A
C573   S721    1.758   .     S
C573   C584    1.400   .     A
C574   C587    1.433   .     A
C574   S722    1.778   .     S
C575   O698    1.324   .     A
C575   O665    1.320   .     A
C575   C580    1.478   .     S
C576   S723    1.758   .     S
C576   C585    1.399   .     A
C577   S724    1.774   .     S
C577   C585    1.413   .     A
C578   S725    1.794   .     S
C578   C587    1.437   .     A
C579   C586    1.477   .     S
C583   C591    1.463   .     S
C584   C590    1.478   .     S
C585   C589    1.475   .     S
C586   O676    1.306   .     A
C586   O687    1.334   .     A
C587   C588    1.477   .     S
C588   O708    1.325   .     A
C588   O624    1.320   .     A
C589   O622    1.332   .     A
C589   O623    1.307   .     A
C590   O628    1.332   .     A
C590   O625    1.309   .     A
C591   O626    1.320   .     A
C591   O627    1.312   .     A
C592   N434    1.398   1_655 A
C592   S709    1.851   .     S
C592   C2028   1.473   1_554 S
H593   O447    0.991   1_655 S
H594   O661    0.990   .     S
H595   O664    0.990   .     S
H596   O668    0.989   .     S
H597   O671    0.991   .     S
H598   O674    0.990   .     S
H599   O678    0.991   .     S
H600   O681    0.990   .     S
H601   O684    0.990   .     S
H602   O688    0.991   .     S
H603   O691    0.990   .     S
H604   O451    0.991   1_655 S
H605   O694    0.990   .     S
H606   O697    0.991   .     S
H607   O701    0.990   .     S
H608   O704    0.990   .     S
H609   O707    0.991   .     S
H612   O645    0.991   .     S
H613   O648    0.991   .     S
H614   O651    0.990   .     S
H615   O655    0.991   .     S
H616   O658    0.990   .     S
N617   Zn733   2.069   .     S
N618   Zn734   2.069   .     S
N619   Zn735   2.069   .     S
N620   Zn736   2.069   .     S
O621   Zn733   2.027   .     S
O622   Zn736   2.027   .     S
O623   Zn735   2.032   .     S
O624   Zn368   2.032   1_565 S
O625   Zn368   2.036   1_565 S
O626   Zn735   2.036   .     S
O627   Zn736   2.030   .     S
O628   Zn367   2.030   1_565 S
O630   S709    1.496   .     D
O632   Zn550   2.027   1_655 S
O634   S720    1.494   .     D
O636   S542    1.495   1_655 S
O637   S726    1.495   .     D
O638   H426    0.991   1_655 S
O638   S542    1.669   1_655 S
O639   S543    1.497   1_655 S
O640   S727    1.495   .     D
O641   H427    0.991   1_655 S
O641   S543    1.669   1_655 S
O642   S728    1.497   .     D
O643   Zn549   2.032   1_655 S
O644   S728    1.496   .     D
O645   S728    1.670   .     S
O646   S729    1.493   .     D
O647   S729    1.496   .     D
O648   S729    1.671   .     S
O649   S730    1.495   .     D
O650   S730    1.495   .     D
O651   S730    1.669   .     S
O652   S731    1.495   .     D
O653   S731    1.493   .     D
O654   Zn734   2.032   .     S
O655   S731    1.669   .     S
O656   S732    1.497   .     D
O657   S732    1.496   .     D
O658   S732    1.682   .     S
O659   S710    1.499   .     D
O660   S710    1.503   .     D
O661   S710    1.670   .     S
O662   S711    1.497   .     D
O663   S711    1.503   .     D
O664   S711    1.678   .     S
O665   Zn550   2.036   1_655 S
O666   S712    1.499   .     D
O667   S712    1.503   .     D
O668   S712    1.665   .     S
O669   S713    1.497   .     D
O670   S713    1.503   .     D
O671   S713    1.677   .     S
O672   S714    1.500   .     D
O673   S714    1.502   .     D
O674   S714    1.680   .     S
O675   S715    1.495   .     D
O676   Zn733   2.036   .     S
O677   S715    1.503   .     D
O678   S715    1.674   .     S
O679   S716    1.499   .     D
O680   S716    1.503   .     D
O681   S716    1.670   .     S
O682   S717    1.500   .     D
O683   S717    1.496   .     D
O684   S717    1.682   .     S
O685   S718    1.503   .     D
O686   S718    1.496   .     D
O687   Zn734   2.030   .     S
O688   S718    1.674   .     S
O689   S719    1.501   .     D
O690   S719    1.501   .     D
O691   S719    1.678   .     S
O692   S721    1.503   .     D
O693   S721    1.497   .     D
O694   S721    1.677   .     S
O695   S722    1.499   .     D
O696   S722    1.496   .     D
O697   S722    1.682   .     S
O698   Zn549   2.030   1_655 S
O699   S723    1.503   .     D
O700   S723    1.496   .     D
O701   S723    1.677   .     S
O702   S724    1.499   .     D
O703   S724    1.495   .     D
O704   S724    1.682   .     S
O705   S725    1.497   .     D
O706   S725    1.497   .     D
O707   S725    1.681   .     S
O708   Zn367   2.027   1_565 S
S709   O445    1.495   1_655 S
S709   O447    1.670   1_655 S
S720   O449    1.496   1_655 S
S720   C370    1.838   1_655 S
S720   O451    1.671   1_655 S
C737   C766    1.475   .     S
C737   O805    1.333   .     A
C737   O838    1.307   .     A
C738   N801    1.394   .     A
C738   C1475   1.471   .     S
C738   S1088   1.838   1_455 S
C739   S910    1.839   .     S
C739   N802    1.397   .     S
C740   C1512   1.473   .     S
C740   N985    1.398   .     S
C740   S1095   1.836   .     S
C741   S912    1.846   .     S
C741   N804    1.397   .     S
C742   N1171   1.395   .     A
C742   S913    1.837   .     S
C742   C1479   1.471   .     S
C743   N1172   1.398   .     A
C743   S914    1.843   .     S
C744   S915    1.837   .     S
C744   C1477   1.472   .     S
C744   N803    1.397   .     S
C745   S916    1.787   .     S
C745   C756    1.398   .     A
C745   C764    1.432   .     A
C746   C763    1.415   .     A
C746   S894    1.776   .     S
C746   C757    1.389   .     A
C747   C754    1.386   .     A
C747   S895    1.757   .     S
C747   C763    1.397   .     A
C748   C765    1.461   .     S
C748   O827    1.322   .     A
C748   O816    1.309   .     A
C749   C764    1.432   .     A
C749   S896    1.771   .     S
C749   C755    1.385   .     A
C750   C766    1.397   .     A
C750   S897    1.758   .     S
C750   C761    1.387   .     A
C751   S898    1.779   .     S
C751   C765    1.389   .     A
C751   C762    1.398   .     A
C752   S899    1.758   .     S
C752   C765    1.379   .     A
C752   C758    1.382   .     A
C753   C766    1.414   .     A
C753   C760    1.387   .     A
C753   S900    1.774   .     S
C754   C768    1.413   .     A
C754   S901    1.773   .     S
C755   C767    1.382   .     A
C755   S902    1.761   .     S
C756   S903    1.775   .     S
C756   C767    1.388   .     A
C757   S905    1.758   .     S
C757   C768    1.400   .     A
C758   C771    1.433   .     A
C758   S906    1.778   .     S
C759   O882    1.324   .     A
C759   O849    1.320   .     A
C759   C764    1.478   .     S
C760   S907    1.758   .     S
C760   C769    1.399   .     A
C761   S908    1.774   .     S
C761   C769    1.413   .     A
C762   S909    1.794   .     S
C762   C771    1.437   .     A
C763   C770    1.477   .     S
C767   C775    1.463   .     S
C768   C774    1.478   .     S
C769   C773    1.475   .     S
C770   O860    1.306   .     A
C770   O871    1.334   .     A
C771   C772    1.477   .     S
C772   O892    1.325   .     A
C772   O808    1.320   .     A
C773   O806    1.332   .     A
C773   O807    1.307   .     A
C774   O812    1.332   .     A
C774   O809    1.309   .     A
C775   O810    1.320   .     A
C775   O811    1.312   .     A
C776   N986    1.398   .     A
C776   S893    1.851   .     S
H777   O999    0.991   .     S
H778   O845    0.990   .     S
H779   O848    0.990   .     S
H780   O852    0.989   .     S
H781   O855    0.991   .     S
H782   O858    0.990   .     S
H783   O862    0.991   .     S
H784   O865    0.990   .     S
H785   O868    0.990   .     S
H786   O872    0.991   .     S
H787   O875    0.990   .     S
H788   O1003   0.991   .     S
H789   O878    0.990   .     S
H790   O881    0.991   .     S
H791   O885    0.990   .     S
H792   O888    0.990   .     S
H793   O891    0.991   .     S
H794   O1006   0.991   1_455 S
H795   O1009   0.991   1_455 S
H796   O829    0.991   .     S
H797   O832    0.991   .     S
H798   O835    0.990   .     S
H799   O839    0.991   .     S
H800   O842    0.990   .     S
N801   C924    1.398   1_455 S
N801   Zn917   2.069   .     S
N802   C960    1.398   1_455 A
N802   Zn918   2.069   .     S
N803   Zn919   2.069   .     S
N803   C1110   1.395   1_545 A
N804   C1111   1.398   1_545 A
N804   Zn920   2.069   .     S
O805   Zn917   2.027   .     S
O806   Zn920   2.027   .     S
O807   Zn919   2.032   .     S
O808   Zn1288  2.032   .     S
O809   Zn1288  2.036   .     S
O810   Zn919   2.036   .     S
O811   Zn920   2.030   .     S
O812   Zn1287  2.030   .     S
O813   S1077   1.495   1_455 S
O814   S893    1.496   .     D
O815   H961    0.991   1_455 S
O815   S1077   1.670   1_455 S
O816   Zn1102  2.027   .     S
O817   S1088   1.496   1_455 S
O818   S904    1.494   .     D
O819   H972    0.991   1_455 S
O819   S1088   1.671   1_455 S
O820   S1094   1.495   .     S
O821   S910    1.495   .     D
O822   H978    0.991   .     S
O822   S1094   1.669   .     S
O823   S1095   1.497   .     S
O824   S911    1.495   .     D
O825   H979    0.991   .     S
O825   S1095   1.669   .     S
O826   S912    1.497   .     D
O827   Zn1101  2.032   .     S
O828   S912    1.496   .     D
O829   S912    1.670   .     S
O830   S913    1.493   .     D
O831   S913    1.496   .     D
O832   S913    1.671   .     S
O833   S914    1.495   .     D
O834   S914    1.495   .     D
O835   S914    1.669   .     S
O836   S915    1.495   .     D
O837   S915    1.493   .     D
O838   Zn918   2.032   .     S
O839   S915    1.669   .     S
O840   S916    1.497   .     D
O841   S916    1.496   .     D
O842   S916    1.682   .     S
O843   S894    1.499   .     D
O844   S894    1.503   .     D
O845   S894    1.670   .     S
O846   S895    1.497   .     D
O847   S895    1.503   .     D
O848   S895    1.678   .     S
O849   Zn1102  2.036   .     S
O850   S896    1.499   .     D
O851   S896    1.503   .     D
O852   S896    1.665   .     S
O853   S897    1.497   .     D
O854   S897    1.503   .     D
O855   S897    1.677   .     S
O856   S898    1.500   .     D
O857   S898    1.502   .     D
O858   S898    1.680   .     S
O859   S899    1.495   .     D
O860   Zn917   2.036   .     S
O861   S899    1.503   .     D
O862   S899    1.674   .     S
O863   S900    1.499   .     D
O864   S900    1.503   .     D
O865   S900    1.670   .     S
O866   S901    1.500   .     D
O867   S901    1.496   .     D
O868   S901    1.682   .     S
O869   S902    1.503   .     D
O870   S902    1.496   .     D
O871   Zn918   2.030   .     S
O872   S902    1.674   .     S
O873   S903    1.501   .     D
O874   S903    1.501   .     D
O875   S903    1.678   .     S
O876   S905    1.503   .     D
O877   S905    1.497   .     D
O878   S905    1.677   .     S
O879   S906    1.499   .     D
O880   S906    1.496   .     D
O881   S906    1.682   .     S
O882   Zn1101  2.030   .     S
O883   S907    1.503   .     D
O884   S907    1.496   .     D
O885   S907    1.677   .     S
O886   S908    1.499   .     D
O887   S908    1.495   .     D
O888   S908    1.682   .     S
O889   S909    1.497   .     D
O890   S909    1.497   .     D
O891   S909    1.681   .     S
O892   Zn1287  2.027   .     S
S893   O997    1.495   .     S
S893   O999    1.670   .     S
S904   O1001   1.496   .     S
S904   C922    1.838   .     S
S904   O1003   1.671   .     S
S910   O1004   1.495   1_455 S
S910   O1006   1.669   1_455 S
S911   C924    1.836   1_455 S
S911   O1007   1.497   1_455 S
S911   O1009   1.669   1_455 S
Zn917  O1066   2.030   1_455 S
Zn917  O1011   2.032   1_455 S
Zn918  O1033   2.036   1_455 S
Zn918  O1000   2.027   1_455 S
Zn919  O1180   2.030   1_545 S
Zn919  O1260   2.027   1_545 S
Zn920  O1176   2.032   1_545 S
Zn920  O1177   2.036   1_545 S
C921   C950    1.475   .     S
C921   O989    1.333   .     A
C921   O1022   1.307   .     A
C922   N985    1.394   .     A
C922   C1659   1.471   .     S
C923   S1094   1.839   .     S
C923   N986    1.397   .     S
C924   C1696   1.473   .     S
C924   N801    1.398   1_655 S
C924   S911    1.836   1_655 S
C925   S1096   1.846   .     S
C925   N988    1.397   .     S
C926   N1355   1.395   .     A
C926   S1097   1.837   .     S
C926   C1663   1.471   .     S
C927   N1356   1.398   .     A
C927   S1098   1.843   .     S
C928   S1099   1.837   .     S
C928   C1661   1.472   .     S
C928   N987    1.397   .     S
C929   S1100   1.787   .     S
C929   C940    1.398   .     A
C929   C948    1.432   .     A
C930   C947    1.415   .     A
C930   S1078   1.776   .     S
C930   C941    1.389   .     A
C931   C938    1.386   .     A
C931   S1079   1.757   .     S
C931   C947    1.397   .     A
C932   C949    1.461   .     S
C932   O1011   1.322   .     A
C932   O1000   1.309   .     A
C933   C948    1.432   .     A
C933   S1080   1.771   .     S
C933   C939    1.385   .     A
C934   C950    1.397   .     A
C934   S1081   1.758   .     S
C934   C945    1.387   .     A
C935   S1082   1.779   .     S
C935   C949    1.389   .     A
C935   C946    1.398   .     A
C936   S1083   1.758   .     S
C936   C949    1.379   .     A
C936   C942    1.382   .     A
C937   C950    1.414   .     A
C937   C944    1.387   .     A
C937   S1084   1.774   .     S
C938   C952    1.413   .     A
C938   S1085   1.773   .     S
C939   C951    1.382   .     A
C939   S1086   1.761   .     S
C940   S1087   1.775   .     S
C940   C951    1.388   .     A
C941   S1089   1.758   .     S
C941   C952    1.400   .     A
C942   C955    1.433   .     A
C942   S1090   1.778   .     S
C943   O1066   1.324   .     A
C943   O1033   1.320   .     A
C943   C948    1.478   .     S
C944   S1091   1.758   .     S
C944   C953    1.399   .     A
C945   S1092   1.774   .     S
C945   C953    1.413   .     A
C946   S1093   1.794   .     S
C946   C955    1.437   .     A
C947   C954    1.477   .     S
C951   C959    1.463   .     S
C952   C958    1.478   .     S
C953   C957    1.475   .     S
C954   O1044   1.306   .     A
C954   O1055   1.334   .     A
C955   C956    1.477   .     S
C956   O1076   1.325   .     A
C956   O992    1.320   .     A
C957   O990    1.332   .     A
C957   O991    1.307   .     A
C958   O996    1.332   .     A
C958   O993    1.309   .     A
C959   O994    1.320   .     A
C959   O995    1.312   .     A
C960   N802    1.398   1_655 A
C960   S1077   1.851   .     S
H961   O815    0.991   1_655 S
H962   O1029   0.990   .     S
H963   O1032   0.990   .     S
H964   O1036   0.989   .     S
H965   O1039   0.991   .     S
H966   O1042   0.990   .     S
H967   O1046   0.991   .     S
H968   O1049   0.990   .     S
H969   O1052   0.990   .     S
H970   O1056   0.991   .     S
H971   O1059   0.990   .     S
H972   O819    0.991   1_655 S
H973   O1062   0.990   .     S
H974   O1065   0.991   .     S
H975   O1069   0.990   .     S
H976   O1072   0.990   .     S
H977   O1075   0.991   .     S
H980   O1013   0.991   .     S
H981   O1016   0.991   .     S
H982   O1019   0.990   .     S
H983   O1023   0.991   .     S
H984   O1026   0.990   .     S
N985   Zn1101  2.069   .     S
N986   Zn1102  2.069   .     S
N987   Zn1103  2.069   .     S
N987   C1294   1.395   1_545 A
N988   C1295   1.398   1_545 A
N988   Zn1104  2.069   .     S
O989   Zn1101  2.027   .     S
O990   Zn1104  2.027   .     S
O991   Zn1103  2.032   .     S
O992   Zn1472  2.032   .     S
O993   Zn1472  2.036   .     S
O994   Zn1103  2.036   .     S
O995   Zn1104  2.030   .     S
O996   Zn1471  2.030   .     S
O998   S1077   1.496   .     D
O1000  Zn918   2.027   1_655 S
O1002  S1088   1.494   .     D
O1004  S910    1.495   1_655 S
O1005  S1094   1.495   .     D
O1006  H794    0.991   1_655 S
O1006  S910    1.669   1_655 S
O1007  S911    1.497   1_655 S
O1008  S1095   1.495   .     D
O1009  H795    0.991   1_655 S
O1009  S911    1.669   1_655 S
O1010  S1096   1.497   .     D
O1011  Zn917   2.032   1_655 S
O1012  S1096   1.496   .     D
O1013  S1096   1.670   .     S
O1014  S1097   1.493   .     D
O1015  S1097   1.496   .     D
O1016  S1097   1.671   .     S
O1017  S1098   1.495   .     D
O1018  S1098   1.495   .     D
O1019  S1098   1.669   .     S
O1020  S1099   1.495   .     D
O1021  S1099   1.493   .     D
O1022  Zn1102  2.032   .     S
O1023  S1099   1.669   .     S
O1024  S1100   1.497   .     D
O1025  S1100   1.496   .     D
O1026  S1100   1.682   .     S
O1027  S1078   1.499   .     D
O1028  S1078   1.503   .     D
O1029  S1078   1.670   .     S
O1030  S1079   1.497   .     D
O1031  S1079   1.503   .     D
O1032  S1079   1.678   .     S
O1033  Zn918   2.036   1_655 S
O1034  S1080   1.499   .     D
O1035  S1080   1.503   .     D
O1036  S1080   1.665   .     S
O1037  S1081   1.497   .     D
O1038  S1081   1.503   .     D
O1039  S1081   1.677   .     S
O1040  S1082   1.500   .     D
O1041  S1082   1.502   .     D
O1042  S1082   1.680   .     S
O1043  S1083   1.495   .     D
O1044  Zn1101  2.036   .     S
O1045  S1083   1.503   .     D
O1046  S1083   1.674   .     S
O1047  S1084   1.499   .     D
O1048  S1084   1.503   .     D
O1049  S1084   1.670   .     S
O1050  S1085   1.500   .     D
O1051  S1085   1.496   .     D
O1052  S1085   1.682   .     S
O1053  S1086   1.503   .     D
O1054  S1086   1.496   .     D
O1055  Zn1102  2.030   .     S
O1056  S1086   1.674   .     S
O1057  S1087   1.501   .     D
O1058  S1087   1.501   .     D
O1059  S1087   1.678   .     S
O1060  S1089   1.503   .     D
O1061  S1089   1.497   .     D
O1062  S1089   1.677   .     S
O1063  S1090   1.499   .     D
O1064  S1090   1.496   .     D
O1065  S1090   1.682   .     S
O1066  Zn917   2.030   1_655 S
O1067  S1091   1.503   .     D
O1068  S1091   1.496   .     D
O1069  S1091   1.677   .     S
O1070  S1092   1.499   .     D
O1071  S1092   1.495   .     D
O1072  S1092   1.682   .     S
O1073  S1093   1.497   .     D
O1074  S1093   1.497   .     D
O1075  S1093   1.681   .     S
O1076  Zn1471  2.027   .     S
S1077  O813    1.495   1_655 S
S1077  O815    1.670   1_655 S
S1088  O817    1.496   1_655 S
S1088  C738    1.838   1_655 S
S1088  O819    1.671   1_655 S
Zn1103 O1364   2.030   1_545 S
Zn1103 O1444   2.027   1_545 S
Zn1104 O1360   2.032   1_545 S
Zn1104 O1361   2.036   1_545 S
C1105  C1134   1.475   .     S
C1105  O1173   1.333   .     A
C1105  O1206   1.307   .     A
C1106  N1169   1.394   .     A
C1106  C1843   1.471   .     S
C1106  S1456   1.838   1_455 S
C1107  S1278   1.839   .     S
C1107  N1170   1.397   .     S
C1108  C1880   1.473   .     S
C1108  N1353   1.398   .     S
C1108  S1463   1.836   .     S
C1109  S1280   1.846   .     S
C1109  N1172   1.397   .     S
C1110  N803    1.395   1_565 A
C1110  S1281   1.837   .     S
C1110  C1847   1.471   .     S
C1111  N804    1.398   1_565 A
C1111  S1282   1.843   .     S
C1112  S1283   1.837   .     S
C1112  C1845   1.472   .     S
C1112  N1171   1.397   .     S
C1113  S1284   1.787   .     S
C1113  C1124   1.398   .     A
C1113  C1132   1.432   .     A
C1114  C1131   1.415   .     A
C1114  S1262   1.776   .     S
C1114  C1125   1.389   .     A
C1115  C1122   1.386   .     A
C1115  S1263   1.757   .     S
C1115  C1131   1.397   .     A
C1116  C1133   1.461   .     S
C1116  O1195   1.322   .     A
C1116  O1184   1.309   .     A
C1117  C1132   1.432   .     A
C1117  S1264   1.771   .     S
C1117  C1123   1.385   .     A
C1118  C1134   1.397   .     A
C1118  S1265   1.758   .     S
C1118  C1129   1.387   .     A
C1119  S1266   1.779   .     S
C1119  C1133   1.389   .     A
C1119  C1130   1.398   .     A
C1120  S1267   1.758   .     S
C1120  C1133   1.379   .     A
C1120  C1126   1.382   .     A
C1121  C1134   1.414   .     A
C1121  C1128   1.387   .     A
C1121  S1268   1.774   .     S
C1122  C1136   1.413   .     A
C1122  S1269   1.773   .     S
C1123  C1135   1.382   .     A
C1123  S1270   1.761   .     S
C1124  S1271   1.775   .     S
C1124  C1135   1.388   .     A
C1125  S1273   1.758   .     S
C1125  C1136   1.400   .     A
C1126  C1139   1.433   .     A
C1126  S1274   1.778   .     S
C1127  O1250   1.324   .     A
C1127  O1217   1.320   .     A
C1127  C1132   1.478   .     S
C1128  S1275   1.758   .     S
C1128  C1137   1.399   .     A
C1129  S1276   1.774   .     S
C1129  C1137   1.413   .     A
C1130  S1277   1.794   .     S
C1130  C1139   1.437   .     A
C1131  C1138   1.477   .     S
C1135  C1143   1.463   .     S
C1136  C1142   1.478   .     S
C1137  C1141   1.475   .     S
C1138  O1228   1.306   .     A
C1138  O1239   1.334   .     A
C1139  C1140   1.477   .     S
C1140  O1260   1.325   .     A
C1140  O1176   1.320   .     A
C1141  O1174   1.332   .     A
C1141  O1175   1.307   .     A
C1142  O1180   1.332   .     A
C1142  O1177   1.309   .     A
C1143  O1178   1.320   .     A
C1143  O1179   1.312   .     A
C1144  N1354   1.398   .     A
C1144  S1261   1.851   .     S
H1145  O1367   0.991   .     S
H1146  O1213   0.990   .     S
H1147  O1216   0.990   .     S
H1148  O1220   0.989   .     S
H1149  O1223   0.991   .     S
H1150  O1226   0.990   .     S
H1151  O1230   0.991   .     S
H1152  O1233   0.990   .     S
H1153  O1236   0.990   .     S
H1154  O1240   0.991   .     S
H1155  O1243   0.990   .     S
H1156  O1371   0.991   .     S
H1157  O1246   0.990   .     S
H1158  O1249   0.991   .     S
H1159  O1253   0.990   .     S
H1160  O1256   0.990   .     S
H1161  O1259   0.991   .     S
H1162  O1374   0.991   1_455 S
H1163  O1377   0.991   1_455 S
H1164  O1197   0.991   .     S
H1165  O1200   0.991   .     S
H1166  O1203   0.990   .     S
H1167  O1207   0.991   .     S
H1168  O1210   0.990   .     S
N1169  C1292   1.398   1_455 S
N1169  Zn1285  2.069   .     S
N1170  C1328   1.398   1_455 A
N1170  Zn1286  2.069   .     S
N1171  Zn1287  2.069   .     S
N1172  Zn1288  2.069   .     S
O1173  Zn1285  2.027   .     S
O1174  Zn1288  2.027   .     S
O1175  Zn1287  2.032   .     S
O1176  Zn920   2.032   1_565 S
O1177  Zn920   2.036   1_565 S
O1178  Zn1287  2.036   .     S
O1179  Zn1288  2.030   .     S
O1180  Zn919   2.030   1_565 S
O1181  S1445   1.495   1_455 S
O1182  S1261   1.496   .     D
O1183  H1329   0.991   1_455 S
O1183  S1445   1.670   1_455 S
O1184  Zn1470  2.027   .     S
O1185  S1456   1.496   1_455 S
O1186  S1272   1.494   .     D
O1187  H1340   0.991   1_455 S
O1187  S1456   1.671   1_455 S
O1188  S1462   1.495   .     S
O1189  S1278   1.495   .     D
O1190  H1346   0.991   .     S
O1190  S1462   1.669   .     S
O1191  S1463   1.497   .     S
O1192  S1279   1.495   .     D
O1193  H1347   0.991   .     S
O1193  S1463   1.669   .     S
O1194  S1280   1.497   .     D
O1195  Zn1469  2.032   .     S
O1196  S1280   1.496   .     D
O1197  S1280   1.670   .     S
O1198  S1281   1.493   .     D
O1199  S1281   1.496   .     D
O1200  S1281   1.671   .     S
O1201  S1282   1.495   .     D
O1202  S1282   1.495   .     D
O1203  S1282   1.669   .     S
O1204  S1283   1.495   .     D
O1205  S1283   1.493   .     D
O1206  Zn1286  2.032   .     S
O1207  S1283   1.669   .     S
O1208  S1284   1.497   .     D
O1209  S1284   1.496   .     D
O1210  S1284   1.682   .     S
O1211  S1262   1.499   .     D
O1212  S1262   1.503   .     D
O1213  S1262   1.670   .     S
O1214  S1263   1.497   .     D
O1215  S1263   1.503   .     D
O1216  S1263   1.678   .     S
O1217  Zn1470  2.036   .     S
O1218  S1264   1.499   .     D
O1219  S1264   1.503   .     D
O1220  S1264   1.665   .     S
O1221  S1265   1.497   .     D
O1222  S1265   1.503   .     D
O1223  S1265   1.677   .     S
O1224  S1266   1.500   .     D
O1225  S1266   1.502   .     D
O1226  S1266   1.680   .     S
O1227  S1267   1.495   .     D
O1228  Zn1285  2.036   .     S
O1229  S1267   1.503   .     D
O1230  S1267   1.674   .     S
O1231  S1268   1.499   .     D
O1232  S1268   1.503   .     D
O1233  S1268   1.670   .     S
O1234  S1269   1.500   .     D
O1235  S1269   1.496   .     D
O1236  S1269   1.682   .     S
O1237  S1270   1.503   .     D
O1238  S1270   1.496   .     D
O1239  Zn1286  2.030   .     S
O1240  S1270   1.674   .     S
O1241  S1271   1.501   .     D
O1242  S1271   1.501   .     D
O1243  S1271   1.678   .     S
O1244  S1273   1.503   .     D
O1245  S1273   1.497   .     D
O1246  S1273   1.677   .     S
O1247  S1274   1.499   .     D
O1248  S1274   1.496   .     D
O1249  S1274   1.682   .     S
O1250  Zn1469  2.030   .     S
O1251  S1275   1.503   .     D
O1252  S1275   1.496   .     D
O1253  S1275   1.677   .     S
O1254  S1276   1.499   .     D
O1255  S1276   1.495   .     D
O1256  S1276   1.682   .     S
O1257  S1277   1.497   .     D
O1258  S1277   1.497   .     D
O1259  S1277   1.681   .     S
O1260  Zn919   2.027   1_565 S
S1261  O1365   1.495   .     S
S1261  O1367   1.670   .     S
S1272  O1369   1.496   .     S
S1272  C1290   1.838   .     S
S1272  O1371   1.671   .     S
S1278  O1372   1.495   1_455 S
S1278  O1374   1.669   1_455 S
S1279  C1292   1.836   1_455 S
S1279  O1375   1.497   1_455 S
S1279  O1377   1.669   1_455 S
Zn1285 O1434   2.030   1_455 S
Zn1285 O1379   2.032   1_455 S
Zn1286 O1401   2.036   1_455 S
Zn1286 O1368   2.027   1_455 S
C1289  C1318   1.475   .     S
C1289  O1357   1.333   .     A
C1289  O1390   1.307   .     A
C1290  N1353   1.394   .     A
C1290  C2027   1.471   .     S
C1291  S1462   1.839   .     S
C1291  N1354   1.397   .     S
C1292  C2064   1.473   .     S
C1292  N1169   1.398   1_655 S
C1292  S1279   1.836   1_655 S
C1293  S1464   1.846   .     S
C1293  N1356   1.397   .     S
C1294  N987    1.395   1_565 A
C1294  S1465   1.837   .     S
C1294  C2031   1.471   .     S
C1295  N988    1.398   1_565 A
C1295  S1466   1.843   .     S
C1296  S1467   1.837   .     S
C1296  C2029   1.472   .     S
C1296  N1355   1.397   .     S
C1297  S1468   1.787   .     S
C1297  C1308   1.398   .     A
C1297  C1316   1.432   .     A
C1298  C1315   1.415   .     A
C1298  S1446   1.776   .     S
C1298  C1309   1.389   .     A
C1299  C1306   1.386   .     A
C1299  S1447   1.757   .     S
C1299  C1315   1.397   .     A
C1300  C1317   1.461   .     S
C1300  O1379   1.322   .     A
C1300  O1368   1.309   .     A
C1301  C1316   1.432   .     A
C1301  S1448   1.771   .     S
C1301  C1307   1.385   .     A
C1302  C1318   1.397   .     A
C1302  S1449   1.758   .     S
C1302  C1313   1.387   .     A
C1303  S1450   1.779   .     S
C1303  C1317   1.389   .     A
C1303  C1314   1.398   .     A
C1304  S1451   1.758   .     S
C1304  C1317   1.379   .     A
C1304  C1310   1.382   .     A
C1305  C1318   1.414   .     A
C1305  C1312   1.387   .     A
C1305  S1452   1.774   .     S
C1306  C1320   1.413   .     A
C1306  S1453   1.773   .     S
C1307  C1319   1.382   .     A
C1307  S1454   1.761   .     S
C1308  S1455   1.775   .     S
C1308  C1319   1.388   .     A
C1309  S1457   1.758   .     S
C1309  C1320   1.400   .     A
C1310  C1323   1.433   .     A
C1310  S1458   1.778   .     S
C1311  O1434   1.324   .     A
C1311  O1401   1.320   .     A
C1311  C1316   1.478   .     S
C1312  S1459   1.758   .     S
C1312  C1321   1.399   .     A
C1313  S1460   1.774   .     S
C1313  C1321   1.413   .     A
C1314  S1461   1.794   .     S
C1314  C1323   1.437   .     A
C1315  C1322   1.477   .     S
C1319  C1327   1.463   .     S
C1320  C1326   1.478   .     S
C1321  C1325   1.475   .     S
C1322  O1412   1.306   .     A
C1322  O1423   1.334   .     A
C1323  C1324   1.477   .     S
C1324  O1444   1.325   .     A
C1324  O1360   1.320   .     A
C1325  O1358   1.332   .     A
C1325  O1359   1.307   .     A
C1326  O1364   1.332   .     A
C1326  O1361   1.309   .     A
C1327  O1362   1.320   .     A
C1327  O1363   1.312   .     A
C1328  N1170   1.398   1_655 A
C1328  S1445   1.851   .     S
H1329  O1183   0.991   1_655 S
H1330  O1397   0.990   .     S
H1331  O1400   0.990   .     S
H1332  O1404   0.989   .     S
H1333  O1407   0.991   .     S
H1334  O1410   0.990   .     S
H1335  O1414   0.991   .     S
H1336  O1417   0.990   .     S
H1337  O1420   0.990   .     S
H1338  O1424   0.991   .     S
H1339  O1427   0.990   .     S
H1340  O1187   0.991   1_655 S
H1341  O1430   0.990   .     S
H1342  O1433   0.991   .     S
H1343  O1437   0.990   .     S
H1344  O1440   0.990   .     S
H1345  O1443   0.991   .     S
H1348  O1381   0.991   .     S
H1349  O1384   0.991   .     S
H1350  O1387   0.990   .     S
H1351  O1391   0.991   .     S
H1352  O1394   0.990   .     S
N1353  Zn1469  2.069   .     S
N1354  Zn1470  2.069   .     S
N1355  Zn1471  2.069   .     S
N1356  Zn1472  2.069   .     S
O1357  Zn1469  2.027   .     S
O1358  Zn1472  2.027   .     S
O1359  Zn1471  2.032   .     S
O1360  Zn1104  2.032   1_565 S
O1361  Zn1104  2.036   1_565 S
O1362  Zn1471  2.036   .     S
O1363  Zn1472  2.030   .     S
O1364  Zn1103  2.030   1_565 S
O1366  S1445   1.496   .     D
O1368  Zn1286  2.027   1_655 S
O1370  S1456   1.494   .     D
O1372  S1278   1.495   1_655 S
O1373  S1462   1.495   .     D
O1374  H1162   0.991   1_655 S
O1374  S1278   1.669   1_655 S
O1375  S1279   1.497   1_655 S
O1376  S1463   1.495   .     D
O1377  H1163   0.991   1_655 S
O1377  S1279   1.669   1_655 S
O1378  S1464   1.497   .     D
O1379  Zn1285  2.032   1_655 S
O1380  S1464   1.496   .     D
O1381  S1464   1.670   .     S
O1382  S1465   1.493   .     D
O1383  S1465   1.496   .     D
O1384  S1465   1.671   .     S
O1385  S1466   1.495   .     D
O1386  S1466   1.495   .     D
O1387  S1466   1.669   .     S
O1388  S1467   1.495   .     D
O1389  S1467   1.493   .     D
O1390  Zn1470  2.032   .     S
O1391  S1467   1.669   .     S
O1392  S1468   1.497   .     D
O1393  S1468   1.496   .     D
O1394  S1468   1.682   .     S
O1395  S1446   1.499   .     D
O1396  S1446   1.503   .     D
O1397  S1446   1.670   .     S
O1398  S1447   1.497   .     D
O1399  S1447   1.503   .     D
O1400  S1447   1.678   .     S
O1401  Zn1286  2.036   1_655 S
O1402  S1448   1.499   .     D
O1403  S1448   1.503   .     D
O1404  S1448   1.665   .     S
O1405  S1449   1.497   .     D
O1406  S1449   1.503   .     D
O1407  S1449   1.677   .     S
O1408  S1450   1.500   .     D
O1409  S1450   1.502   .     D
O1410  S1450   1.680   .     S
O1411  S1451   1.495   .     D
O1412  Zn1469  2.036   .     S
O1413  S1451   1.503   .     D
O1414  S1451   1.674   .     S
O1415  S1452   1.499   .     D
O1416  S1452   1.503   .     D
O1417  S1452   1.670   .     S
O1418  S1453   1.500   .     D
O1419  S1453   1.496   .     D
O1420  S1453   1.682   .     S
O1421  S1454   1.503   .     D
O1422  S1454   1.496   .     D
O1423  Zn1470  2.030   .     S
O1424  S1454   1.674   .     S
O1425  S1455   1.501   .     D
O1426  S1455   1.501   .     D
O1427  S1455   1.678   .     S
O1428  S1457   1.503   .     D
O1429  S1457   1.497   .     D
O1430  S1457   1.677   .     S
O1431  S1458   1.499   .     D
O1432  S1458   1.496   .     D
O1433  S1458   1.682   .     S
O1434  Zn1285  2.030   1_655 S
O1435  S1459   1.503   .     D
O1436  S1459   1.496   .     D
O1437  S1459   1.677   .     S
O1438  S1460   1.499   .     D
O1439  S1460   1.495   .     D
O1440  S1460   1.682   .     S
O1441  S1461   1.497   .     D
O1442  S1461   1.497   .     D
O1443  S1461   1.681   .     S
O1444  Zn1103  2.027   1_565 S
S1445  O1181   1.495   1_655 S
S1445  O1183   1.670   1_655 S
S1456  O1185   1.496   1_655 S
S1456  C1106   1.838   1_655 S
S1456  O1187   1.671   1_655 S
C1473  C1502   1.475   .     S
C1473  O1541   1.333   .     A
C1473  O1574   1.307   .     A
C1474  N1537   1.394   .     A
C1474  C3      1.471   1_556 S
C1474  S1824   1.838   1_455 S
C1475  S1646   1.839   .     S
C1475  N1538   1.397   .     S
C1476  C40     1.473   1_556 S
C1476  N1721   1.398   .     S
C1476  S1831   1.836   .     S
C1477  S1648   1.846   .     S
C1477  N1540   1.397   .     S
C1478  N1907   1.395   .     A
C1478  S1649   1.837   .     S
C1478  C7      1.471   1_556 S
C1479  N1908   1.398   .     A
C1479  S1650   1.843   .     S
C1480  S1651   1.837   .     S
C1480  C5      1.472   1_556 S
C1480  N1539   1.397   .     S
C1481  S1652   1.787   .     S
C1481  C1492   1.398   .     A
C1481  C1500   1.432   .     A
C1482  C1499   1.415   .     A
C1482  S1630   1.776   .     S
C1482  C1493   1.389   .     A
C1483  C1490   1.386   .     A
C1483  S1631   1.757   .     S
C1483  C1499   1.397   .     A
C1484  C1501   1.461   .     S
C1484  O1563   1.322   .     A
C1484  O1552   1.309   .     A
C1485  C1500   1.432   .     A
C1485  S1632   1.771   .     S
C1485  C1491   1.385   .     A
C1486  C1502   1.397   .     A
C1486  S1633   1.758   .     S
C1486  C1497   1.387   .     A
C1487  S1634   1.779   .     S
C1487  C1501   1.389   .     A
C1487  C1498   1.398   .     A
C1488  S1635   1.758   .     S
C1488  C1501   1.379   .     A
C1488  C1494   1.382   .     A
C1489  C1502   1.414   .     A
C1489  C1496   1.387   .     A
C1489  S1636   1.774   .     S
C1490  C1504   1.413   .     A
C1490  S1637   1.773   .     S
C1491  C1503   1.382   .     A
C1491  S1638   1.761   .     S
C1492  S1639   1.775   .     S
C1492  C1503   1.388   .     A
C1493  S1641   1.758   .     S
C1493  C1504   1.400   .     A
C1494  C1507   1.433   .     A
C1494  S1642   1.778   .     S
C1495  O1618   1.324   .     A
C1495  O1585   1.320   .     A
C1495  C1500   1.478   .     S
C1496  S1643   1.758   .     S
C1496  C1505   1.399   .     A
C1497  S1644   1.774   .     S
C1497  C1505   1.413   .     A
C1498  S1645   1.794   .     S
C1498  C1507   1.437   .     A
C1499  C1506   1.477   .     S
C1503  C1511   1.463   .     S
C1504  C1510   1.478   .     S
C1505  C1509   1.475   .     S
C1506  O1596   1.306   .     A
C1506  O1607   1.334   .     A
C1507  C1508   1.477   .     S
C1508  O1628   1.325   .     A
C1508  O1544   1.320   .     A
C1509  O1542   1.332   .     A
C1509  O1543   1.307   .     A
C1510  O1548   1.332   .     A
C1510  O1545   1.309   .     A
C1511  O1546   1.320   .     A
C1511  O1547   1.312   .     A
C1512  N1722   1.398   .     A
C1512  S1629   1.851   .     S
H1513  O1735   0.991   .     S
H1514  O1581   0.990   .     S
H1515  O1584   0.990   .     S
H1516  O1588   0.989   .     S
H1517  O1591   0.991   .     S
H1518  O1594   0.990   .     S
H1519  O1598   0.991   .     S
H1520  O1601   0.990   .     S
H1521  O1604   0.990   .     S
H1522  O1608   0.991   .     S
H1523  O1611   0.990   .     S
H1524  O1739   0.991   .     S
H1525  O1614   0.990   .     S
H1526  O1617   0.991   .     S
H1527  O1621   0.990   .     S
H1528  O1624   0.990   .     S
H1529  O1627   0.991   .     S
H1530  O1742   0.991   1_455 S
H1531  O1745   0.991   1_455 S
H1532  O1565   0.991   .     S
H1533  O1568   0.991   .     S
H1534  O1571   0.990   .     S
H1535  O1575   0.991   .     S
H1536  O1578   0.990   .     S
N1537  C1660   1.398   1_455 S
N1537  Zn1653  2.069   .     S
N1538  C1696   1.398   1_455 A
N1538  Zn1654  2.069   .     S
N1539  Zn1655  2.069   .     S
N1539  C1846   1.395   1_545 A
N1540  C1847   1.398   1_545 A
N1540  Zn1656  2.069   .     S
O1541  Zn1653  2.027   .     S
O1542  Zn1656  2.027   .     S
O1543  Zn1655  2.032   .     S
O1544  Zn2024  2.032   .     S
O1545  Zn2024  2.036   .     S
O1546  Zn1655  2.036   .     S
O1547  Zn1656  2.030   .     S
O1548  Zn2023  2.030   .     S
O1549  S1813   1.495   1_455 S
O1550  S1629   1.496   .     D
O1551  H1697   0.991   1_455 S
O1551  S1813   1.670   1_455 S
O1552  Zn1838  2.027   .     S
O1553  S1824   1.496   1_455 S
O1554  S1640   1.494   .     D
O1555  H1708   0.991   1_455 S
O1555  S1824   1.671   1_455 S
O1556  S1830   1.495   .     S
O1557  S1646   1.495   .     D
O1558  H1714   0.991   .     S
O1558  S1830   1.669   .     S
O1559  S1831   1.497   .     S
O1560  S1647   1.495   .     D
O1561  H1715   0.991   .     S
O1561  S1831   1.669   .     S
O1562  S1648   1.497   .     D
O1563  Zn1837  2.032   .     S
O1564  S1648   1.496   .     D
O1565  S1648   1.670   .     S
O1566  S1649   1.493   .     D
O1567  S1649   1.496   .     D
O1568  S1649   1.671   .     S
O1569  S1650   1.495   .     D
O1570  S1650   1.495   .     D
O1571  S1650   1.669   .     S
O1572  S1651   1.495   .     D
O1573  S1651   1.493   .     D
O1574  Zn1654  2.032   .     S
O1575  S1651   1.669   .     S
O1576  S1652   1.497   .     D
O1577  S1652   1.496   .     D
O1578  S1652   1.682   .     S
O1579  S1630   1.499   .     D
O1580  S1630   1.503   .     D
O1581  S1630   1.670   .     S
O1582  S1631   1.497   .     D
O1583  S1631   1.503   .     D
O1584  S1631   1.678   .     S
O1585  Zn1838  2.036   .     S
O1586  S1632   1.499   .     D
O1587  S1632   1.503   .     D
O1588  S1632   1.665   .     S
O1589  S1633   1.497   .     D
O1590  S1633   1.503   .     D
O1591  S1633   1.677   .     S
O1592  S1634   1.500   .     D
O1593  S1634   1.502   .     D
O1594  S1634   1.680   .     S
O1595  S1635   1.495   .     D
O1596  Zn1653  2.036   .     S
O1597  S1635   1.503   .     D
O1598  S1635   1.674   .     S
O1599  S1636   1.499   .     D
O1600  S1636   1.503   .     D
O1601  S1636   1.670   .     S
O1602  S1637   1.500   .     D
O1603  S1637   1.496   .     D
O1604  S1637   1.682   .     S
O1605  S1638   1.503   .     D
O1606  S1638   1.496   .     D
O1607  Zn1654  2.030   .     S
O1608  S1638   1.674   .     S
O1609  S1639   1.501   .     D
O1610  S1639   1.501   .     D
O1611  S1639   1.678   .     S
O1612  S1641   1.503   .     D
O1613  S1641   1.497   .     D
O1614  S1641   1.677   .     S
O1615  S1642   1.499   .     D
O1616  S1642   1.496   .     D
O1617  S1642   1.682   .     S
O1618  Zn1837  2.030   .     S
O1619  S1643   1.503   .     D
O1620  S1643   1.496   .     D
O1621  S1643   1.677   .     S
O1622  S1644   1.499   .     D
O1623  S1644   1.495   .     D
O1624  S1644   1.682   .     S
O1625  S1645   1.497   .     D
O1626  S1645   1.497   .     D
O1627  S1645   1.681   .     S
O1628  Zn2023  2.027   .     S
S1629  O1733   1.495   .     S
S1629  O1735   1.670   .     S
S1640  O1737   1.496   .     S
S1640  C1658   1.838   .     S
S1640  O1739   1.671   .     S
S1646  O1740   1.495   1_455 S
S1646  O1742   1.669   1_455 S
S1647  C1660   1.836   1_455 S
S1647  O1743   1.497   1_455 S
S1647  O1745   1.669   1_455 S
Zn1653 O1802   2.030   1_455 S
Zn1653 O1747   2.032   1_455 S
Zn1654 O1769   2.036   1_455 S
Zn1654 O1736   2.027   1_455 S
Zn1655 O1916   2.030   1_545 S
Zn1655 O1996   2.027   1_545 S
Zn1656 O1912   2.032   1_545 S
Zn1656 O1913   2.036   1_545 S
C1657  C1686   1.475   .     S
C1657  O1725   1.333   .     A
C1657  O1758   1.307   .     A
C1658  N1721   1.394   .     A
C1658  C187    1.471   1_556 S
C1659  S1830   1.839   .     S
C1659  N1722   1.397   .     S
C1660  C224    1.473   1_556 S
C1660  N1537   1.398   1_655 S
C1660  S1647   1.836   1_655 S
C1661  S1832   1.846   .     S
C1661  N1724   1.397   .     S
C1662  N2091   1.395   .     A
C1662  S1833   1.837   .     S
C1662  C191    1.471   1_556 S
C1663  N2092   1.398   .     A
C1663  S1834   1.843   .     S
C1664  S1835   1.837   .     S
C1664  C189    1.472   1_556 S
C1664  N1723   1.397   .     S
C1665  S1836   1.787   .     S
C1665  C1676   1.398   .     A
C1665  C1684   1.432   .     A
C1666  C1683   1.415   .     A
C1666  S1814   1.776   .     S
C1666  C1677   1.389   .     A
C1667  C1674   1.386   .     A
C1667  S1815   1.757   .     S
C1667  C1683   1.397   .     A
C1668  C1685   1.461   .     S
C1668  O1747   1.322   .     A
C1668  O1736   1.309   .     A
C1669  C1684   1.432   .     A
C1669  S1816   1.771   .     S
C1669  C1675   1.385   .     A
C1670  C1686   1.397   .     A
C1670  S1817   1.758   .     S
C1670  C1681   1.387   .     A
C1671  S1818   1.779   .     S
C1671  C1685   1.389   .     A
C1671  C1682   1.398   .     A
C1672  S1819   1.758   .     S
C1672  C1685   1.379   .     A
C1672  C1678   1.382   .     A
C1673  C1686   1.414   .     A
C1673  C1680   1.387   .     A
C1673  S1820   1.774   .     S
C1674  C1688   1.413   .     A
C1674  S1821   1.773   .     S
C1675  C1687   1.382   .     A
C1675  S1822   1.761   .     S
C1676  S1823   1.775   .     S
C1676  C1687   1.388   .     A
C1677  S1825   1.758   .     S
C1677  C1688   1.400   .     A
C1678  C1691   1.433   .     A
C1678  S1826   1.778   .     S
C1679  O1802   1.324   .     A
C1679  O1769   1.320   .     A
C1679  C1684   1.478   .     S
C1680  S1827   1.758   .     S
C1680  C1689   1.399   .     A
C1681  S1828   1.774   .     S
C1681  C1689   1.413   .     A
C1682  S1829   1.794   .     S
C1682  C1691   1.437   .     A
C1683  C1690   1.477   .     S
C1687  C1695   1.463   .     S
C1688  C1694   1.478   .     S
C1689  C1693   1.475   .     S
C1690  O1780   1.306   .     A
C1690  O1791   1.334   .     A
C1691  C1692   1.477   .     S
C1692  O1812   1.325   .     A
C1692  O1728   1.320   .     A
C1693  O1726   1.332   .     A
C1693  O1727   1.307   .     A
C1694  O1732   1.332   .     A
C1694  O1729   1.309   .     A
C1695  O1730   1.320   .     A
C1695  O1731   1.312   .     A
C1696  N1538   1.398   1_655 A
C1696  S1813   1.851   .     S
H1697  O1551   0.991   1_655 S
H1698  O1765   0.990   .     S
H1699  O1768   0.990   .     S
H1700  O1772   0.989   .     S
H1701  O1775   0.991   .     S
H1702  O1778   0.990   .     S
H1703  O1782   0.991   .     S
H1704  O1785   0.990   .     S
H1705  O1788   0.990   .     S
H1706  O1792   0.991   .     S
H1707  O1795   0.990   .     S
H1708  O1555   0.991   1_655 S
H1709  O1798   0.990   .     S
H1710  O1801   0.991   .     S
H1711  O1805   0.990   .     S
H1712  O1808   0.990   .     S
H1713  O1811   0.991   .     S
H1716  O1749   0.991   .     S
H1717  O1752   0.991   .     S
H1718  O1755   0.990   .     S
H1719  O1759   0.991   .     S
H1720  O1762   0.990   .     S
N1721  Zn1837  2.069   .     S
N1722  Zn1838  2.069   .     S
N1723  Zn1839  2.069   .     S
N1723  C2030   1.395   1_545 A
N1724  C2031   1.398   1_545 A
N1724  Zn1840  2.069   .     S
O1725  Zn1837  2.027   .     S
O1726  Zn1840  2.027   .     S
O1727  Zn1839  2.032   .     S
O1728  Zn2208  2.032   .     S
O1729  Zn2208  2.036   .     S
O1730  Zn1839  2.036   .     S
O1731  Zn1840  2.030   .     S
O1732  Zn2207  2.030   .     S
O1734  S1813   1.496   .     D
O1736  Zn1654  2.027   1_655 S
O1738  S1824   1.494   .     D
O1740  S1646   1.495   1_655 S
O1741  S1830   1.495   .     D
O1742  H1530   0.991   1_655 S
O1742  S1646   1.669   1_655 S
O1743  S1647   1.497   1_655 S
O1744  S1831   1.495   .     D
O1745  H1531   0.991   1_655 S
O1745  S1647   1.669   1_655 S
O1746  S1832   1.497   .     D
O1747  Zn1653  2.032   1_655 S
O1748  S1832   1.496   .     D
O1749  S1832   1.670   .     S
O1750  S1833   1.493   .     D
O1751  S1833   1.496   .     D
O1752  S1833   1.671   .     S
O1753  S1834   1.495   .     D
O1754  S1834   1.495   .     D
O1755  S1834   1.669   .     S
O1756  S1835   1.495   .     D
O1757  S1835   1.493   .     D
O1758  Zn1838  2.032   .     S
O1759  S1835   1.669   .     S
O1760  S1836   1.497   .     D
O1761  S1836   1.496   .     D
O1762  S1836   1.682   .     S
O1763  S1814   1.499   .     D
O1764  S1814   1.503   .     D
O1765  S1814   1.670   .     S
O1766  S1815   1.497   .     D
O1767  S1815   1.503   .     D
O1768  S1815   1.678   .     S
O1769  Zn1654  2.036   1_655 S
O1770  S1816   1.499   .     D
O1771  S1816   1.503   .     D
O1772  S1816   1.665   .     S
O1773  S1817   1.497   .     D
O1774  S1817   1.503   .     D
O1775  S1817   1.677   .     S
O1776  S1818   1.500   .     D
O1777  S1818   1.502   .     D
O1778  S1818   1.680   .     S
O1779  S1819   1.495   .     D
O1780  Zn1837  2.036   .     S
O1781  S1819   1.503   .     D
O1782  S1819   1.674   .     S
O1783  S1820   1.499   .     D
O1784  S1820   1.503   .     D
O1785  S1820   1.670   .     S
O1786  S1821   1.500   .     D
O1787  S1821   1.496   .     D
O1788  S1821   1.682   .     S
O1789  S1822   1.503   .     D
O1790  S1822   1.496   .     D
O1791  Zn1838  2.030   .     S
O1792  S1822   1.674   .     S
O1793  S1823   1.501   .     D
O1794  S1823   1.501   .     D
O1795  S1823   1.678   .     S
O1796  S1825   1.503   .     D
O1797  S1825   1.497   .     D
O1798  S1825   1.677   .     S
O1799  S1826   1.499   .     D
O1800  S1826   1.496   .     D
O1801  S1826   1.682   .     S
O1802  Zn1653  2.030   1_655 S
O1803  S1827   1.503   .     D
O1804  S1827   1.496   .     D
O1805  S1827   1.677   .     S
O1806  S1828   1.499   .     D
O1807  S1828   1.495   .     D
O1808  S1828   1.682   .     S
O1809  S1829   1.497   .     D
O1810  S1829   1.497   .     D
O1811  S1829   1.681   .     S
O1812  Zn2207  2.027   .     S
S1813  O1549   1.495   1_655 S
S1813  O1551   1.670   1_655 S
S1824  O1553   1.496   1_655 S
S1824  C1474   1.838   1_655 S
S1824  O1555   1.671   1_655 S
Zn1839 O2100   2.030   1_545 S
Zn1839 O2180   2.027   1_545 S
Zn1840 O2096   2.032   1_545 S
Zn1840 O2097   2.036   1_545 S
C1841  C1870   1.475   .     S
C1841  O1909   1.333   .     A
C1841  O1942   1.307   .     A
C1842  N1905   1.394   .     A
C1842  C371    1.471   1_556 S
C1842  S2192   1.838   1_455 S
C1843  S2014   1.839   .     S
C1843  N1906   1.397   .     S
C1844  C408    1.473   1_556 S
C1844  N2089   1.398   .     S
C1844  S2199   1.836   .     S
C1845  S2016   1.846   .     S
C1845  N1908   1.397   .     S
C1846  N1539   1.395   1_565 A
C1846  S2017   1.837   .     S
C1846  C375    1.471   1_556 S
C1847  N1540   1.398   1_565 A
C1847  S2018   1.843   .     S
C1848  S2019   1.837   .     S
C1848  C373    1.472   1_556 S
C1848  N1907   1.397   .     S
C1849  S2020   1.787   .     S
C1849  C1860   1.398   .     A
C1849  C1868   1.432   .     A
C1850  C1867   1.415   .     A
C1850  S1998   1.776   .     S
C1850  C1861   1.389   .     A
C1851  C1858   1.386   .     A
C1851  S1999   1.757   .     S
C1851  C1867   1.397   .     A
C1852  C1869   1.461   .     S
C1852  O1931   1.322   .     A
C1852  O1920   1.309   .     A
C1853  C1868   1.432   .     A
C1853  S2000   1.771   .     S
C1853  C1859   1.385   .     A
C1854  C1870   1.397   .     A
C1854  S2001   1.758   .     S
C1854  C1865   1.387   .     A
C1855  S2002   1.779   .     S
C1855  C1869   1.389   .     A
C1855  C1866   1.398   .     A
C1856  S2003   1.758   .     S
C1856  C1869   1.379   .     A
C1856  C1862   1.382   .     A
C1857  C1870   1.414   .     A
C1857  C1864   1.387   .     A
C1857  S2004   1.774   .     S
C1858  C1872   1.413   .     A
C1858  S2005   1.773   .     S
C1859  C1871   1.382   .     A
C1859  S2006   1.761   .     S
C1860  S2007   1.775   .     S
C1860  C1871   1.388   .     A
C1861  S2009   1.758   .     S
C1861  C1872   1.400   .     A
C1862  C1875   1.433   .     A
C1862  S2010   1.778   .     S
C1863  O1986   1.324   .     A
C1863  O1953   1.320   .     A
C1863  C1868   1.478   .     S
C1864  S2011   1.758   .     S
C1864  C1873   1.399   .     A
C1865  S2012   1.774   .     S
C1865  C1873   1.413   .     A
C1866  S2013   1.794   .     S
C1866  C1875   1.437   .     A
C1867  C1874   1.477   .     S
C1871  C1879   1.463   .     S
C1872  C1878   1.478   .     S
C1873  C1877   1.475   .     S
C1874  O1964   1.306   .     A
C1874  O1975   1.334   .     A
C1875  C1876   1.477   .     S
C1876  O1996   1.325   .     A
C1876  O1912   1.320   .     A
C1877  O1910   1.332   .     A
C1877  O1911   1.307   .     A
C1878  O1916   1.332   .     A
C1878  O1913   1.309   .     A
C1879  O1914   1.320   .     A
C1879  O1915   1.312   .     A
C1880  N2090   1.398   .     A
C1880  S1997   1.851   .     S
H1881  O2103   0.991   .     S
H1882  O1949   0.990   .     S
H1883  O1952   0.990   .     S
H1884  O1956   0.989   .     S
H1885  O1959   0.991   .     S
H1886  O1962   0.990   .     S
H1887  O1966   0.991   .     S
H1888  O1969   0.990   .     S
H1889  O1972   0.990   .     S
H1890  O1976   0.991   .     S
H1891  O1979   0.990   .     S
H1892  O2107   0.991   .     S
H1893  O1982   0.990   .     S
H1894  O1985   0.991   .     S
H1895  O1989   0.990   .     S
H1896  O1992   0.990   .     S
H1897  O1995   0.991   .     S
H1898  O2110   0.991   1_455 S
H1899  O2113   0.991   1_455 S
H1900  O1933   0.991   .     S
H1901  O1936   0.991   .     S
H1902  O1939   0.990   .     S
H1903  O1943   0.991   .     S
H1904  O1946   0.990   .     S
N1905  C2028   1.398   1_455 S
N1905  Zn2021  2.069   .     S
N1906  C2064   1.398   1_455 A
N1906  Zn2022  2.069   .     S
N1907  Zn2023  2.069   .     S
N1908  Zn2024  2.069   .     S
O1909  Zn2021  2.027   .     S
O1910  Zn2024  2.027   .     S
O1911  Zn2023  2.032   .     S
O1912  Zn1656  2.032   1_565 S
O1913  Zn1656  2.036   1_565 S
O1914  Zn2023  2.036   .     S
O1915  Zn2024  2.030   .     S
O1916  Zn1655  2.030   1_565 S
O1917  S2181   1.495   1_455 S
O1918  S1997   1.496   .     D
O1919  H2065   0.991   1_455 S
O1919  S2181   1.670   1_455 S
O1920  Zn2206  2.027   .     S
O1921  S2192   1.496   1_455 S
O1922  S2008   1.494   .     D
O1923  H2076   0.991   1_455 S
O1923  S2192   1.671   1_455 S
O1924  S2198   1.495   .     S
O1925  S2014   1.495   .     D
O1926  H2082   0.991   .     S
O1926  S2198   1.669   .     S
O1927  S2199   1.497   .     S
O1928  S2015   1.495   .     D
O1929  H2083   0.991   .     S
O1929  S2199   1.669   .     S
O1930  S2016   1.497   .     D
O1931  Zn2205  2.032   .     S
O1932  S2016   1.496   .     D
O1933  S2016   1.670   .     S
O1934  S2017   1.493   .     D
O1935  S2017   1.496   .     D
O1936  S2017   1.671   .     S
O1937  S2018   1.495   .     D
O1938  S2018   1.495   .     D
O1939  S2018   1.669   .     S
O1940  S2019   1.495   .     D
O1941  S2019   1.493   .     D
O1942  Zn2022  2.032   .     S
O1943  S2019   1.669   .     S
O1944  S2020   1.497   .     D
O1945  S2020   1.496   .     D
O1946  S2020   1.682   .     S
O1947  S1998   1.499   .     D
O1948  S1998   1.503   .     D
O1949  S1998   1.670   .     S
O1950  S1999   1.497   .     D
O1951  S1999   1.503   .     D
O1952  S1999   1.678   .     S
O1953  Zn2206  2.036   .     S
O1954  S2000   1.499   .     D
O1955  S2000   1.503   .     D
O1956  S2000   1.665   .     S
O1957  S2001   1.497   .     D
O1958  S2001   1.503   .     D
O1959  S2001   1.677   .     S
O1960  S2002   1.500   .     D
O1961  S2002   1.502   .     D
O1962  S2002   1.680   .     S
O1963  S2003   1.495   .     D
O1964  Zn2021  2.036   .     S
O1965  S2003   1.503   .     D
O1966  S2003   1.674   .     S
O1967  S2004   1.499   .     D
O1968  S2004   1.503   .     D
O1969  S2004   1.670   .     S
O1970  S2005   1.500   .     D
O1971  S2005   1.496   .     D
O1972  S2005   1.682   .     S
O1973  S2006   1.503   .     D
O1974  S2006   1.496   .     D
O1975  Zn2022  2.030   .     S
O1976  S2006   1.674   .     S
O1977  S2007   1.501   .     D
O1978  S2007   1.501   .     D
O1979  S2007   1.678   .     S
O1980  S2009   1.503   .     D
O1981  S2009   1.497   .     D
O1982  S2009   1.677   .     S
O1983  S2010   1.499   .     D
O1984  S2010   1.496   .     D
O1985  S2010   1.682   .     S
O1986  Zn2205  2.030   .     S
O1987  S2011   1.503   .     D
O1988  S2011   1.496   .     D
O1989  S2011   1.677   .     S
O1990  S2012   1.499   .     D
O1991  S2012   1.495   .     D
O1992  S2012   1.682   .     S
O1993  S2013   1.497   .     D
O1994  S2013   1.497   .     D
O1995  S2013   1.681   .     S
O1996  Zn1655  2.027   1_565 S
S1997  O2101   1.495   .     S
S1997  O2103   1.670   .     S
S2008  O2105   1.496   .     S
S2008  C2026   1.838   .     S
S2008  O2107   1.671   .     S
S2014  O2108   1.495   1_455 S
S2014  O2110   1.669   1_455 S
S2015  C2028   1.836   1_455 S
S2015  O2111   1.497   1_455 S
S2015  O2113   1.669   1_455 S
Zn2021 O2170   2.030   1_455 S
Zn2021 O2115   2.032   1_455 S
Zn2022 O2137   2.036   1_455 S
Zn2022 O2104   2.027   1_455 S
C2025  C2054   1.475   .     S
C2025  O2093   1.333   .     A
C2025  O2126   1.307   .     A
C2026  N2089   1.394   .     A
C2026  C555    1.471   1_556 S
C2027  S2198   1.839   .     S
C2027  N2090   1.397   .     S
C2028  C592    1.473   1_556 S
C2028  N1905   1.398   1_655 S
C2028  S2015   1.836   1_655 S
C2029  S2200   1.846   .     S
C2029  N2092   1.397   .     S
C2030  N1723   1.395   1_565 A
C2030  S2201   1.837   .     S
C2030  C559    1.471   1_556 S
C2031  N1724   1.398   1_565 A
C2031  S2202   1.843   .     S
C2032  S2203   1.837   .     S
C2032  C557    1.472   1_556 S
C2032  N2091   1.397   .     S
C2033  S2204   1.787   .     S
C2033  C2044   1.398   .     A
C2033  C2052   1.432   .     A
C2034  C2051   1.415   .     A
C2034  S2182   1.776   .     S
C2034  C2045   1.389   .     A
C2035  C2042   1.386   .     A
C2035  S2183   1.757   .     S
C2035  C2051   1.397   .     A
C2036  C2053   1.461   .     S
C2036  O2115   1.322   .     A
C2036  O2104   1.309   .     A
C2037  C2052   1.432   .     A
C2037  S2184   1.771   .     S
C2037  C2043   1.385   .     A
C2038  C2054   1.397   .     A
C2038  S2185   1.758   .     S
C2038  C2049   1.387   .     A
C2039  S2186   1.779   .     S
C2039  C2053   1.389   .     A
C2039  C2050   1.398   .     A
C2040  S2187   1.758   .     S
C2040  C2053   1.379   .     A
C2040  C2046   1.382   .     A
C2041  C2054   1.414   .     A
C2041  C2048   1.387   .     A
C2041  S2188   1.774   .     S
C2042  C2056   1.413   .     A
C2042  S2189   1.773   .     S
C2043  C2055   1.382   .     A
C2043  S2190   1.761   .     S
C2044  S2191   1.775   .     S
C2044  C2055   1.388   .     A
C2045  S2193   1.758   .     S
C2045  C2056   1.400   .     A
C2046  C2059   1.433   .     A
C2046  S2194   1.778   .     S
C2047  O2170   1.324   .     A
C2047  O2137   1.320   .     A
C2047  C2052   1.478   .     S
C2048  S2195   1.758   .     S
C2048  C2057   1.399   .     A
C2049  S2196   1.774   .     S
C2049  C2057   1.413   .     A
C2050  S2197   1.794   .     S
C2050  C2059   1.437   .     A
C2051  C2058   1.477   .     S
C2055  C2063   1.463   .     S
C2056  C2062   1.478   .     S
C2057  C2061   1.475   .     S
C2058  O2148   1.306   .     A
C2058  O2159   1.334   .     A
C2059  C2060   1.477   .     S
C2060  O2180   1.325   .     A
C2060  O2096   1.320   .     A
C2061  O2094   1.332   .     A
C2061  O2095   1.307   .     A
C2062  O2100   1.332   .     A
C2062  O2097   1.309   .     A
C2063  O2098   1.320   .     A
C2063  O2099   1.312   .     A
C2064  N1906   1.398   1_655 A
C2064  S2181   1.851   .     S
H2065  O1919   0.991   1_655 S
H2066  O2133   0.990   .     S
H2067  O2136   0.990   .     S
H2068  O2140   0.989   .     S
H2069  O2143   0.991   .     S
H2070  O2146   0.990   .     S
H2071  O2150   0.991   .     S
H2072  O2153   0.990   .     S
H2073  O2156   0.990   .     S
H2074  O2160   0.991   .     S
H2075  O2163   0.990   .     S
H2076  O1923   0.991   1_655 S
H2077  O2166   0.990   .     S
H2078  O2169   0.991   .     S
H2079  O2173   0.990   .     S
H2080  O2176   0.990   .     S
H2081  O2179   0.991   .     S
H2084  O2117   0.991   .     S
H2085  O2120   0.991   .     S
H2086  O2123   0.990   .     S
H2087  O2127   0.991   .     S
H2088  O2130   0.990   .     S
N2089  Zn2205  2.069   .     S
N2090  Zn2206  2.069   .     S
N2091  Zn2207  2.069   .     S
N2092  Zn2208  2.069   .     S
O2093  Zn2205  2.027   .     S
O2094  Zn2208  2.027   .     S
O2095  Zn2207  2.032   .     S
O2096  Zn1840  2.032   1_565 S
O2097  Zn1840  2.036   1_565 S
O2098  Zn2207  2.036   .     S
O2099  Zn2208  2.030   .     S
O2100  Zn1839  2.030   1_565 S
O2102  S2181   1.496   .     D
O2104  Zn2022  2.027   1_655 S
O2106  S2192   1.494   .     D
O2108  S2014   1.495   1_655 S
O2109  S2198   1.495   .     D
O2110  H1898   0.991   1_655 S
O2110  S2014   1.669   1_655 S
O2111  S2015   1.497   1_655 S
O2112  S2199   1.495   .     D
O2113  H1899   0.991   1_655 S
O2113  S2015   1.669   1_655 S
O2114  S2200   1.497   .     D
O2115  Zn2021  2.032   1_655 S
O2116  S2200   1.496   .     D
O2117  S2200   1.670   .     S
O2118  S2201   1.493   .     D
O2119  S2201   1.496   .     D
O2120  S2201   1.671   .     S
O2121  S2202   1.495   .     D
O2122  S2202   1.495   .     D
O2123  S2202   1.669   .     S
O2124  S2203   1.495   .     D
O2125  S2203   1.493   .     D
O2126  Zn2206  2.032   .     S
O2127  S2203   1.669   .     S
O2128  S2204   1.497   .     D
O2129  S2204   1.496   .     D
O2130  S2204   1.682   .     S
O2131  S2182   1.499   .     D
O2132  S2182   1.503   .     D
O2133  S2182   1.670   .     S
O2134  S2183   1.497   .     D
O2135  S2183   1.503   .     D
O2136  S2183   1.678   .     S
O2137  Zn2022  2.036   1_655 S
O2138  S2184   1.499   .     D
O2139  S2184   1.503   .     D
O2140  S2184   1.665   .     S
O2141  S2185   1.497   .     D
O2142  S2185   1.503   .     D
O2143  S2185   1.677   .     S
O2144  S2186   1.500   .     D
O2145  S2186   1.502   .     D
O2146  S2186   1.680   .     S
O2147  S2187   1.495   .     D
O2148  Zn2205  2.036   .     S
O2149  S2187   1.503   .     D
O2150  S2187   1.674   .     S
O2151  S2188   1.499   .     D
O2152  S2188   1.503   .     D
O2153  S2188   1.670   .     S
O2154  S2189   1.500   .     D
O2155  S2189   1.496   .     D
O2156  S2189   1.682   .     S
O2157  S2190   1.503   .     D
O2158  S2190   1.496   .     D
O2159  Zn2206  2.030   .     S
O2160  S2190   1.674   .     S
O2161  S2191   1.501   .     D
O2162  S2191   1.501   .     D
O2163  S2191   1.678   .     S
O2164  S2193   1.503   .     D
O2165  S2193   1.497   .     D
O2166  S2193   1.677   .     S
O2167  S2194   1.499   .     D
O2168  S2194   1.496   .     D
O2169  S2194   1.682   .     S
O2170  Zn2021  2.030   1_655 S
O2171  S2195   1.503   .     D
O2172  S2195   1.496   .     D
O2173  S2195   1.677   .     S
O2174  S2196   1.499   .     D
O2175  S2196   1.495   .     D
O2176  S2196   1.682   .     S
O2177  S2197   1.497   .     D
O2178  S2197   1.497   .     D
O2179  S2197   1.681   .     S
O2180  Zn1839  2.027   1_565 S
S2181  O1917   1.495   1_655 S
S2181  O1919   1.670   1_655 S
S2192  O1921   1.496   1_655 S
S2192  C1842   1.838   1_655 S
S2192  O1923   1.671   1_655 S
