data_str_m3_o1_o18_pcu_sym.28
_audit_creation_date              2020-01-03
_audit_creation_method            'Materials Studio'
_symmetry_space_group_name_H-M    'P1'
_symmetry_Int_Tables_number       1
_symmetry_cell_setting            triclinic
loop_
_symmetry_equiv_pos_as_xyz
  x,y,z
_cell_length_a                    30.1430
_cell_length_b                    31.7213
_cell_length_c                    31.3831
_cell_angle_alpha                 90.2097
_cell_angle_beta                  71.0918
_cell_angle_gamma                 87.6428
loop_
_atom_site_label
_atom_site_type_symbol
_atom_site_fract_x
_atom_site_fract_y
_atom_site_fract_z
_atom_site_U_iso_or_equiv
_atom_site_adp_type
_atom_site_occupancy
Br1    Br    0.04469   0.10199   0.03273   0.00000  Uiso   1.00
Br2    Br    0.15300   0.28584   0.16126   0.00000  Uiso   1.00
Br3    Br    0.26410   0.28677   0.48218   0.00000  Uiso   1.00
Br4    Br    0.10110   0.19504   0.13159   0.00000  Uiso   1.00
Br5    Br    0.20186   0.22479   0.37441   0.00000  Uiso   1.00
Br6    Br    0.30638   0.18462   0.10596   0.00000  Uiso   1.00
Br7    Br    0.04161   0.11989   0.38582   0.00000  Uiso   1.00
Br8    Br    0.02569   0.22203   0.45547   0.00000  Uiso   1.00
Br9    Br    0.28521   0.14890   0.00489   0.00000  Uiso   1.00
Br10   Br    0.18220   0.04851   0.33841   0.00000  Uiso   1.00
C11    C     0.16606   0.24641   0.24971   0.00000  Uiso   1.00
C12    C     0.15937   0.31281   0.21354   0.00000  Uiso   1.00
C13    C     0.16846   0.04281   0.25045   0.00000  Uiso   1.00
C14    C     0.16478   0.29072   0.25013   0.00000  Uiso   1.00
C15    C     0.31880   0.13397   0.23020   0.00000  Uiso   1.00
C16    C     0.01463   0.19954   0.26953   0.00000  Uiso   1.00
C17    C     0.03247   0.13443   0.23086   0.00000  Uiso   1.00
C18    C     0.30097   0.19904   0.26880   0.00000  Uiso   1.00
C19    C     0.13785   0.16789   0.33684   0.00000  Uiso   1.00
C20    C     0.19466   0.17003   0.16319   0.00000  Uiso   1.00
C21    C     0.12098   0.17290   0.38552   0.00000  Uiso   1.00
C22    C     0.16718   0.08700   0.25061   0.00000  Uiso   1.00
C23    C     0.20558   0.18089   0.11539   0.00000  Uiso   1.00
C24    C     0.05805   0.16871   0.45420   0.00000  Uiso   1.00
C25    C     0.25912   0.19782   0.04185   0.00000  Uiso   1.00
C26    C     0.07765   0.15607   0.41003   0.00000  Uiso   1.00
C27    C     0.25182   0.18820   0.08699   0.00000  Uiso   1.00
C28    C     0.14576   0.19659   0.40879   0.00000  Uiso   1.00
C29    C     0.16789   0.18517   0.09677   0.00000  Uiso   1.00
C30    C     0.13036   0.19472   0.45686   0.00000  Uiso   1.00
C31    C     0.17866   0.19440   0.05134   0.00000  Uiso   1.00
C32    C     0.08974   0.17183   0.47718   0.00000  Uiso   1.00
C33    C     0.11697   0.15410   0.03851   0.00000  Uiso   1.00
C34    C     0.22073   0.21331   0.03046   0.00000  Uiso   1.00
C35    C     0.15653   0.20697   0.48459   0.00000  Uiso   1.00
C36    C     0.14923   0.18623   0.02604   0.00000  Uiso   1.00
C37    C     0.18910   0.23904   0.47386   0.00000  Uiso   1.00
C38    C     0.08585   0.14798   0.01539   0.00000  Uiso   1.00
C39    C     0.22351   0.24041   0.49464   0.00000  Uiso   1.00
C40    C     0.17237   0.31096   0.28653   0.00000  Uiso   1.00
C41    C     0.16089   0.02263   0.21411   0.00000  Uiso   1.00
C42    C     0.17421   0.02085   0.28696   0.00000  Uiso   1.00
H43    H     0.11605   0.13338   0.06609   0.00000  Uiso   1.00
H44    H     0.18754   0.26346   0.45054   0.00000  Uiso   1.00
H45    H     0.17666   0.29313   0.31443   0.00000  Uiso   1.00
H46    H     0.15661   0.04049   0.18618   0.00000  Uiso   1.00
H47    H     0.05739   0.10875   0.21591   0.00000  Uiso   1.00
H48    H     0.27629   0.22508   0.28295   0.00000  Uiso   1.00
H49    H     0.03177   0.04212   0.18980   0.00000  Uiso   1.00
H50    H     0.06672   0.26463   0.33724   0.00000  Uiso   1.00
N51    N     0.04759   0.16668   0.25001   0.00000  Uiso   1.00
N52    N     0.28574   0.16666   0.24999   0.00000  Uiso   1.00
O53    O     0.12846   0.22775   0.25001   0.00000  Uiso   1.00
O54    O     0.27718   0.09814   0.17458   0.00000  Uiso   1.00
O55    O     0.02366   0.06418   0.17096   0.00000  Uiso   1.00
O56    O     0.31555   0.26883   0.32196   0.00000  Uiso   1.00
O57    O     0.05273   0.27497   0.25741   0.00000  Uiso   1.00
O58    O     0.05880   0.23649   0.32877   0.00000  Uiso   1.00
O59    O     0.20488   0.10558   0.24999   0.00000  Uiso   1.00
O60    O     0.20490   0.22774   0.25000   0.00000  Uiso   1.00
O61    O     0.12843   0.10559   0.25000   0.00000  Uiso   1.00
O62    O     0.10661   0.16667   0.31613   0.00000  Uiso   1.00
O63    O     0.22672   0.16666   0.18388   0.00000  Uiso   1.00
O64    O     0.18305   0.16666   0.31612   0.00000  Uiso   1.00
O65    O     0.15028   0.16667   0.18388   0.00000  Uiso   1.00
O66    O     0.28186   0.05787   0.23963   0.00000  Uiso   1.00
S67    S     0.30658   0.08818   0.20395   0.00000  Uiso   1.00
S68    S     0.02723   0.24617   0.29436   0.00000  Uiso   1.00
Zn69   Zn    0.11562   0.16667   0.25000   0.00000  Uiso   1.00
Zn70   Zn    0.21771   0.16666   0.25000   0.00000  Uiso   1.00
Br71   Br    0.37802   0.10199   0.03273   0.00000  Uiso   1.00
Br72   Br    0.48633   0.28584   0.16126   0.00000  Uiso   1.00
Br73   Br    0.59743   0.28677   0.48218   0.00000  Uiso   1.00
Br74   Br    0.43444   0.19504   0.13159   0.00000  Uiso   1.00
Br75   Br    0.53520   0.22479   0.37441   0.00000  Uiso   1.00
Br76   Br    0.63971   0.18462   0.10596   0.00000  Uiso   1.00
Br77   Br    0.37495   0.11989   0.38582   0.00000  Uiso   1.00
Br78   Br    0.35903   0.22203   0.45547   0.00000  Uiso   1.00
Br79   Br    0.61855   0.14890   0.00489   0.00000  Uiso   1.00
Br80   Br    0.51553   0.04851   0.33841   0.00000  Uiso   1.00
C81    C     0.49940   0.24641   0.24971   0.00000  Uiso   1.00
C82    C     0.49271   0.31281   0.21354   0.00000  Uiso   1.00
C83    C     0.50179   0.04281   0.25045   0.00000  Uiso   1.00
C84    C     0.49811   0.29072   0.25013   0.00000  Uiso   1.00
C85    C     0.65214   0.13397   0.23020   0.00000  Uiso   1.00
C86    C     0.34796   0.19954   0.26953   0.00000  Uiso   1.00
C87    C     0.36581   0.13443   0.23086   0.00000  Uiso   1.00
C88    C     0.63430   0.19904   0.26880   0.00000  Uiso   1.00
C89    C     0.47118   0.16789   0.33684   0.00000  Uiso   1.00
C90    C     0.52799   0.17003   0.16319   0.00000  Uiso   1.00
C91    C     0.45431   0.17290   0.38552   0.00000  Uiso   1.00
C92    C     0.50051   0.08700   0.25061   0.00000  Uiso   1.00
C93    C     0.53891   0.18089   0.11539   0.00000  Uiso   1.00
C94    C     0.39139   0.16871   0.45420   0.00000  Uiso   1.00
C95    C     0.59245   0.19782   0.04185   0.00000  Uiso   1.00
C96    C     0.41098   0.15607   0.41003   0.00000  Uiso   1.00
C97    C     0.58515   0.18820   0.08699   0.00000  Uiso   1.00
C98    C     0.47909   0.19659   0.40879   0.00000  Uiso   1.00
C99    C     0.50123   0.18517   0.09677   0.00000  Uiso   1.00
C100   C     0.46369   0.19472   0.45686   0.00000  Uiso   1.00
C101   C     0.51199   0.19440   0.05134   0.00000  Uiso   1.00
C102   C     0.42307   0.17183   0.47718   0.00000  Uiso   1.00
C103   C     0.45030   0.15410   0.03851   0.00000  Uiso   1.00
C104   C     0.55406   0.21331   0.03046   0.00000  Uiso   1.00
C105   C     0.48987   0.20697   0.48459   0.00000  Uiso   1.00
C106   C     0.48256   0.18623   0.02604   0.00000  Uiso   1.00
C107   C     0.52243   0.23904   0.47386   0.00000  Uiso   1.00
C108   C     0.41918   0.14798   0.01539   0.00000  Uiso   1.00
C109   C     0.55685   0.24041   0.49464   0.00000  Uiso   1.00
C110   C     0.50571   0.31096   0.28653   0.00000  Uiso   1.00
C111   C     0.49422   0.02263   0.21411   0.00000  Uiso   1.00
C112   C     0.50755   0.02085   0.28696   0.00000  Uiso   1.00
H113   H     0.44938   0.13338   0.06609   0.00000  Uiso   1.00
H114   H     0.52088   0.26346   0.45054   0.00000  Uiso   1.00
H115   H     0.51000   0.29313   0.31443   0.00000  Uiso   1.00
H116   H     0.48994   0.04049   0.18618   0.00000  Uiso   1.00
H117   H     0.39072   0.10875   0.21591   0.00000  Uiso   1.00
H118   H     0.60963   0.22508   0.28295   0.00000  Uiso   1.00
H119   H     0.36510   0.04212   0.18980   0.00000  Uiso   1.00
H120   H     0.40005   0.26463   0.33724   0.00000  Uiso   1.00
N121   N     0.38093   0.16668   0.25001   0.00000  Uiso   1.00
N122   N     0.61907   0.16666   0.24999   0.00000  Uiso   1.00
O123   O     0.46179   0.22775   0.25001   0.00000  Uiso   1.00
O124   O     0.61051   0.09814   0.17458   0.00000  Uiso   1.00
O125   O     0.35699   0.06418   0.17096   0.00000  Uiso   1.00
O126   O     0.64888   0.26883   0.32196   0.00000  Uiso   1.00
O127   O     0.38606   0.27497   0.25741   0.00000  Uiso   1.00
O128   O     0.39213   0.23649   0.32877   0.00000  Uiso   1.00
O129   O     0.53821   0.10558   0.24999   0.00000  Uiso   1.00
O130   O     0.53823   0.22774   0.25000   0.00000  Uiso   1.00
O131   O     0.46177   0.10559   0.25000   0.00000  Uiso   1.00
O132   O     0.43994   0.16667   0.31613   0.00000  Uiso   1.00
O133   O     0.56006   0.16666   0.18388   0.00000  Uiso   1.00
O134   O     0.51639   0.16666   0.31612   0.00000  Uiso   1.00
O135   O     0.48361   0.16667   0.18388   0.00000  Uiso   1.00
O136   O     0.61519   0.05787   0.23963   0.00000  Uiso   1.00
S137   S     0.63992   0.08818   0.20395   0.00000  Uiso   1.00
S138   S     0.36057   0.24617   0.29436   0.00000  Uiso   1.00
Zn139  Zn    0.44896   0.16667   0.25000   0.00000  Uiso   1.00
Zn140  Zn    0.55104   0.16666   0.25000   0.00000  Uiso   1.00
Br141  Br    0.71136   0.10199   0.03273   0.00000  Uiso   1.00
Br142  Br    0.81966   0.28584   0.16126   0.00000  Uiso   1.00
Br143  Br    0.93077   0.28677   0.48218   0.00000  Uiso   1.00
Br144  Br    0.76777   0.19504   0.13159   0.00000  Uiso   1.00
Br145  Br    0.86853   0.22479   0.37441   0.00000  Uiso   1.00
Br146  Br    0.97305   0.18462   0.10596   0.00000  Uiso   1.00
Br147  Br    0.70828   0.11989   0.38582   0.00000  Uiso   1.00
Br148  Br    0.69236   0.22203   0.45547   0.00000  Uiso   1.00
Br149  Br    0.95188   0.14890   0.00489   0.00000  Uiso   1.00
Br150  Br    0.84886   0.04851   0.33841   0.00000  Uiso   1.00
C151   C     0.83273   0.24641   0.24971   0.00000  Uiso   1.00
C152   C     0.82604   0.31281   0.21354   0.00000  Uiso   1.00
C153   C     0.83513   0.04281   0.25045   0.00000  Uiso   1.00
C154   C     0.83145   0.29072   0.25013   0.00000  Uiso   1.00
C155   C     0.98547   0.13397   0.23020   0.00000  Uiso   1.00
C156   C     0.68129   0.19954   0.26953   0.00000  Uiso   1.00
C157   C     0.69914   0.13443   0.23086   0.00000  Uiso   1.00
C158   C     0.96763   0.19904   0.26880   0.00000  Uiso   1.00
C159   C     0.80451   0.16789   0.33684   0.00000  Uiso   1.00
C160   C     0.86132   0.17003   0.16319   0.00000  Uiso   1.00
C161   C     0.78765   0.17290   0.38552   0.00000  Uiso   1.00
C162   C     0.83385   0.08700   0.25061   0.00000  Uiso   1.00
C163   C     0.87224   0.18089   0.11539   0.00000  Uiso   1.00
C164   C     0.72472   0.16871   0.45420   0.00000  Uiso   1.00
C165   C     0.92579   0.19782   0.04185   0.00000  Uiso   1.00
C166   C     0.74432   0.15607   0.41003   0.00000  Uiso   1.00
C167   C     0.91848   0.18820   0.08699   0.00000  Uiso   1.00
C168   C     0.81242   0.19659   0.40879   0.00000  Uiso   1.00
C169   C     0.83456   0.18517   0.09677   0.00000  Uiso   1.00
C170   C     0.79702   0.19472   0.45686   0.00000  Uiso   1.00
C171   C     0.84532   0.19440   0.05134   0.00000  Uiso   1.00
C172   C     0.75641   0.17183   0.47718   0.00000  Uiso   1.00
C173   C     0.78364   0.15410   0.03851   0.00000  Uiso   1.00
C174   C     0.88740   0.21331   0.03046   0.00000  Uiso   1.00
C175   C     0.82320   0.20697   0.48459   0.00000  Uiso   1.00
C176   C     0.81589   0.18623   0.02604   0.00000  Uiso   1.00
C177   C     0.85577   0.23904   0.47386   0.00000  Uiso   1.00
C178   C     0.75251   0.14798   0.01539   0.00000  Uiso   1.00
C179   C     0.89018   0.24041   0.49464   0.00000  Uiso   1.00
C180   C     0.83904   0.31096   0.28653   0.00000  Uiso   1.00
C181   C     0.82755   0.02263   0.21411   0.00000  Uiso   1.00
C182   C     0.84088   0.02085   0.28696   0.00000  Uiso   1.00
H183   H     0.78272   0.13338   0.06609   0.00000  Uiso   1.00
H184   H     0.85421   0.26346   0.45054   0.00000  Uiso   1.00
H185   H     0.84333   0.29313   0.31443   0.00000  Uiso   1.00
H186   H     0.82328   0.04049   0.18618   0.00000  Uiso   1.00
H187   H     0.72406   0.10875   0.21591   0.00000  Uiso   1.00
H188   H     0.94296   0.22508   0.28295   0.00000  Uiso   1.00
H189   H     0.69844   0.04212   0.18980   0.00000  Uiso   1.00
H190   H     0.73339   0.26463   0.33724   0.00000  Uiso   1.00
N191   N     0.71426   0.16668   0.25001   0.00000  Uiso   1.00
N192   N     0.95241   0.16666   0.24999   0.00000  Uiso   1.00
O193   O     0.79512   0.22775   0.25001   0.00000  Uiso   1.00
O194   O     0.94384   0.09814   0.17458   0.00000  Uiso   1.00
O195   O     0.69033   0.06418   0.17096   0.00000  Uiso   1.00
O196   O     0.98221   0.26883   0.32196   0.00000  Uiso   1.00
O197   O     0.71940   0.27497   0.25741   0.00000  Uiso   1.00
O198   O     0.72547   0.23649   0.32877   0.00000  Uiso   1.00
O199   O     0.87154   0.10558   0.24999   0.00000  Uiso   1.00
O200   O     0.87157   0.22774   0.25000   0.00000  Uiso   1.00
O201   O     0.79510   0.10559   0.25000   0.00000  Uiso   1.00
O202   O     0.77328   0.16667   0.31613   0.00000  Uiso   1.00
O203   O     0.89339   0.16666   0.18388   0.00000  Uiso   1.00
O204   O     0.84972   0.16666   0.31612   0.00000  Uiso   1.00
O205   O     0.81695   0.16667   0.18388   0.00000  Uiso   1.00
O206   O     0.94852   0.05787   0.23963   0.00000  Uiso   1.00
S207   S     0.97325   0.08818   0.20395   0.00000  Uiso   1.00
S208   S     0.69390   0.24617   0.29436   0.00000  Uiso   1.00
Zn209  Zn    0.78229   0.16667   0.25000   0.00000  Uiso   1.00
Zn210  Zn    0.88438   0.16666   0.25000   0.00000  Uiso   1.00
Br211  Br    0.04469   0.43532   0.03273   0.00000  Uiso   1.00
Br212  Br    0.15300   0.61917   0.16126   0.00000  Uiso   1.00
Br213  Br    0.26410   0.62011   0.48218   0.00000  Uiso   1.00
Br214  Br    0.10110   0.52837   0.13159   0.00000  Uiso   1.00
Br215  Br    0.20186   0.55812   0.37441   0.00000  Uiso   1.00
Br216  Br    0.30638   0.51796   0.10596   0.00000  Uiso   1.00
Br217  Br    0.04161   0.45323   0.38582   0.00000  Uiso   1.00
Br218  Br    0.02569   0.55536   0.45547   0.00000  Uiso   1.00
Br219  Br    0.28521   0.48223   0.00489   0.00000  Uiso   1.00
Br220  Br    0.18220   0.38185   0.33841   0.00000  Uiso   1.00
C221   C     0.16606   0.57974   0.24971   0.00000  Uiso   1.00
C222   C     0.15937   0.64614   0.21354   0.00000  Uiso   1.00
C223   C     0.16846   0.37614   0.25045   0.00000  Uiso   1.00
C224   C     0.16478   0.62405   0.25013   0.00000  Uiso   1.00
C225   C     0.31880   0.46730   0.23020   0.00000  Uiso   1.00
C226   C     0.01463   0.53288   0.26953   0.00000  Uiso   1.00
C227   C     0.03247   0.46777   0.23086   0.00000  Uiso   1.00
C228   C     0.30097   0.53238   0.26880   0.00000  Uiso   1.00
C229   C     0.13785   0.50122   0.33684   0.00000  Uiso   1.00
C230   C     0.19466   0.50337   0.16319   0.00000  Uiso   1.00
C231   C     0.12098   0.50623   0.38552   0.00000  Uiso   1.00
C232   C     0.16718   0.42033   0.25061   0.00000  Uiso   1.00
C233   C     0.20558   0.51422   0.11539   0.00000  Uiso   1.00
C234   C     0.05805   0.50204   0.45420   0.00000  Uiso   1.00
C235   C     0.25912   0.53115   0.04185   0.00000  Uiso   1.00
C236   C     0.07765   0.48940   0.41003   0.00000  Uiso   1.00
C237   C     0.25182   0.52153   0.08699   0.00000  Uiso   1.00
C238   C     0.14576   0.52992   0.40879   0.00000  Uiso   1.00
C239   C     0.16789   0.51850   0.09677   0.00000  Uiso   1.00
C240   C     0.13036   0.52805   0.45686   0.00000  Uiso   1.00
C241   C     0.17866   0.52773   0.05134   0.00000  Uiso   1.00
C242   C     0.08974   0.50517   0.47718   0.00000  Uiso   1.00
C243   C     0.11697   0.48744   0.03851   0.00000  Uiso   1.00
C244   C     0.22073   0.54665   0.03046   0.00000  Uiso   1.00
C245   C     0.15653   0.54030   0.48459   0.00000  Uiso   1.00
C246   C     0.14923   0.51956   0.02604   0.00000  Uiso   1.00
C247   C     0.18910   0.57237   0.47386   0.00000  Uiso   1.00
C248   C     0.08585   0.48132   0.01539   0.00000  Uiso   1.00
C249   C     0.22351   0.57374   0.49464   0.00000  Uiso   1.00
C250   C     0.17237   0.64429   0.28653   0.00000  Uiso   1.00
C251   C     0.16089   0.35596   0.21411   0.00000  Uiso   1.00
C252   C     0.17421   0.35419   0.28696   0.00000  Uiso   1.00
H253   H     0.11605   0.46672   0.06609   0.00000  Uiso   1.00
H254   H     0.18754   0.59679   0.45054   0.00000  Uiso   1.00
H255   H     0.17666   0.62647   0.31443   0.00000  Uiso   1.00
H256   H     0.15661   0.37383   0.18618   0.00000  Uiso   1.00
H257   H     0.05739   0.44209   0.21591   0.00000  Uiso   1.00
H258   H     0.27629   0.55841   0.28295   0.00000  Uiso   1.00
H259   H     0.03177   0.37545   0.18980   0.00000  Uiso   1.00
H260   H     0.06672   0.59796   0.33724   0.00000  Uiso   1.00
N261   N     0.04759   0.50001   0.25001   0.00000  Uiso   1.00
N262   N     0.28574   0.49999   0.24999   0.00000  Uiso   1.00
O263   O     0.12846   0.56108   0.25001   0.00000  Uiso   1.00
O264   O     0.27718   0.43148   0.17458   0.00000  Uiso   1.00
O265   O     0.02366   0.39752   0.17096   0.00000  Uiso   1.00
O266   O     0.31555   0.60217   0.32196   0.00000  Uiso   1.00
O267   O     0.05273   0.60830   0.25741   0.00000  Uiso   1.00
O268   O     0.05880   0.56982   0.32877   0.00000  Uiso   1.00
O269   O     0.20488   0.43892   0.24999   0.00000  Uiso   1.00
O270   O     0.20490   0.56107   0.25000   0.00000  Uiso   1.00
O271   O     0.12843   0.43893   0.25000   0.00000  Uiso   1.00
O272   O     0.10661   0.50001   0.31613   0.00000  Uiso   1.00
O273   O     0.22672   0.49999   0.18388   0.00000  Uiso   1.00
O274   O     0.18305   0.50000   0.31612   0.00000  Uiso   1.00
O275   O     0.15028   0.50000   0.18388   0.00000  Uiso   1.00
O276   O     0.28186   0.39121   0.23963   0.00000  Uiso   1.00
S277   S     0.30658   0.42152   0.20395   0.00000  Uiso   1.00
S278   S     0.02723   0.57950   0.29436   0.00000  Uiso   1.00
Zn279  Zn    0.11562   0.50001   0.25000   0.00000  Uiso   1.00
Zn280  Zn    0.21771   0.49999   0.25000   0.00000  Uiso   1.00
Br281  Br    0.37802   0.43532   0.03273   0.00000  Uiso   1.00
Br282  Br    0.48633   0.61917   0.16126   0.00000  Uiso   1.00
Br283  Br    0.59743   0.62011   0.48218   0.00000  Uiso   1.00
Br284  Br    0.43444   0.52837   0.13159   0.00000  Uiso   1.00
Br285  Br    0.53520   0.55812   0.37441   0.00000  Uiso   1.00
Br286  Br    0.63971   0.51796   0.10596   0.00000  Uiso   1.00
Br287  Br    0.37495   0.45323   0.38582   0.00000  Uiso   1.00
Br288  Br    0.35903   0.55536   0.45547   0.00000  Uiso   1.00
Br289  Br    0.61855   0.48223   0.00489   0.00000  Uiso   1.00
Br290  Br    0.51553   0.38185   0.33841   0.00000  Uiso   1.00
C291   C     0.49940   0.57974   0.24971   0.00000  Uiso   1.00
C292   C     0.49271   0.64614   0.21354   0.00000  Uiso   1.00
C293   C     0.50179   0.37614   0.25045   0.00000  Uiso   1.00
C294   C     0.49811   0.62405   0.25013   0.00000  Uiso   1.00
C295   C     0.65214   0.46730   0.23020   0.00000  Uiso   1.00
C296   C     0.34796   0.53288   0.26953   0.00000  Uiso   1.00
C297   C     0.36581   0.46777   0.23086   0.00000  Uiso   1.00
C298   C     0.63430   0.53238   0.26880   0.00000  Uiso   1.00
C299   C     0.47118   0.50122   0.33684   0.00000  Uiso   1.00
C300   C     0.52799   0.50337   0.16319   0.00000  Uiso   1.00
C301   C     0.45431   0.50623   0.38552   0.00000  Uiso   1.00
C302   C     0.50051   0.42033   0.25061   0.00000  Uiso   1.00
C303   C     0.53891   0.51422   0.11539   0.00000  Uiso   1.00
C304   C     0.39139   0.50204   0.45420   0.00000  Uiso   1.00
C305   C     0.59245   0.53115   0.04185   0.00000  Uiso   1.00
C306   C     0.41098   0.48940   0.41003   0.00000  Uiso   1.00
C307   C     0.58515   0.52153   0.08699   0.00000  Uiso   1.00
C308   C     0.47909   0.52992   0.40879   0.00000  Uiso   1.00
C309   C     0.50123   0.51850   0.09677   0.00000  Uiso   1.00
C310   C     0.46369   0.52805   0.45686   0.00000  Uiso   1.00
C311   C     0.51199   0.52773   0.05134   0.00000  Uiso   1.00
C312   C     0.42307   0.50517   0.47718   0.00000  Uiso   1.00
C313   C     0.45030   0.48744   0.03851   0.00000  Uiso   1.00
C314   C     0.55406   0.54665   0.03046   0.00000  Uiso   1.00
C315   C     0.48987   0.54030   0.48459   0.00000  Uiso   1.00
C316   C     0.48256   0.51956   0.02604   0.00000  Uiso   1.00
C317   C     0.52243   0.57237   0.47386   0.00000  Uiso   1.00
C318   C     0.41918   0.48132   0.01539   0.00000  Uiso   1.00
C319   C     0.55685   0.57374   0.49464   0.00000  Uiso   1.00
C320   C     0.50571   0.64429   0.28653   0.00000  Uiso   1.00
C321   C     0.49422   0.35596   0.21411   0.00000  Uiso   1.00
C322   C     0.50755   0.35419   0.28696   0.00000  Uiso   1.00
H323   H     0.44938   0.46672   0.06609   0.00000  Uiso   1.00
H324   H     0.52088   0.59679   0.45054   0.00000  Uiso   1.00
H325   H     0.51000   0.62647   0.31443   0.00000  Uiso   1.00
H326   H     0.48994   0.37383   0.18618   0.00000  Uiso   1.00
H327   H     0.39072   0.44209   0.21591   0.00000  Uiso   1.00
H328   H     0.60963   0.55841   0.28295   0.00000  Uiso   1.00
H329   H     0.36510   0.37545   0.18980   0.00000  Uiso   1.00
H330   H     0.40005   0.59796   0.33724   0.00000  Uiso   1.00
N331   N     0.38093   0.50001   0.25001   0.00000  Uiso   1.00
N332   N     0.61907   0.49999   0.24999   0.00000  Uiso   1.00
O333   O     0.46179   0.56108   0.25001   0.00000  Uiso   1.00
O334   O     0.61051   0.43148   0.17458   0.00000  Uiso   1.00
O335   O     0.35699   0.39752   0.17096   0.00000  Uiso   1.00
O336   O     0.64888   0.60217   0.32196   0.00000  Uiso   1.00
O337   O     0.38606   0.60830   0.25741   0.00000  Uiso   1.00
O338   O     0.39213   0.56982   0.32877   0.00000  Uiso   1.00
O339   O     0.53821   0.43892   0.24999   0.00000  Uiso   1.00
O340   O     0.53823   0.56107   0.25000   0.00000  Uiso   1.00
O341   O     0.46177   0.43893   0.25000   0.00000  Uiso   1.00
O342   O     0.43994   0.50001   0.31613   0.00000  Uiso   1.00
O343   O     0.56006   0.49999   0.18388   0.00000  Uiso   1.00
O344   O     0.51639   0.50000   0.31612   0.00000  Uiso   1.00
O345   O     0.48361   0.50000   0.18388   0.00000  Uiso   1.00
O346   O     0.61519   0.39121   0.23963   0.00000  Uiso   1.00
S347   S     0.63992   0.42152   0.20395   0.00000  Uiso   1.00
S348   S     0.36057   0.57950   0.29436   0.00000  Uiso   1.00
Zn349  Zn    0.44896   0.50001   0.25000   0.00000  Uiso   1.00
Zn350  Zn    0.55104   0.49999   0.25000   0.00000  Uiso   1.00
Br351  Br    0.71136   0.43532   0.03273   0.00000  Uiso   1.00
Br352  Br    0.81966   0.61917   0.16126   0.00000  Uiso   1.00
Br353  Br    0.93077   0.62011   0.48218   0.00000  Uiso   1.00
Br354  Br    0.76777   0.52837   0.13159   0.00000  Uiso   1.00
Br355  Br    0.86853   0.55812   0.37441   0.00000  Uiso   1.00
Br356  Br    0.97305   0.51796   0.10596   0.00000  Uiso   1.00
Br357  Br    0.70828   0.45323   0.38582   0.00000  Uiso   1.00
Br358  Br    0.69236   0.55536   0.45547   0.00000  Uiso   1.00
Br359  Br    0.95188   0.48223   0.00489   0.00000  Uiso   1.00
Br360  Br    0.84886   0.38185   0.33841   0.00000  Uiso   1.00
C361   C     0.83273   0.57974   0.24971   0.00000  Uiso   1.00
C362   C     0.82604   0.64614   0.21354   0.00000  Uiso   1.00
C363   C     0.83513   0.37614   0.25045   0.00000  Uiso   1.00
C364   C     0.83145   0.62405   0.25013   0.00000  Uiso   1.00
C365   C     0.98547   0.46730   0.23020   0.00000  Uiso   1.00
C366   C     0.68129   0.53288   0.26953   0.00000  Uiso   1.00
C367   C     0.69914   0.46777   0.23086   0.00000  Uiso   1.00
C368   C     0.96763   0.53238   0.26880   0.00000  Uiso   1.00
C369   C     0.80451   0.50122   0.33684   0.00000  Uiso   1.00
C370   C     0.86132   0.50337   0.16319   0.00000  Uiso   1.00
C371   C     0.78765   0.50623   0.38552   0.00000  Uiso   1.00
C372   C     0.83385   0.42033   0.25061   0.00000  Uiso   1.00
C373   C     0.87224   0.51422   0.11539   0.00000  Uiso   1.00
C374   C     0.72472   0.50204   0.45420   0.00000  Uiso   1.00
C375   C     0.92579   0.53115   0.04185   0.00000  Uiso   1.00
C376   C     0.74432   0.48940   0.41003   0.00000  Uiso   1.00
C377   C     0.91848   0.52153   0.08699   0.00000  Uiso   1.00
C378   C     0.81242   0.52992   0.40879   0.00000  Uiso   1.00
C379   C     0.83456   0.51850   0.09677   0.00000  Uiso   1.00
C380   C     0.79702   0.52805   0.45686   0.00000  Uiso   1.00
C381   C     0.84532   0.52773   0.05134   0.00000  Uiso   1.00
C382   C     0.75641   0.50517   0.47718   0.00000  Uiso   1.00
C383   C     0.78364   0.48744   0.03851   0.00000  Uiso   1.00
C384   C     0.88740   0.54665   0.03046   0.00000  Uiso   1.00
C385   C     0.82320   0.54030   0.48459   0.00000  Uiso   1.00
C386   C     0.81589   0.51956   0.02604   0.00000  Uiso   1.00
C387   C     0.85577   0.57237   0.47386   0.00000  Uiso   1.00
C388   C     0.75251   0.48132   0.01539   0.00000  Uiso   1.00
C389   C     0.89018   0.57374   0.49464   0.00000  Uiso   1.00
C390   C     0.83904   0.64429   0.28653   0.00000  Uiso   1.00
C391   C     0.82755   0.35596   0.21411   0.00000  Uiso   1.00
C392   C     0.84088   0.35419   0.28696   0.00000  Uiso   1.00
H393   H     0.78272   0.46672   0.06609   0.00000  Uiso   1.00
H394   H     0.85421   0.59679   0.45054   0.00000  Uiso   1.00
H395   H     0.84333   0.62647   0.31443   0.00000  Uiso   1.00
H396   H     0.82328   0.37383   0.18618   0.00000  Uiso   1.00
H397   H     0.72406   0.44209   0.21591   0.00000  Uiso   1.00
H398   H     0.94296   0.55841   0.28295   0.00000  Uiso   1.00
H399   H     0.69844   0.37545   0.18980   0.00000  Uiso   1.00
H400   H     0.73339   0.59796   0.33724   0.00000  Uiso   1.00
N401   N     0.71426   0.50001   0.25001   0.00000  Uiso   1.00
N402   N     0.95241   0.49999   0.24999   0.00000  Uiso   1.00
O403   O     0.79512   0.56108   0.25001   0.00000  Uiso   1.00
O404   O     0.94384   0.43148   0.17458   0.00000  Uiso   1.00
O405   O     0.69033   0.39752   0.17096   0.00000  Uiso   1.00
O406   O     0.98221   0.60217   0.32196   0.00000  Uiso   1.00
O407   O     0.71940   0.60830   0.25741   0.00000  Uiso   1.00
O408   O     0.72547   0.56982   0.32877   0.00000  Uiso   1.00
O409   O     0.87154   0.43892   0.24999   0.00000  Uiso   1.00
O410   O     0.87157   0.56107   0.25000   0.00000  Uiso   1.00
O411   O     0.79510   0.43893   0.25000   0.00000  Uiso   1.00
O412   O     0.77328   0.50001   0.31613   0.00000  Uiso   1.00
O413   O     0.89339   0.49999   0.18388   0.00000  Uiso   1.00
O414   O     0.84972   0.50000   0.31612   0.00000  Uiso   1.00
O415   O     0.81695   0.50000   0.18388   0.00000  Uiso   1.00
O416   O     0.94852   0.39121   0.23963   0.00000  Uiso   1.00
S417   S     0.97325   0.42152   0.20395   0.00000  Uiso   1.00
S418   S     0.69390   0.57950   0.29436   0.00000  Uiso   1.00
Zn419  Zn    0.78229   0.50001   0.25000   0.00000  Uiso   1.00
Zn420  Zn    0.88438   0.49999   0.25000   0.00000  Uiso   1.00
Br421  Br    0.04469   0.76866   0.03273   0.00000  Uiso   1.00
Br422  Br    0.15300   0.95250   0.16126   0.00000  Uiso   1.00
Br423  Br    0.26410   0.95344   0.48218   0.00000  Uiso   1.00
Br424  Br    0.10110   0.86171   0.13159   0.00000  Uiso   1.00
Br425  Br    0.20186   0.89145   0.37441   0.00000  Uiso   1.00
Br426  Br    0.30638   0.85129   0.10596   0.00000  Uiso   1.00
Br427  Br    0.04161   0.78656   0.38582   0.00000  Uiso   1.00
Br428  Br    0.02569   0.88869   0.45547   0.00000  Uiso   1.00
Br429  Br    0.28521   0.81557   0.00489   0.00000  Uiso   1.00
Br430  Br    0.18220   0.71518   0.33841   0.00000  Uiso   1.00
C431   C     0.16606   0.91308   0.24971   0.00000  Uiso   1.00
C432   C     0.15937   0.97947   0.21354   0.00000  Uiso   1.00
C433   C     0.16846   0.70948   0.25045   0.00000  Uiso   1.00
C434   C     0.16478   0.95739   0.25013   0.00000  Uiso   1.00
C435   C     0.31880   0.80064   0.23020   0.00000  Uiso   1.00
C436   C     0.01463   0.86621   0.26953   0.00000  Uiso   1.00
C437   C     0.03247   0.80110   0.23086   0.00000  Uiso   1.00
C438   C     0.30097   0.86571   0.26880   0.00000  Uiso   1.00
C439   C     0.13785   0.83455   0.33684   0.00000  Uiso   1.00
C440   C     0.19466   0.83670   0.16319   0.00000  Uiso   1.00
C441   C     0.12098   0.83956   0.38552   0.00000  Uiso   1.00
C442   C     0.16718   0.75367   0.25061   0.00000  Uiso   1.00
C443   C     0.20558   0.84755   0.11539   0.00000  Uiso   1.00
C444   C     0.05805   0.83537   0.45420   0.00000  Uiso   1.00
C445   C     0.25912   0.86448   0.04185   0.00000  Uiso   1.00
C446   C     0.07765   0.82274   0.41003   0.00000  Uiso   1.00
C447   C     0.25182   0.85487   0.08699   0.00000  Uiso   1.00
C448   C     0.14576   0.86326   0.40879   0.00000  Uiso   1.00
C449   C     0.16789   0.85183   0.09677   0.00000  Uiso   1.00
C450   C     0.13036   0.86139   0.45686   0.00000  Uiso   1.00
C451   C     0.17866   0.86107   0.05134   0.00000  Uiso   1.00
C452   C     0.08974   0.83850   0.47718   0.00000  Uiso   1.00
C453   C     0.11697   0.82077   0.03851   0.00000  Uiso   1.00
C454   C     0.22073   0.87998   0.03046   0.00000  Uiso   1.00
C455   C     0.15653   0.87363   0.48459   0.00000  Uiso   1.00
C456   C     0.14923   0.85289   0.02604   0.00000  Uiso   1.00
C457   C     0.18910   0.90570   0.47386   0.00000  Uiso   1.00
C458   C     0.08585   0.81465   0.01539   0.00000  Uiso   1.00
C459   C     0.22351   0.90708   0.49464   0.00000  Uiso   1.00
C460   C     0.17237   0.97763   0.28653   0.00000  Uiso   1.00
C461   C     0.16089   0.68930   0.21411   0.00000  Uiso   1.00
C462   C     0.17421   0.68752   0.28696   0.00000  Uiso   1.00
H463   H     0.11605   0.80005   0.06609   0.00000  Uiso   1.00
H464   H     0.18754   0.93012   0.45054   0.00000  Uiso   1.00
H465   H     0.17666   0.95980   0.31443   0.00000  Uiso   1.00
H466   H     0.15661   0.70716   0.18618   0.00000  Uiso   1.00
H467   H     0.05739   0.77542   0.21591   0.00000  Uiso   1.00
H468   H     0.27629   0.89174   0.28295   0.00000  Uiso   1.00
H469   H     0.03177   0.70878   0.18980   0.00000  Uiso   1.00
H470   H     0.06672   0.93129   0.33724   0.00000  Uiso   1.00
N471   N     0.04759   0.83334   0.25001   0.00000  Uiso   1.00
N472   N     0.28574   0.83332   0.24999   0.00000  Uiso   1.00
O473   O     0.12846   0.89442   0.25001   0.00000  Uiso   1.00
O474   O     0.27718   0.76481   0.17458   0.00000  Uiso   1.00
O475   O     0.02366   0.73085   0.17096   0.00000  Uiso   1.00
O476   O     0.31555   0.93550   0.32196   0.00000  Uiso   1.00
O477   O     0.05273   0.94163   0.25741   0.00000  Uiso   1.00
O478   O     0.05880   0.90315   0.32877   0.00000  Uiso   1.00
O479   O     0.20488   0.77225   0.24999   0.00000  Uiso   1.00
O480   O     0.20490   0.89441   0.25000   0.00000  Uiso   1.00
O481   O     0.12843   0.77226   0.25000   0.00000  Uiso   1.00
O482   O     0.10661   0.83334   0.31613   0.00000  Uiso   1.00
O483   O     0.22672   0.83333   0.18388   0.00000  Uiso   1.00
O484   O     0.18305   0.83333   0.31612   0.00000  Uiso   1.00
O485   O     0.15028   0.83334   0.18388   0.00000  Uiso   1.00
O486   O     0.28186   0.72454   0.23963   0.00000  Uiso   1.00
S487   S     0.30658   0.75485   0.20395   0.00000  Uiso   1.00
S488   S     0.02723   0.91283   0.29436   0.00000  Uiso   1.00
Zn489  Zn    0.11562   0.83334   0.25000   0.00000  Uiso   1.00
Zn490  Zn    0.21771   0.83333   0.25000   0.00000  Uiso   1.00
Br491  Br    0.37802   0.76866   0.03273   0.00000  Uiso   1.00
Br492  Br    0.48633   0.95250   0.16126   0.00000  Uiso   1.00
Br493  Br    0.59743   0.95344   0.48218   0.00000  Uiso   1.00
Br494  Br    0.43444   0.86171   0.13159   0.00000  Uiso   1.00
Br495  Br    0.53520   0.89145   0.37441   0.00000  Uiso   1.00
Br496  Br    0.63971   0.85129   0.10596   0.00000  Uiso   1.00
Br497  Br    0.37495   0.78656   0.38582   0.00000  Uiso   1.00
Br498  Br    0.35903   0.88869   0.45547   0.00000  Uiso   1.00
Br499  Br    0.61855   0.81557   0.00489   0.00000  Uiso   1.00
Br500  Br    0.51553   0.71518   0.33841   0.00000  Uiso   1.00
C501   C     0.49940   0.91308   0.24971   0.00000  Uiso   1.00
C502   C     0.49271   0.97947   0.21354   0.00000  Uiso   1.00
C503   C     0.50179   0.70948   0.25045   0.00000  Uiso   1.00
C504   C     0.49811   0.95739   0.25013   0.00000  Uiso   1.00
C505   C     0.65214   0.80064   0.23020   0.00000  Uiso   1.00
C506   C     0.34796   0.86621   0.26953   0.00000  Uiso   1.00
C507   C     0.36581   0.80110   0.23086   0.00000  Uiso   1.00
C508   C     0.63430   0.86571   0.26880   0.00000  Uiso   1.00
C509   C     0.47118   0.83455   0.33684   0.00000  Uiso   1.00
C510   C     0.52799   0.83670   0.16319   0.00000  Uiso   1.00
C511   C     0.45431   0.83956   0.38552   0.00000  Uiso   1.00
C512   C     0.50051   0.75367   0.25061   0.00000  Uiso   1.00
C513   C     0.53891   0.84755   0.11539   0.00000  Uiso   1.00
C514   C     0.39139   0.83537   0.45420   0.00000  Uiso   1.00
C515   C     0.59245   0.86448   0.04185   0.00000  Uiso   1.00
C516   C     0.41098   0.82274   0.41003   0.00000  Uiso   1.00
C517   C     0.58515   0.85487   0.08699   0.00000  Uiso   1.00
C518   C     0.47909   0.86326   0.40879   0.00000  Uiso   1.00
C519   C     0.50123   0.85183   0.09677   0.00000  Uiso   1.00
C520   C     0.46369   0.86139   0.45686   0.00000  Uiso   1.00
C521   C     0.51199   0.86107   0.05134   0.00000  Uiso   1.00
C522   C     0.42307   0.83850   0.47718   0.00000  Uiso   1.00
C523   C     0.45030   0.82077   0.03851   0.00000  Uiso   1.00
C524   C     0.55406   0.87998   0.03046   0.00000  Uiso   1.00
C525   C     0.48987   0.87363   0.48459   0.00000  Uiso   1.00
C526   C     0.48256   0.85289   0.02604   0.00000  Uiso   1.00
C527   C     0.52243   0.90570   0.47386   0.00000  Uiso   1.00
C528   C     0.41918   0.81465   0.01539   0.00000  Uiso   1.00
C529   C     0.55685   0.90708   0.49464   0.00000  Uiso   1.00
C530   C     0.50571   0.97763   0.28653   0.00000  Uiso   1.00
C531   C     0.49422   0.68930   0.21411   0.00000  Uiso   1.00
C532   C     0.50755   0.68752   0.28696   0.00000  Uiso   1.00
H533   H     0.44938   0.80005   0.06609   0.00000  Uiso   1.00
H534   H     0.52088   0.93012   0.45054   0.00000  Uiso   1.00
H535   H     0.51000   0.95980   0.31443   0.00000  Uiso   1.00
H536   H     0.48994   0.70716   0.18618   0.00000  Uiso   1.00
H537   H     0.39072   0.77542   0.21591   0.00000  Uiso   1.00
H538   H     0.60963   0.89174   0.28295   0.00000  Uiso   1.00
H539   H     0.36510   0.70878   0.18980   0.00000  Uiso   1.00
H540   H     0.40005   0.93129   0.33724   0.00000  Uiso   1.00
N541   N     0.38093   0.83334   0.25001   0.00000  Uiso   1.00
N542   N     0.61907   0.83332   0.24999   0.00000  Uiso   1.00
O543   O     0.46179   0.89442   0.25001   0.00000  Uiso   1.00
O544   O     0.61051   0.76481   0.17458   0.00000  Uiso   1.00
O545   O     0.35699   0.73085   0.17096   0.00000  Uiso   1.00
O546   O     0.64888   0.93550   0.32196   0.00000  Uiso   1.00
O547   O     0.38606   0.94163   0.25741   0.00000  Uiso   1.00
O548   O     0.39213   0.90315   0.32877   0.00000  Uiso   1.00
O549   O     0.53821   0.77225   0.24999   0.00000  Uiso   1.00
O550   O     0.53823   0.89441   0.25000   0.00000  Uiso   1.00
O551   O     0.46177   0.77226   0.25000   0.00000  Uiso   1.00
O552   O     0.43994   0.83334   0.31613   0.00000  Uiso   1.00
O553   O     0.56006   0.83333   0.18388   0.00000  Uiso   1.00
O554   O     0.51639   0.83333   0.31612   0.00000  Uiso   1.00
O555   O     0.48361   0.83334   0.18388   0.00000  Uiso   1.00
O556   O     0.61519   0.72454   0.23963   0.00000  Uiso   1.00
S557   S     0.63992   0.75485   0.20395   0.00000  Uiso   1.00
S558   S     0.36057   0.91283   0.29436   0.00000  Uiso   1.00
Zn559  Zn    0.44896   0.83334   0.25000   0.00000  Uiso   1.00
Zn560  Zn    0.55104   0.83333   0.25000   0.00000  Uiso   1.00
Br561  Br    0.71136   0.76866   0.03273   0.00000  Uiso   1.00
Br562  Br    0.81966   0.95250   0.16126   0.00000  Uiso   1.00
Br563  Br    0.93077   0.95344   0.48218   0.00000  Uiso   1.00
Br564  Br    0.76777   0.86171   0.13159   0.00000  Uiso   1.00
Br565  Br    0.86853   0.89145   0.37441   0.00000  Uiso   1.00
Br566  Br    0.97305   0.85129   0.10596   0.00000  Uiso   1.00
Br567  Br    0.70828   0.78656   0.38582   0.00000  Uiso   1.00
Br568  Br    0.69236   0.88869   0.45547   0.00000  Uiso   1.00
Br569  Br    0.95188   0.81557   0.00489   0.00000  Uiso   1.00
Br570  Br    0.84886   0.71518   0.33841   0.00000  Uiso   1.00
C571   C     0.83273   0.91308   0.24971   0.00000  Uiso   1.00
C572   C     0.82604   0.97947   0.21354   0.00000  Uiso   1.00
C573   C     0.83513   0.70948   0.25045   0.00000  Uiso   1.00
C574   C     0.83145   0.95739   0.25013   0.00000  Uiso   1.00
C575   C     0.98547   0.80064   0.23020   0.00000  Uiso   1.00
C576   C     0.68129   0.86621   0.26953   0.00000  Uiso   1.00
C577   C     0.69914   0.80110   0.23086   0.00000  Uiso   1.00
C578   C     0.96763   0.86571   0.26880   0.00000  Uiso   1.00
C579   C     0.80451   0.83455   0.33684   0.00000  Uiso   1.00
C580   C     0.86132   0.83670   0.16319   0.00000  Uiso   1.00
C581   C     0.78765   0.83956   0.38552   0.00000  Uiso   1.00
C582   C     0.83385   0.75367   0.25061   0.00000  Uiso   1.00
C583   C     0.87224   0.84755   0.11539   0.00000  Uiso   1.00
C584   C     0.72472   0.83537   0.45420   0.00000  Uiso   1.00
C585   C     0.92579   0.86448   0.04185   0.00000  Uiso   1.00
C586   C     0.74432   0.82274   0.41003   0.00000  Uiso   1.00
C587   C     0.91848   0.85487   0.08699   0.00000  Uiso   1.00
C588   C     0.81242   0.86326   0.40879   0.00000  Uiso   1.00
C589   C     0.83456   0.85183   0.09677   0.00000  Uiso   1.00
C590   C     0.79702   0.86139   0.45686   0.00000  Uiso   1.00
C591   C     0.84532   0.86107   0.05134   0.00000  Uiso   1.00
C592   C     0.75641   0.83850   0.47718   0.00000  Uiso   1.00
C593   C     0.78364   0.82077   0.03851   0.00000  Uiso   1.00
C594   C     0.88740   0.87998   0.03046   0.00000  Uiso   1.00
C595   C     0.82320   0.87363   0.48459   0.00000  Uiso   1.00
C596   C     0.81589   0.85289   0.02604   0.00000  Uiso   1.00
C597   C     0.85577   0.90570   0.47386   0.00000  Uiso   1.00
C598   C     0.75251   0.81465   0.01539   0.00000  Uiso   1.00
C599   C     0.89018   0.90708   0.49464   0.00000  Uiso   1.00
C600   C     0.83904   0.97763   0.28653   0.00000  Uiso   1.00
C601   C     0.82755   0.68930   0.21411   0.00000  Uiso   1.00
C602   C     0.84088   0.68752   0.28696   0.00000  Uiso   1.00
H603   H     0.78272   0.80005   0.06609   0.00000  Uiso   1.00
H604   H     0.85421   0.93012   0.45054   0.00000  Uiso   1.00
H605   H     0.84333   0.95980   0.31443   0.00000  Uiso   1.00
H606   H     0.82328   0.70716   0.18618   0.00000  Uiso   1.00
H607   H     0.72406   0.77542   0.21591   0.00000  Uiso   1.00
H608   H     0.94296   0.89174   0.28295   0.00000  Uiso   1.00
H609   H     0.69844   0.70878   0.18980   0.00000  Uiso   1.00
H610   H     0.73339   0.93129   0.33724   0.00000  Uiso   1.00
N611   N     0.71426   0.83334   0.25001   0.00000  Uiso   1.00
N612   N     0.95241   0.83332   0.24999   0.00000  Uiso   1.00
O613   O     0.79512   0.89442   0.25001   0.00000  Uiso   1.00
O614   O     0.94384   0.76481   0.17458   0.00000  Uiso   1.00
O615   O     0.69033   0.73085   0.17096   0.00000  Uiso   1.00
O616   O     0.98221   0.93550   0.32196   0.00000  Uiso   1.00
O617   O     0.71940   0.94163   0.25741   0.00000  Uiso   1.00
O618   O     0.72547   0.90315   0.32877   0.00000  Uiso   1.00
O619   O     0.87154   0.77225   0.24999   0.00000  Uiso   1.00
O620   O     0.87157   0.89441   0.25000   0.00000  Uiso   1.00
O621   O     0.79510   0.77226   0.25000   0.00000  Uiso   1.00
O622   O     0.77328   0.83334   0.31613   0.00000  Uiso   1.00
O623   O     0.89339   0.83333   0.18388   0.00000  Uiso   1.00
O624   O     0.84972   0.83333   0.31612   0.00000  Uiso   1.00
O625   O     0.81695   0.83334   0.18388   0.00000  Uiso   1.00
O626   O     0.94852   0.72454   0.23963   0.00000  Uiso   1.00
S627   S     0.97325   0.75485   0.20395   0.00000  Uiso   1.00
S628   S     0.69390   0.91283   0.29436   0.00000  Uiso   1.00
Zn629  Zn    0.78229   0.83334   0.25000   0.00000  Uiso   1.00
Zn630  Zn    0.88438   0.83333   0.25000   0.00000  Uiso   1.00
Br631  Br    0.04469   0.10199   0.53273   0.00000  Uiso   1.00
Br632  Br    0.15300   0.28584   0.66126   0.00000  Uiso   1.00
Br633  Br    0.26410   0.28677   0.98218   0.00000  Uiso   1.00
Br634  Br    0.10110   0.19504   0.63159   0.00000  Uiso   1.00
Br635  Br    0.20186   0.22479   0.87441   0.00000  Uiso   1.00
Br636  Br    0.30638   0.18462   0.60596   0.00000  Uiso   1.00
Br637  Br    0.04161   0.11989   0.88582   0.00000  Uiso   1.00
Br638  Br    0.02569   0.22203   0.95547   0.00000  Uiso   1.00
Br639  Br    0.28521   0.14890   0.50489   0.00000  Uiso   1.00
Br640  Br    0.18220   0.04851   0.83841   0.00000  Uiso   1.00
C641   C     0.16606   0.24641   0.74971   0.00000  Uiso   1.00
C642   C     0.15937   0.31281   0.71354   0.00000  Uiso   1.00
C643   C     0.16846   0.04281   0.75045   0.00000  Uiso   1.00
C644   C     0.16478   0.29072   0.75013   0.00000  Uiso   1.00
C645   C     0.31880   0.13397   0.73020   0.00000  Uiso   1.00
C646   C     0.01463   0.19954   0.76953   0.00000  Uiso   1.00
C647   C     0.03247   0.13443   0.73086   0.00000  Uiso   1.00
C648   C     0.30097   0.19904   0.76880   0.00000  Uiso   1.00
C649   C     0.13785   0.16789   0.83684   0.00000  Uiso   1.00
C650   C     0.19466   0.17003   0.66319   0.00000  Uiso   1.00
C651   C     0.12098   0.17290   0.88552   0.00000  Uiso   1.00
C652   C     0.16718   0.08700   0.75061   0.00000  Uiso   1.00
C653   C     0.20558   0.18089   0.61539   0.00000  Uiso   1.00
C654   C     0.05805   0.16871   0.95420   0.00000  Uiso   1.00
C655   C     0.25912   0.19782   0.54185   0.00000  Uiso   1.00
C656   C     0.07765   0.15607   0.91003   0.00000  Uiso   1.00
C657   C     0.25182   0.18820   0.58699   0.00000  Uiso   1.00
C658   C     0.14576   0.19659   0.90879   0.00000  Uiso   1.00
C659   C     0.16789   0.18517   0.59677   0.00000  Uiso   1.00
C660   C     0.13036   0.19472   0.95686   0.00000  Uiso   1.00
C661   C     0.17866   0.19440   0.55134   0.00000  Uiso   1.00
C662   C     0.08974   0.17183   0.97718   0.00000  Uiso   1.00
C663   C     0.11697   0.15410   0.53851   0.00000  Uiso   1.00
C664   C     0.22073   0.21331   0.53046   0.00000  Uiso   1.00
C665   C     0.15653   0.20697   0.98459   0.00000  Uiso   1.00
C666   C     0.14923   0.18623   0.52604   0.00000  Uiso   1.00
C667   C     0.18910   0.23904   0.97386   0.00000  Uiso   1.00
C668   C     0.08585   0.14798   0.51539   0.00000  Uiso   1.00
C669   C     0.22351   0.24041   0.99464   0.00000  Uiso   1.00
C670   C     0.17237   0.31096   0.78653   0.00000  Uiso   1.00
C671   C     0.16089   0.02263   0.71411   0.00000  Uiso   1.00
C672   C     0.17421   0.02085   0.78696   0.00000  Uiso   1.00
H673   H     0.11605   0.13338   0.56609   0.00000  Uiso   1.00
H674   H     0.18754   0.26346   0.95054   0.00000  Uiso   1.00
H675   H     0.17666   0.29313   0.81443   0.00000  Uiso   1.00
H676   H     0.15661   0.04049   0.68618   0.00000  Uiso   1.00
H677   H     0.05739   0.10875   0.71591   0.00000  Uiso   1.00
H678   H     0.27629   0.22508   0.78295   0.00000  Uiso   1.00
H679   H     0.03177   0.04212   0.68980   0.00000  Uiso   1.00
H680   H     0.06672   0.26463   0.83724   0.00000  Uiso   1.00
N681   N     0.04759   0.16668   0.75001   0.00000  Uiso   1.00
N682   N     0.28574   0.16666   0.74999   0.00000  Uiso   1.00
O683   O     0.12846   0.22775   0.75001   0.00000  Uiso   1.00
O684   O     0.27718   0.09814   0.67458   0.00000  Uiso   1.00
O685   O     0.02366   0.06418   0.67096   0.00000  Uiso   1.00
O686   O     0.31555   0.26883   0.82196   0.00000  Uiso   1.00
O687   O     0.05273   0.27497   0.75741   0.00000  Uiso   1.00
O688   O     0.05880   0.23649   0.82877   0.00000  Uiso   1.00
O689   O     0.20488   0.10558   0.74999   0.00000  Uiso   1.00
O690   O     0.20490   0.22774   0.75000   0.00000  Uiso   1.00
O691   O     0.12843   0.10559   0.75000   0.00000  Uiso   1.00
O692   O     0.10661   0.16667   0.81613   0.00000  Uiso   1.00
O693   O     0.22672   0.16666   0.68388   0.00000  Uiso   1.00
O694   O     0.18305   0.16666   0.81612   0.00000  Uiso   1.00
O695   O     0.15028   0.16667   0.68388   0.00000  Uiso   1.00
O696   O     0.28186   0.05787   0.73963   0.00000  Uiso   1.00
S697   S     0.30658   0.08818   0.70395   0.00000  Uiso   1.00
S698   S     0.02723   0.24617   0.79436   0.00000  Uiso   1.00
Zn699  Zn    0.11562   0.16667   0.75000   0.00000  Uiso   1.00
Zn700  Zn    0.21771   0.16666   0.75000   0.00000  Uiso   1.00
Br701  Br    0.37802   0.10199   0.53273   0.00000  Uiso   1.00
Br702  Br    0.48633   0.28584   0.66126   0.00000  Uiso   1.00
Br703  Br    0.59743   0.28677   0.98218   0.00000  Uiso   1.00
Br704  Br    0.43444   0.19504   0.63159   0.00000  Uiso   1.00
Br705  Br    0.53520   0.22479   0.87441   0.00000  Uiso   1.00
Br706  Br    0.63971   0.18462   0.60596   0.00000  Uiso   1.00
Br707  Br    0.37495   0.11989   0.88582   0.00000  Uiso   1.00
Br708  Br    0.35903   0.22203   0.95547   0.00000  Uiso   1.00
Br709  Br    0.61855   0.14890   0.50489   0.00000  Uiso   1.00
Br710  Br    0.51553   0.04851   0.83841   0.00000  Uiso   1.00
C711   C     0.49940   0.24641   0.74971   0.00000  Uiso   1.00
C712   C     0.49271   0.31281   0.71354   0.00000  Uiso   1.00
C713   C     0.50179   0.04281   0.75045   0.00000  Uiso   1.00
C714   C     0.49811   0.29072   0.75013   0.00000  Uiso   1.00
C715   C     0.65214   0.13397   0.73020   0.00000  Uiso   1.00
C716   C     0.34796   0.19954   0.76953   0.00000  Uiso   1.00
C717   C     0.36581   0.13443   0.73086   0.00000  Uiso   1.00
C718   C     0.63430   0.19904   0.76880   0.00000  Uiso   1.00
C719   C     0.47118   0.16789   0.83684   0.00000  Uiso   1.00
C720   C     0.52799   0.17003   0.66319   0.00000  Uiso   1.00
C721   C     0.45431   0.17290   0.88552   0.00000  Uiso   1.00
C722   C     0.50051   0.08700   0.75061   0.00000  Uiso   1.00
C723   C     0.53891   0.18089   0.61539   0.00000  Uiso   1.00
C724   C     0.39139   0.16871   0.95420   0.00000  Uiso   1.00
C725   C     0.59245   0.19782   0.54185   0.00000  Uiso   1.00
C726   C     0.41098   0.15607   0.91003   0.00000  Uiso   1.00
C727   C     0.58515   0.18820   0.58699   0.00000  Uiso   1.00
C728   C     0.47909   0.19659   0.90879   0.00000  Uiso   1.00
C729   C     0.50123   0.18517   0.59677   0.00000  Uiso   1.00
C730   C     0.46369   0.19472   0.95686   0.00000  Uiso   1.00
C731   C     0.51199   0.19440   0.55134   0.00000  Uiso   1.00
C732   C     0.42307   0.17183   0.97718   0.00000  Uiso   1.00
C733   C     0.45030   0.15410   0.53851   0.00000  Uiso   1.00
C734   C     0.55406   0.21331   0.53046   0.00000  Uiso   1.00
C735   C     0.48987   0.20697   0.98459   0.00000  Uiso   1.00
C736   C     0.48256   0.18623   0.52604   0.00000  Uiso   1.00
C737   C     0.52243   0.23904   0.97386   0.00000  Uiso   1.00
C738   C     0.41918   0.14798   0.51539   0.00000  Uiso   1.00
C739   C     0.55685   0.24041   0.99464   0.00000  Uiso   1.00
C740   C     0.50571   0.31096   0.78653   0.00000  Uiso   1.00
C741   C     0.49422   0.02263   0.71411   0.00000  Uiso   1.00
C742   C     0.50755   0.02085   0.78696   0.00000  Uiso   1.00
H743   H     0.44938   0.13338   0.56609   0.00000  Uiso   1.00
H744   H     0.52088   0.26346   0.95054   0.00000  Uiso   1.00
H745   H     0.51000   0.29313   0.81443   0.00000  Uiso   1.00
H746   H     0.48994   0.04049   0.68618   0.00000  Uiso   1.00
H747   H     0.39072   0.10875   0.71591   0.00000  Uiso   1.00
H748   H     0.60963   0.22508   0.78295   0.00000  Uiso   1.00
H749   H     0.36510   0.04212   0.68980   0.00000  Uiso   1.00
H750   H     0.40005   0.26463   0.83724   0.00000  Uiso   1.00
N751   N     0.38093   0.16668   0.75001   0.00000  Uiso   1.00
N752   N     0.61907   0.16666   0.74999   0.00000  Uiso   1.00
O753   O     0.46179   0.22775   0.75001   0.00000  Uiso   1.00
O754   O     0.61051   0.09814   0.67458   0.00000  Uiso   1.00
O755   O     0.35699   0.06418   0.67096   0.00000  Uiso   1.00
O756   O     0.64888   0.26883   0.82196   0.00000  Uiso   1.00
O757   O     0.38606   0.27497   0.75741   0.00000  Uiso   1.00
O758   O     0.39213   0.23649   0.82877   0.00000  Uiso   1.00
O759   O     0.53821   0.10558   0.74999   0.00000  Uiso   1.00
O760   O     0.53823   0.22774   0.75000   0.00000  Uiso   1.00
O761   O     0.46177   0.10559   0.75000   0.00000  Uiso   1.00
O762   O     0.43994   0.16667   0.81613   0.00000  Uiso   1.00
O763   O     0.56006   0.16666   0.68388   0.00000  Uiso   1.00
O764   O     0.51639   0.16666   0.81612   0.00000  Uiso   1.00
O765   O     0.48361   0.16667   0.68388   0.00000  Uiso   1.00
O766   O     0.61519   0.05787   0.73963   0.00000  Uiso   1.00
S767   S     0.63992   0.08818   0.70395   0.00000  Uiso   1.00
S768   S     0.36057   0.24617   0.79436   0.00000  Uiso   1.00
Zn769  Zn    0.44896   0.16667   0.75000   0.00000  Uiso   1.00
Zn770  Zn    0.55104   0.16666   0.75000   0.00000  Uiso   1.00
Br771  Br    0.71136   0.10199   0.53273   0.00000  Uiso   1.00
Br772  Br    0.81966   0.28584   0.66126   0.00000  Uiso   1.00
Br773  Br    0.93077   0.28677   0.98218   0.00000  Uiso   1.00
Br774  Br    0.76777   0.19504   0.63159   0.00000  Uiso   1.00
Br775  Br    0.86853   0.22479   0.87441   0.00000  Uiso   1.00
Br776  Br    0.97305   0.18462   0.60596   0.00000  Uiso   1.00
Br777  Br    0.70828   0.11989   0.88582   0.00000  Uiso   1.00
Br778  Br    0.69236   0.22203   0.95547   0.00000  Uiso   1.00
Br779  Br    0.95188   0.14890   0.50489   0.00000  Uiso   1.00
Br780  Br    0.84886   0.04851   0.83841   0.00000  Uiso   1.00
C781   C     0.83273   0.24641   0.74971   0.00000  Uiso   1.00
C782   C     0.82604   0.31281   0.71354   0.00000  Uiso   1.00
C783   C     0.83513   0.04281   0.75045   0.00000  Uiso   1.00
C784   C     0.83145   0.29072   0.75013   0.00000  Uiso   1.00
C785   C     0.98547   0.13397   0.73020   0.00000  Uiso   1.00
C786   C     0.68129   0.19954   0.76953   0.00000  Uiso   1.00
C787   C     0.69914   0.13443   0.73086   0.00000  Uiso   1.00
C788   C     0.96763   0.19904   0.76880   0.00000  Uiso   1.00
C789   C     0.80451   0.16789   0.83684   0.00000  Uiso   1.00
C790   C     0.86132   0.17003   0.66319   0.00000  Uiso   1.00
C791   C     0.78765   0.17290   0.88552   0.00000  Uiso   1.00
C792   C     0.83385   0.08700   0.75061   0.00000  Uiso   1.00
C793   C     0.87224   0.18089   0.61539   0.00000  Uiso   1.00
C794   C     0.72472   0.16871   0.95420   0.00000  Uiso   1.00
C795   C     0.92579   0.19782   0.54185   0.00000  Uiso   1.00
C796   C     0.74432   0.15607   0.91003   0.00000  Uiso   1.00
C797   C     0.91848   0.18820   0.58699   0.00000  Uiso   1.00
C798   C     0.81242   0.19659   0.90879   0.00000  Uiso   1.00
C799   C     0.83456   0.18517   0.59677   0.00000  Uiso   1.00
C800   C     0.79702   0.19472   0.95686   0.00000  Uiso   1.00
C801   C     0.84532   0.19440   0.55134   0.00000  Uiso   1.00
C802   C     0.75641   0.17183   0.97718   0.00000  Uiso   1.00
C803   C     0.78364   0.15410   0.53851   0.00000  Uiso   1.00
C804   C     0.88740   0.21331   0.53046   0.00000  Uiso   1.00
C805   C     0.82320   0.20697   0.98459   0.00000  Uiso   1.00
C806   C     0.81589   0.18623   0.52604   0.00000  Uiso   1.00
C807   C     0.85577   0.23904   0.97386   0.00000  Uiso   1.00
C808   C     0.75251   0.14798   0.51539   0.00000  Uiso   1.00
C809   C     0.89018   0.24041   0.99464   0.00000  Uiso   1.00
C810   C     0.83904   0.31096   0.78653   0.00000  Uiso   1.00
C811   C     0.82755   0.02263   0.71411   0.00000  Uiso   1.00
C812   C     0.84088   0.02085   0.78696   0.00000  Uiso   1.00
H813   H     0.78272   0.13338   0.56609   0.00000  Uiso   1.00
H814   H     0.85421   0.26346   0.95054   0.00000  Uiso   1.00
H815   H     0.84333   0.29313   0.81443   0.00000  Uiso   1.00
H816   H     0.82328   0.04049   0.68618   0.00000  Uiso   1.00
H817   H     0.72406   0.10875   0.71591   0.00000  Uiso   1.00
H818   H     0.94296   0.22508   0.78295   0.00000  Uiso   1.00
H819   H     0.69844   0.04212   0.68980   0.00000  Uiso   1.00
H820   H     0.73339   0.26463   0.83724   0.00000  Uiso   1.00
N821   N     0.71426   0.16668   0.75001   0.00000  Uiso   1.00
N822   N     0.95241   0.16666   0.74999   0.00000  Uiso   1.00
O823   O     0.79512   0.22775   0.75001   0.00000  Uiso   1.00
O824   O     0.94384   0.09814   0.67458   0.00000  Uiso   1.00
O825   O     0.69033   0.06418   0.67096   0.00000  Uiso   1.00
O826   O     0.98221   0.26883   0.82196   0.00000  Uiso   1.00
O827   O     0.71940   0.27497   0.75741   0.00000  Uiso   1.00
O828   O     0.72547   0.23649   0.82877   0.00000  Uiso   1.00
O829   O     0.87154   0.10558   0.74999   0.00000  Uiso   1.00
O830   O     0.87157   0.22774   0.75000   0.00000  Uiso   1.00
O831   O     0.79510   0.10559   0.75000   0.00000  Uiso   1.00
O832   O     0.77328   0.16667   0.81613   0.00000  Uiso   1.00
O833   O     0.89339   0.16666   0.68388   0.00000  Uiso   1.00
O834   O     0.84972   0.16666   0.81612   0.00000  Uiso   1.00
O835   O     0.81695   0.16667   0.68388   0.00000  Uiso   1.00
O836   O     0.94852   0.05787   0.73963   0.00000  Uiso   1.00
S837   S     0.97325   0.08818   0.70395   0.00000  Uiso   1.00
S838   S     0.69390   0.24617   0.79436   0.00000  Uiso   1.00
Zn839  Zn    0.78229   0.16667   0.75000   0.00000  Uiso   1.00
Zn840  Zn    0.88438   0.16666   0.75000   0.00000  Uiso   1.00
Br841  Br    0.04469   0.43532   0.53273   0.00000  Uiso   1.00
Br842  Br    0.15300   0.61917   0.66126   0.00000  Uiso   1.00
Br843  Br    0.26410   0.62011   0.98218   0.00000  Uiso   1.00
Br844  Br    0.10110   0.52837   0.63159   0.00000  Uiso   1.00
Br845  Br    0.20186   0.55812   0.87441   0.00000  Uiso   1.00
Br846  Br    0.30638   0.51796   0.60596   0.00000  Uiso   1.00
Br847  Br    0.04161   0.45323   0.88582   0.00000  Uiso   1.00
Br848  Br    0.02569   0.55536   0.95547   0.00000  Uiso   1.00
Br849  Br    0.28521   0.48223   0.50489   0.00000  Uiso   1.00
Br850  Br    0.18220   0.38185   0.83841   0.00000  Uiso   1.00
C851   C     0.16606   0.57974   0.74971   0.00000  Uiso   1.00
C852   C     0.15937   0.64614   0.71354   0.00000  Uiso   1.00
C853   C     0.16846   0.37614   0.75045   0.00000  Uiso   1.00
C854   C     0.16478   0.62405   0.75013   0.00000  Uiso   1.00
C855   C     0.31880   0.46730   0.73020   0.00000  Uiso   1.00
C856   C     0.01463   0.53288   0.76953   0.00000  Uiso   1.00
C857   C     0.03247   0.46777   0.73086   0.00000  Uiso   1.00
C858   C     0.30097   0.53238   0.76880   0.00000  Uiso   1.00
C859   C     0.13785   0.50122   0.83684   0.00000  Uiso   1.00
C860   C     0.19466   0.50337   0.66319   0.00000  Uiso   1.00
C861   C     0.12098   0.50623   0.88552   0.00000  Uiso   1.00
C862   C     0.16718   0.42033   0.75061   0.00000  Uiso   1.00
C863   C     0.20558   0.51422   0.61539   0.00000  Uiso   1.00
C864   C     0.05805   0.50204   0.95420   0.00000  Uiso   1.00
C865   C     0.25912   0.53115   0.54185   0.00000  Uiso   1.00
C866   C     0.07765   0.48940   0.91003   0.00000  Uiso   1.00
C867   C     0.25182   0.52153   0.58699   0.00000  Uiso   1.00
C868   C     0.14576   0.52992   0.90879   0.00000  Uiso   1.00
C869   C     0.16789   0.51850   0.59677   0.00000  Uiso   1.00
C870   C     0.13036   0.52805   0.95686   0.00000  Uiso   1.00
C871   C     0.17866   0.52773   0.55134   0.00000  Uiso   1.00
C872   C     0.08974   0.50517   0.97718   0.00000  Uiso   1.00
C873   C     0.11697   0.48744   0.53851   0.00000  Uiso   1.00
C874   C     0.22073   0.54665   0.53046   0.00000  Uiso   1.00
C875   C     0.15653   0.54030   0.98459   0.00000  Uiso   1.00
C876   C     0.14923   0.51956   0.52604   0.00000  Uiso   1.00
C877   C     0.18910   0.57237   0.97386   0.00000  Uiso   1.00
C878   C     0.08585   0.48132   0.51539   0.00000  Uiso   1.00
C879   C     0.22351   0.57374   0.99464   0.00000  Uiso   1.00
C880   C     0.17237   0.64429   0.78653   0.00000  Uiso   1.00
C881   C     0.16089   0.35596   0.71411   0.00000  Uiso   1.00
C882   C     0.17421   0.35419   0.78696   0.00000  Uiso   1.00
H883   H     0.11605   0.46672   0.56609   0.00000  Uiso   1.00
H884   H     0.18754   0.59679   0.95054   0.00000  Uiso   1.00
H885   H     0.17666   0.62647   0.81443   0.00000  Uiso   1.00
H886   H     0.15661   0.37383   0.68618   0.00000  Uiso   1.00
H887   H     0.05739   0.44209   0.71591   0.00000  Uiso   1.00
H888   H     0.27629   0.55841   0.78295   0.00000  Uiso   1.00
H889   H     0.03177   0.37545   0.68980   0.00000  Uiso   1.00
H890   H     0.06672   0.59796   0.83724   0.00000  Uiso   1.00
N891   N     0.04759   0.50001   0.75001   0.00000  Uiso   1.00
N892   N     0.28574   0.49999   0.74999   0.00000  Uiso   1.00
O893   O     0.12846   0.56108   0.75001   0.00000  Uiso   1.00
O894   O     0.27718   0.43148   0.67458   0.00000  Uiso   1.00
O895   O     0.02366   0.39752   0.67096   0.00000  Uiso   1.00
O896   O     0.31555   0.60217   0.82196   0.00000  Uiso   1.00
O897   O     0.05273   0.60830   0.75741   0.00000  Uiso   1.00
O898   O     0.05880   0.56982   0.82877   0.00000  Uiso   1.00
O899   O     0.20488   0.43892   0.74999   0.00000  Uiso   1.00
O900   O     0.20490   0.56107   0.75000   0.00000  Uiso   1.00
O901   O     0.12843   0.43893   0.75000   0.00000  Uiso   1.00
O902   O     0.10661   0.50001   0.81613   0.00000  Uiso   1.00
O903   O     0.22672   0.49999   0.68388   0.00000  Uiso   1.00
O904   O     0.18305   0.50000   0.81612   0.00000  Uiso   1.00
O905   O     0.15028   0.50000   0.68388   0.00000  Uiso   1.00
O906   O     0.28186   0.39121   0.73963   0.00000  Uiso   1.00
S907   S     0.30658   0.42152   0.70395   0.00000  Uiso   1.00
S908   S     0.02723   0.57950   0.79436   0.00000  Uiso   1.00
Zn909  Zn    0.11562   0.50001   0.75000   0.00000  Uiso   1.00
Zn910  Zn    0.21771   0.49999   0.75000   0.00000  Uiso   1.00
Br911  Br    0.37802   0.43532   0.53273   0.00000  Uiso   1.00
Br912  Br    0.48633   0.61917   0.66126   0.00000  Uiso   1.00
Br913  Br    0.59743   0.62011   0.98218   0.00000  Uiso   1.00
Br914  Br    0.43444   0.52837   0.63159   0.00000  Uiso   1.00
Br915  Br    0.53520   0.55812   0.87441   0.00000  Uiso   1.00
Br916  Br    0.63971   0.51796   0.60596   0.00000  Uiso   1.00
Br917  Br    0.37495   0.45323   0.88582   0.00000  Uiso   1.00
Br918  Br    0.35903   0.55536   0.95547   0.00000  Uiso   1.00
Br919  Br    0.61855   0.48223   0.50489   0.00000  Uiso   1.00
Br920  Br    0.51553   0.38185   0.83841   0.00000  Uiso   1.00
C921   C     0.49940   0.57974   0.74971   0.00000  Uiso   1.00
C922   C     0.49271   0.64614   0.71354   0.00000  Uiso   1.00
C923   C     0.50179   0.37614   0.75045   0.00000  Uiso   1.00
C924   C     0.49811   0.62405   0.75013   0.00000  Uiso   1.00
C925   C     0.65214   0.46730   0.73020   0.00000  Uiso   1.00
C926   C     0.34796   0.53288   0.76953   0.00000  Uiso   1.00
C927   C     0.36581   0.46777   0.73086   0.00000  Uiso   1.00
C928   C     0.63430   0.53238   0.76880   0.00000  Uiso   1.00
C929   C     0.47118   0.50122   0.83684   0.00000  Uiso   1.00
C930   C     0.52799   0.50337   0.66319   0.00000  Uiso   1.00
C931   C     0.45431   0.50623   0.88552   0.00000  Uiso   1.00
C932   C     0.50051   0.42033   0.75061   0.00000  Uiso   1.00
C933   C     0.53891   0.51422   0.61539   0.00000  Uiso   1.00
C934   C     0.39139   0.50204   0.95420   0.00000  Uiso   1.00
C935   C     0.59245   0.53115   0.54185   0.00000  Uiso   1.00
C936   C     0.41098   0.48940   0.91003   0.00000  Uiso   1.00
C937   C     0.58515   0.52153   0.58699   0.00000  Uiso   1.00
C938   C     0.47909   0.52992   0.90879   0.00000  Uiso   1.00
C939   C     0.50123   0.51850   0.59677   0.00000  Uiso   1.00
C940   C     0.46369   0.52805   0.95686   0.00000  Uiso   1.00
C941   C     0.51199   0.52773   0.55134   0.00000  Uiso   1.00
C942   C     0.42307   0.50517   0.97718   0.00000  Uiso   1.00
C943   C     0.45030   0.48744   0.53851   0.00000  Uiso   1.00
C944   C     0.55406   0.54665   0.53046   0.00000  Uiso   1.00
C945   C     0.48987   0.54030   0.98459   0.00000  Uiso   1.00
C946   C     0.48256   0.51956   0.52604   0.00000  Uiso   1.00
C947   C     0.52243   0.57237   0.97386   0.00000  Uiso   1.00
C948   C     0.41918   0.48132   0.51539   0.00000  Uiso   1.00
C949   C     0.55685   0.57374   0.99464   0.00000  Uiso   1.00
C950   C     0.50571   0.64429   0.78653   0.00000  Uiso   1.00
C951   C     0.49422   0.35596   0.71411   0.00000  Uiso   1.00
C952   C     0.50755   0.35419   0.78696   0.00000  Uiso   1.00
H953   H     0.44938   0.46672   0.56609   0.00000  Uiso   1.00
H954   H     0.52088   0.59679   0.95054   0.00000  Uiso   1.00
H955   H     0.51000   0.62647   0.81443   0.00000  Uiso   1.00
H956   H     0.48994   0.37383   0.68618   0.00000  Uiso   1.00
H957   H     0.39072   0.44209   0.71591   0.00000  Uiso   1.00
H958   H     0.60963   0.55841   0.78295   0.00000  Uiso   1.00
H959   H     0.36510   0.37545   0.68980   0.00000  Uiso   1.00
H960   H     0.40005   0.59796   0.83724   0.00000  Uiso   1.00
N961   N     0.38093   0.50001   0.75001   0.00000  Uiso   1.00
N962   N     0.61907   0.49999   0.74999   0.00000  Uiso   1.00
O963   O     0.46179   0.56108   0.75001   0.00000  Uiso   1.00
O964   O     0.61051   0.43148   0.67458   0.00000  Uiso   1.00
O965   O     0.35699   0.39752   0.67096   0.00000  Uiso   1.00
O966   O     0.64888   0.60217   0.82196   0.00000  Uiso   1.00
O967   O     0.38606   0.60830   0.75741   0.00000  Uiso   1.00
O968   O     0.39213   0.56982   0.82877   0.00000  Uiso   1.00
O969   O     0.53821   0.43892   0.74999   0.00000  Uiso   1.00
O970   O     0.53823   0.56107   0.75000   0.00000  Uiso   1.00
O971   O     0.46177   0.43893   0.75000   0.00000  Uiso   1.00
O972   O     0.43994   0.50001   0.81613   0.00000  Uiso   1.00
O973   O     0.56006   0.49999   0.68388   0.00000  Uiso   1.00
O974   O     0.51639   0.50000   0.81612   0.00000  Uiso   1.00
O975   O     0.48361   0.50000   0.68388   0.00000  Uiso   1.00
O976   O     0.61519   0.39121   0.73963   0.00000  Uiso   1.00
S977   S     0.63992   0.42152   0.70395   0.00000  Uiso   1.00
S978   S     0.36057   0.57950   0.79436   0.00000  Uiso   1.00
Zn979  Zn    0.44896   0.50001   0.75000   0.00000  Uiso   1.00
Zn980  Zn    0.55104   0.49999   0.75000   0.00000  Uiso   1.00
Br981  Br    0.71136   0.43532   0.53273   0.00000  Uiso   1.00
Br982  Br    0.81966   0.61917   0.66126   0.00000  Uiso   1.00
Br983  Br    0.93077   0.62011   0.98218   0.00000  Uiso   1.00
Br984  Br    0.76777   0.52837   0.63159   0.00000  Uiso   1.00
Br985  Br    0.86853   0.55812   0.87441   0.00000  Uiso   1.00
Br986  Br    0.97305   0.51796   0.60596   0.00000  Uiso   1.00
Br987  Br    0.70828   0.45323   0.88582   0.00000  Uiso   1.00
Br988  Br    0.69236   0.55536   0.95547   0.00000  Uiso   1.00
Br989  Br    0.95188   0.48223   0.50489   0.00000  Uiso   1.00
Br990  Br    0.84886   0.38185   0.83841   0.00000  Uiso   1.00
C991   C     0.83273   0.57974   0.74971   0.00000  Uiso   1.00
C992   C     0.82604   0.64614   0.71354   0.00000  Uiso   1.00
C993   C     0.83513   0.37614   0.75045   0.00000  Uiso   1.00
C994   C     0.83145   0.62405   0.75013   0.00000  Uiso   1.00
C995   C     0.98547   0.46730   0.73020   0.00000  Uiso   1.00
C996   C     0.68129   0.53288   0.76953   0.00000  Uiso   1.00
C997   C     0.69914   0.46777   0.73086   0.00000  Uiso   1.00
C998   C     0.96763   0.53238   0.76880   0.00000  Uiso   1.00
C999   C     0.80451   0.50122   0.83684   0.00000  Uiso   1.00
C1000  C     0.86132   0.50337   0.66319   0.00000  Uiso   1.00
C1001  C     0.78765   0.50623   0.88552   0.00000  Uiso   1.00
C1002  C     0.83385   0.42033   0.75061   0.00000  Uiso   1.00
C1003  C     0.87224   0.51422   0.61539   0.00000  Uiso   1.00
C1004  C     0.72472   0.50204   0.95420   0.00000  Uiso   1.00
C1005  C     0.92579   0.53115   0.54185   0.00000  Uiso   1.00
C1006  C     0.74432   0.48940   0.91003   0.00000  Uiso   1.00
C1007  C     0.91848   0.52153   0.58699   0.00000  Uiso   1.00
C1008  C     0.81242   0.52992   0.90879   0.00000  Uiso   1.00
C1009  C     0.83456   0.51850   0.59677   0.00000  Uiso   1.00
C1010  C     0.79702   0.52805   0.95686   0.00000  Uiso   1.00
C1011  C     0.84532   0.52773   0.55134   0.00000  Uiso   1.00
C1012  C     0.75641   0.50517   0.97718   0.00000  Uiso   1.00
C1013  C     0.78364   0.48744   0.53851   0.00000  Uiso   1.00
C1014  C     0.88740   0.54665   0.53046   0.00000  Uiso   1.00
C1015  C     0.82320   0.54030   0.98459   0.00000  Uiso   1.00
C1016  C     0.81589   0.51956   0.52604   0.00000  Uiso   1.00
C1017  C     0.85577   0.57237   0.97386   0.00000  Uiso   1.00
C1018  C     0.75251   0.48132   0.51539   0.00000  Uiso   1.00
C1019  C     0.89018   0.57374   0.99464   0.00000  Uiso   1.00
C1020  C     0.83904   0.64429   0.78653   0.00000  Uiso   1.00
C1021  C     0.82755   0.35596   0.71411   0.00000  Uiso   1.00
C1022  C     0.84088   0.35419   0.78696   0.00000  Uiso   1.00
H1023  H     0.78272   0.46672   0.56609   0.00000  Uiso   1.00
H1024  H     0.85421   0.59679   0.95054   0.00000  Uiso   1.00
H1025  H     0.84333   0.62647   0.81443   0.00000  Uiso   1.00
H1026  H     0.82328   0.37383   0.68618   0.00000  Uiso   1.00
H1027  H     0.72406   0.44209   0.71591   0.00000  Uiso   1.00
H1028  H     0.94296   0.55841   0.78295   0.00000  Uiso   1.00
H1029  H     0.69844   0.37545   0.68980   0.00000  Uiso   1.00
H1030  H     0.73339   0.59796   0.83724   0.00000  Uiso   1.00
N1031  N     0.71426   0.50001   0.75001   0.00000  Uiso   1.00
N1032  N     0.95241   0.49999   0.74999   0.00000  Uiso   1.00
O1033  O     0.79512   0.56108   0.75001   0.00000  Uiso   1.00
O1034  O     0.94384   0.43148   0.67458   0.00000  Uiso   1.00
O1035  O     0.69033   0.39752   0.67096   0.00000  Uiso   1.00
O1036  O     0.98221   0.60217   0.82196   0.00000  Uiso   1.00
O1037  O     0.71940   0.60830   0.75741   0.00000  Uiso   1.00
O1038  O     0.72547   0.56982   0.82877   0.00000  Uiso   1.00
O1039  O     0.87154   0.43892   0.74999   0.00000  Uiso   1.00
O1040  O     0.87157   0.56107   0.75000   0.00000  Uiso   1.00
O1041  O     0.79510   0.43893   0.75000   0.00000  Uiso   1.00
O1042  O     0.77328   0.50001   0.81613   0.00000  Uiso   1.00
O1043  O     0.89339   0.49999   0.68388   0.00000  Uiso   1.00
O1044  O     0.84972   0.50000   0.81612   0.00000  Uiso   1.00
O1045  O     0.81695   0.50000   0.68388   0.00000  Uiso   1.00
O1046  O     0.94852   0.39121   0.73963   0.00000  Uiso   1.00
S1047  S     0.97325   0.42152   0.70395   0.00000  Uiso   1.00
S1048  S     0.69390   0.57950   0.79436   0.00000  Uiso   1.00
Zn1049 Zn    0.78229   0.50001   0.75000   0.00000  Uiso   1.00
Zn1050 Zn    0.88438   0.49999   0.75000   0.00000  Uiso   1.00
Br1051 Br    0.04469   0.76866   0.53273   0.00000  Uiso   1.00
Br1052 Br    0.15300   0.95250   0.66126   0.00000  Uiso   1.00
Br1053 Br    0.26410   0.95344   0.98218   0.00000  Uiso   1.00
Br1054 Br    0.10110   0.86171   0.63159   0.00000  Uiso   1.00
Br1055 Br    0.20186   0.89145   0.87441   0.00000  Uiso   1.00
Br1056 Br    0.30638   0.85129   0.60596   0.00000  Uiso   1.00
Br1057 Br    0.04161   0.78656   0.88582   0.00000  Uiso   1.00
Br1058 Br    0.02569   0.88869   0.95547   0.00000  Uiso   1.00
Br1059 Br    0.28521   0.81557   0.50489   0.00000  Uiso   1.00
Br1060 Br    0.18220   0.71518   0.83841   0.00000  Uiso   1.00
C1061  C     0.16606   0.91308   0.74971   0.00000  Uiso   1.00
C1062  C     0.15937   0.97947   0.71354   0.00000  Uiso   1.00
C1063  C     0.16846   0.70948   0.75045   0.00000  Uiso   1.00
C1064  C     0.16478   0.95739   0.75013   0.00000  Uiso   1.00
C1065  C     0.31880   0.80064   0.73020   0.00000  Uiso   1.00
C1066  C     0.01463   0.86621   0.76953   0.00000  Uiso   1.00
C1067  C     0.03247   0.80110   0.73086   0.00000  Uiso   1.00
C1068  C     0.30097   0.86571   0.76880   0.00000  Uiso   1.00
C1069  C     0.13785   0.83455   0.83684   0.00000  Uiso   1.00
C1070  C     0.19466   0.83670   0.66319   0.00000  Uiso   1.00
C1071  C     0.12098   0.83956   0.88552   0.00000  Uiso   1.00
C1072  C     0.16718   0.75367   0.75061   0.00000  Uiso   1.00
C1073  C     0.20558   0.84755   0.61539   0.00000  Uiso   1.00
C1074  C     0.05805   0.83537   0.95420   0.00000  Uiso   1.00
C1075  C     0.25912   0.86448   0.54185   0.00000  Uiso   1.00
C1076  C     0.07765   0.82274   0.91003   0.00000  Uiso   1.00
C1077  C     0.25182   0.85487   0.58699   0.00000  Uiso   1.00
C1078  C     0.14576   0.86326   0.90879   0.00000  Uiso   1.00
C1079  C     0.16789   0.85183   0.59677   0.00000  Uiso   1.00
C1080  C     0.13036   0.86139   0.95686   0.00000  Uiso   1.00
C1081  C     0.17866   0.86107   0.55134   0.00000  Uiso   1.00
C1082  C     0.08974   0.83850   0.97718   0.00000  Uiso   1.00
C1083  C     0.11697   0.82077   0.53851   0.00000  Uiso   1.00
C1084  C     0.22073   0.87998   0.53046   0.00000  Uiso   1.00
C1085  C     0.15653   0.87363   0.98459   0.00000  Uiso   1.00
C1086  C     0.14923   0.85289   0.52604   0.00000  Uiso   1.00
C1087  C     0.18910   0.90570   0.97386   0.00000  Uiso   1.00
C1088  C     0.08585   0.81465   0.51539   0.00000  Uiso   1.00
C1089  C     0.22351   0.90708   0.99464   0.00000  Uiso   1.00
C1090  C     0.17237   0.97763   0.78653   0.00000  Uiso   1.00
C1091  C     0.16089   0.68930   0.71411   0.00000  Uiso   1.00
C1092  C     0.17421   0.68752   0.78696   0.00000  Uiso   1.00
H1093  H     0.11605   0.80005   0.56609   0.00000  Uiso   1.00
H1094  H     0.18754   0.93012   0.95054   0.00000  Uiso   1.00
H1095  H     0.17666   0.95980   0.81443   0.00000  Uiso   1.00
H1096  H     0.15661   0.70716   0.68618   0.00000  Uiso   1.00
H1097  H     0.05739   0.77542   0.71591   0.00000  Uiso   1.00
H1098  H     0.27629   0.89174   0.78295   0.00000  Uiso   1.00
H1099  H     0.03177   0.70878   0.68980   0.00000  Uiso   1.00
H1100  H     0.06672   0.93129   0.83724   0.00000  Uiso   1.00
N1101  N     0.04759   0.83334   0.75001   0.00000  Uiso   1.00
N1102  N     0.28574   0.83332   0.74999   0.00000  Uiso   1.00
O1103  O     0.12846   0.89442   0.75001   0.00000  Uiso   1.00
O1104  O     0.27718   0.76481   0.67458   0.00000  Uiso   1.00
O1105  O     0.02366   0.73085   0.67096   0.00000  Uiso   1.00
O1106  O     0.31555   0.93550   0.82196   0.00000  Uiso   1.00
O1107  O     0.05273   0.94163   0.75741   0.00000  Uiso   1.00
O1108  O     0.05880   0.90315   0.82877   0.00000  Uiso   1.00
O1109  O     0.20488   0.77225   0.74999   0.00000  Uiso   1.00
O1110  O     0.20490   0.89441   0.75000   0.00000  Uiso   1.00
O1111  O     0.12843   0.77226   0.75000   0.00000  Uiso   1.00
O1112  O     0.10661   0.83334   0.81613   0.00000  Uiso   1.00
O1113  O     0.22672   0.83333   0.68388   0.00000  Uiso   1.00
O1114  O     0.18305   0.83333   0.81612   0.00000  Uiso   1.00
O1115  O     0.15028   0.83334   0.68388   0.00000  Uiso   1.00
O1116  O     0.28186   0.72454   0.73963   0.00000  Uiso   1.00
S1117  S     0.30658   0.75485   0.70395   0.00000  Uiso   1.00
S1118  S     0.02723   0.91283   0.79436   0.00000  Uiso   1.00
Zn1119 Zn    0.11562   0.83334   0.75000   0.00000  Uiso   1.00
Zn1120 Zn    0.21771   0.83333   0.75000   0.00000  Uiso   1.00
Br1121 Br    0.37802   0.76866   0.53273   0.00000  Uiso   1.00
Br1122 Br    0.48633   0.95250   0.66126   0.00000  Uiso   1.00
Br1123 Br    0.59743   0.95344   0.98218   0.00000  Uiso   1.00
Br1124 Br    0.43444   0.86171   0.63159   0.00000  Uiso   1.00
Br1125 Br    0.53520   0.89145   0.87441   0.00000  Uiso   1.00
Br1126 Br    0.63971   0.85129   0.60596   0.00000  Uiso   1.00
Br1127 Br    0.37495   0.78656   0.88582   0.00000  Uiso   1.00
Br1128 Br    0.35903   0.88869   0.95547   0.00000  Uiso   1.00
Br1129 Br    0.61855   0.81557   0.50489   0.00000  Uiso   1.00
Br1130 Br    0.51553   0.71518   0.83841   0.00000  Uiso   1.00
C1131  C     0.49940   0.91308   0.74971   0.00000  Uiso   1.00
C1132  C     0.49271   0.97947   0.71354   0.00000  Uiso   1.00
C1133  C     0.50179   0.70948   0.75045   0.00000  Uiso   1.00
C1134  C     0.49811   0.95739   0.75013   0.00000  Uiso   1.00
C1135  C     0.65214   0.80064   0.73020   0.00000  Uiso   1.00
C1136  C     0.34796   0.86621   0.76953   0.00000  Uiso   1.00
C1137  C     0.36581   0.80110   0.73086   0.00000  Uiso   1.00
C1138  C     0.63430   0.86571   0.76880   0.00000  Uiso   1.00
C1139  C     0.47118   0.83455   0.83684   0.00000  Uiso   1.00
C1140  C     0.52799   0.83670   0.66319   0.00000  Uiso   1.00
C1141  C     0.45431   0.83956   0.88552   0.00000  Uiso   1.00
C1142  C     0.50051   0.75367   0.75061   0.00000  Uiso   1.00
C1143  C     0.53891   0.84755   0.61539   0.00000  Uiso   1.00
C1144  C     0.39139   0.83537   0.95420   0.00000  Uiso   1.00
C1145  C     0.59245   0.86448   0.54185   0.00000  Uiso   1.00
C1146  C     0.41098   0.82274   0.91003   0.00000  Uiso   1.00
C1147  C     0.58515   0.85487   0.58699   0.00000  Uiso   1.00
C1148  C     0.47909   0.86326   0.90879   0.00000  Uiso   1.00
C1149  C     0.50123   0.85183   0.59677   0.00000  Uiso   1.00
C1150  C     0.46369   0.86139   0.95686   0.00000  Uiso   1.00
C1151  C     0.51199   0.86107   0.55134   0.00000  Uiso   1.00
C1152  C     0.42307   0.83850   0.97718   0.00000  Uiso   1.00
C1153  C     0.45030   0.82077   0.53851   0.00000  Uiso   1.00
C1154  C     0.55406   0.87998   0.53046   0.00000  Uiso   1.00
C1155  C     0.48987   0.87363   0.98459   0.00000  Uiso   1.00
C1156  C     0.48256   0.85289   0.52604   0.00000  Uiso   1.00
C1157  C     0.52243   0.90570   0.97386   0.00000  Uiso   1.00
C1158  C     0.41918   0.81465   0.51539   0.00000  Uiso   1.00
C1159  C     0.55685   0.90708   0.99464   0.00000  Uiso   1.00
C1160  C     0.50571   0.97763   0.78653   0.00000  Uiso   1.00
C1161  C     0.49422   0.68930   0.71411   0.00000  Uiso   1.00
C1162  C     0.50755   0.68752   0.78696   0.00000  Uiso   1.00
H1163  H     0.44938   0.80005   0.56609   0.00000  Uiso   1.00
H1164  H     0.52088   0.93012   0.95054   0.00000  Uiso   1.00
H1165  H     0.51000   0.95980   0.81443   0.00000  Uiso   1.00
H1166  H     0.48994   0.70716   0.68618   0.00000  Uiso   1.00
H1167  H     0.39072   0.77542   0.71591   0.00000  Uiso   1.00
H1168  H     0.60963   0.89174   0.78295   0.00000  Uiso   1.00
H1169  H     0.36510   0.70878   0.68980   0.00000  Uiso   1.00
H1170  H     0.40005   0.93129   0.83724   0.00000  Uiso   1.00
N1171  N     0.38093   0.83334   0.75001   0.00000  Uiso   1.00
N1172  N     0.61907   0.83332   0.74999   0.00000  Uiso   1.00
O1173  O     0.46179   0.89442   0.75001   0.00000  Uiso   1.00
O1174  O     0.61051   0.76481   0.67458   0.00000  Uiso   1.00
O1175  O     0.35699   0.73085   0.67096   0.00000  Uiso   1.00
O1176  O     0.64888   0.93550   0.82196   0.00000  Uiso   1.00
O1177  O     0.38606   0.94163   0.75741   0.00000  Uiso   1.00
O1178  O     0.39213   0.90315   0.82877   0.00000  Uiso   1.00
O1179  O     0.53821   0.77225   0.74999   0.00000  Uiso   1.00
O1180  O     0.53823   0.89441   0.75000   0.00000  Uiso   1.00
O1181  O     0.46177   0.77226   0.75000   0.00000  Uiso   1.00
O1182  O     0.43994   0.83334   0.81613   0.00000  Uiso   1.00
O1183  O     0.56006   0.83333   0.68388   0.00000  Uiso   1.00
O1184  O     0.51639   0.83333   0.81612   0.00000  Uiso   1.00
O1185  O     0.48361   0.83334   0.68388   0.00000  Uiso   1.00
O1186  O     0.61519   0.72454   0.73963   0.00000  Uiso   1.00
S1187  S     0.63992   0.75485   0.70395   0.00000  Uiso   1.00
S1188  S     0.36057   0.91283   0.79436   0.00000  Uiso   1.00
Zn1189 Zn    0.44896   0.83334   0.75000   0.00000  Uiso   1.00
Zn1190 Zn    0.55104   0.83333   0.75000   0.00000  Uiso   1.00
Br1191 Br    0.71136   0.76866   0.53273   0.00000  Uiso   1.00
Br1192 Br    0.81966   0.95250   0.66126   0.00000  Uiso   1.00
Br1193 Br    0.93077   0.95344   0.98218   0.00000  Uiso   1.00
Br1194 Br    0.76777   0.86171   0.63159   0.00000  Uiso   1.00
Br1195 Br    0.86853   0.89145   0.87441   0.00000  Uiso   1.00
Br1196 Br    0.97305   0.85129   0.60596   0.00000  Uiso   1.00
Br1197 Br    0.70828   0.78656   0.88582   0.00000  Uiso   1.00
Br1198 Br    0.69236   0.88869   0.95547   0.00000  Uiso   1.00
Br1199 Br    0.95188   0.81557   0.50489   0.00000  Uiso   1.00
Br1200 Br    0.84886   0.71518   0.83841   0.00000  Uiso   1.00
C1201  C     0.83273   0.91308   0.74971   0.00000  Uiso   1.00
C1202  C     0.82604   0.97947   0.71354   0.00000  Uiso   1.00
C1203  C     0.83513   0.70948   0.75045   0.00000  Uiso   1.00
C1204  C     0.83145   0.95739   0.75013   0.00000  Uiso   1.00
C1205  C     0.98547   0.80064   0.73020   0.00000  Uiso   1.00
C1206  C     0.68129   0.86621   0.76953   0.00000  Uiso   1.00
C1207  C     0.69914   0.80110   0.73086   0.00000  Uiso   1.00
C1208  C     0.96763   0.86571   0.76880   0.00000  Uiso   1.00
C1209  C     0.80451   0.83455   0.83684   0.00000  Uiso   1.00
C1210  C     0.86132   0.83670   0.66319   0.00000  Uiso   1.00
C1211  C     0.78765   0.83956   0.88552   0.00000  Uiso   1.00
C1212  C     0.83385   0.75367   0.75061   0.00000  Uiso   1.00
C1213  C     0.87224   0.84755   0.61539   0.00000  Uiso   1.00
C1214  C     0.72472   0.83537   0.95420   0.00000  Uiso   1.00
C1215  C     0.92579   0.86448   0.54185   0.00000  Uiso   1.00
C1216  C     0.74432   0.82274   0.91003   0.00000  Uiso   1.00
C1217  C     0.91848   0.85487   0.58699   0.00000  Uiso   1.00
C1218  C     0.81242   0.86326   0.90879   0.00000  Uiso   1.00
C1219  C     0.83456   0.85183   0.59677   0.00000  Uiso   1.00
C1220  C     0.79702   0.86139   0.95686   0.00000  Uiso   1.00
C1221  C     0.84532   0.86107   0.55134   0.00000  Uiso   1.00
C1222  C     0.75641   0.83850   0.97718   0.00000  Uiso   1.00
C1223  C     0.78364   0.82077   0.53851   0.00000  Uiso   1.00
C1224  C     0.88740   0.87998   0.53046   0.00000  Uiso   1.00
C1225  C     0.82320   0.87363   0.98459   0.00000  Uiso   1.00
C1226  C     0.81589   0.85289   0.52604   0.00000  Uiso   1.00
C1227  C     0.85577   0.90570   0.97386   0.00000  Uiso   1.00
C1228  C     0.75251   0.81465   0.51539   0.00000  Uiso   1.00
C1229  C     0.89018   0.90708   0.99464   0.00000  Uiso   1.00
C1230  C     0.83904   0.97763   0.78653   0.00000  Uiso   1.00
C1231  C     0.82755   0.68930   0.71411   0.00000  Uiso   1.00
C1232  C     0.84088   0.68752   0.78696   0.00000  Uiso   1.00
H1233  H     0.78272   0.80005   0.56609   0.00000  Uiso   1.00
H1234  H     0.85421   0.93012   0.95054   0.00000  Uiso   1.00
H1235  H     0.84333   0.95980   0.81443   0.00000  Uiso   1.00
H1236  H     0.82328   0.70716   0.68618   0.00000  Uiso   1.00
H1237  H     0.72406   0.77542   0.71591   0.00000  Uiso   1.00
H1238  H     0.94296   0.89174   0.78295   0.00000  Uiso   1.00
H1239  H     0.69844   0.70878   0.68980   0.00000  Uiso   1.00
H1240  H     0.73339   0.93129   0.83724   0.00000  Uiso   1.00
N1241  N     0.71426   0.83334   0.75001   0.00000  Uiso   1.00
N1242  N     0.95241   0.83332   0.74999   0.00000  Uiso   1.00
O1243  O     0.79512   0.89442   0.75001   0.00000  Uiso   1.00
O1244  O     0.94384   0.76481   0.67458   0.00000  Uiso   1.00
O1245  O     0.69033   0.73085   0.67096   0.00000  Uiso   1.00
O1246  O     0.98221   0.93550   0.82196   0.00000  Uiso   1.00
O1247  O     0.71940   0.94163   0.75741   0.00000  Uiso   1.00
O1248  O     0.72547   0.90315   0.82877   0.00000  Uiso   1.00
O1249  O     0.87154   0.77225   0.74999   0.00000  Uiso   1.00
O1250  O     0.87157   0.89441   0.75000   0.00000  Uiso   1.00
O1251  O     0.79510   0.77226   0.75000   0.00000  Uiso   1.00
O1252  O     0.77328   0.83334   0.81613   0.00000  Uiso   1.00
O1253  O     0.89339   0.83333   0.68388   0.00000  Uiso   1.00
O1254  O     0.84972   0.83333   0.81612   0.00000  Uiso   1.00
O1255  O     0.81695   0.83334   0.68388   0.00000  Uiso   1.00
O1256  O     0.94852   0.72454   0.73963   0.00000  Uiso   1.00
S1257  S     0.97325   0.75485   0.70395   0.00000  Uiso   1.00
S1258  S     0.69390   0.91283   0.79436   0.00000  Uiso   1.00
Zn1259 Zn    0.78229   0.83334   0.75000   0.00000  Uiso   1.00
Zn1260 Zn    0.88438   0.83333   0.75000   0.00000  Uiso   1.00
loop_
_geom_bond_atom_site_label_1
_geom_bond_atom_site_label_2
_geom_bond_distance
_geom_bond_site_symmetry_2
_ccdc_geom_bond_type
Br1    C38     1.919   .     S
Br2    C12     1.915   .     S
Br3    C39     1.912   .     S
Br4    C29     1.966   .     S
Br5    C28     1.942   .     S
Br6    C27     1.921   .     S
Br7    C26     1.925   .     S
Br8    C24     1.911   .     S
Br9    C25     1.915   .     S
Br10   C42     1.922   .     S
C11    O53     1.298   .     A
C11    C14     1.404   .     S
C11    O60     1.293   .     A
C12    C14     1.398   .     A
C12    C251    1.372   .     S
C13    C41     1.392   .     A
C13    C42     1.397   .     A
C13    C22     1.401   .     S
C14    C40     1.395   .     A
C15    S67     1.776   .     S
C15    N52     1.401   .     A
C15    C87     1.424   .     S
C16    S68     1.780   .     S
C16    N51     1.402   .     A
C16    C158    1.425   1_455 S
C17    N51     1.351   .     A
C17    H47     1.080   .     S
C17    C155    1.424   1_455 S
C18    N52     1.351   .     A
C18    H48     1.079   .     S
C18    C86     1.425   .     S
C19    O64     1.305   .     A
C19    C21     1.451   .     S
C19    O62     1.308   .     A
C20    C23     1.473   .     S
C20    O63     1.329   .     A
C20    O65     1.293   .     A
C21    C26     1.411   .     A
C21    C28     1.432   .     A
C22    O61     1.292   .     A
C22    O59     1.296   .     A
C23    C27     1.419   .     A
C23    C29     1.438   .     A
C24    C32     1.377   .     A
C24    C26     1.370   .     A
C25    C34     1.390   .     A
C25    C27     1.398   .     A
C28    C30     1.430   .     A
C29    C31     1.391   .     A
C30    C32     1.415   .     A
C30    C35     1.414   .     A
C31    C34     1.387   .     A
C31    C36     1.399   .     A
C32    C668    1.395   .     S
C33    C38     1.378   .     A
C33    C36     1.405   .     A
C33    H43     1.083   .     S
C34    C669    1.400   1_554 S
C35    C37     1.408   .     A
C35    C666    1.416   .     S
C36    C665    1.416   1_554 S
C37    H44     1.078   .     S
C37    C39     1.395   .     A
C38    C662    1.395   1_554 S
C39    C664    1.400   .     S
C40    H45     1.084   .     S
C40    C252    1.375   .     S
C41    H46     1.085   .     S
C41    C432    1.372   1_545 S
C42    C460    1.375   1_545 S
H49    O55     0.991   .     S
H50    O58     0.991   .     S
N51    Zn69    2.051   .     S
N52    Zn70    2.051   .     S
O53    Zn69    1.991   .     S
O54    S67     1.498   .     D
O55    S207    1.685   1_455 S
O56    S138    1.504   .     S
O57    S68     1.503   .     D
O58    S68     1.677   .     S
O59    Zn70    1.991   .     S
O60    Zn70    1.960   .     S
O61    Zn69    1.960   .     S
O62    Zn69    2.004   .     S
O63    Zn70    2.004   .     S
O64    Zn70    1.998   .     S
O65    Zn69    1.998   .     S
O66    S67     1.503   .     D
S67    O125    1.685   .     S
S68    O196    1.504   1_455 S
Br71   C108    1.919   .     S
Br72   C82     1.915   .     S
Br73   C109    1.912   .     S
Br74   C99     1.966   .     S
Br75   C98     1.942   .     S
Br76   C97     1.921   .     S
Br77   C96     1.925   .     S
Br78   C94     1.911   .     S
Br79   C95     1.915   .     S
Br80   C112    1.922   .     S
C81    O123    1.298   .     A
C81    C84     1.404   .     S
C81    O130    1.293   .     A
C82    C84     1.398   .     A
C82    C321    1.372   .     S
C83    C111    1.392   .     A
C83    C112    1.397   .     A
C83    C92     1.401   .     S
C84    C110    1.395   .     A
C85    S137    1.776   .     S
C85    N122    1.401   .     A
C85    C157    1.424   .     S
C86    S138    1.780   .     S
C86    N121    1.402   .     A
C87    N121    1.351   .     A
C87    H117    1.080   .     S
C88    N122    1.351   .     A
C88    H118    1.079   .     S
C88    C156    1.425   .     S
C89    O134    1.305   .     A
C89    C91     1.451   .     S
C89    O132    1.308   .     A
C90    C93     1.473   .     S
C90    O133    1.329   .     A
C90    O135    1.293   .     A
C91    C96     1.411   .     A
C91    C98     1.432   .     A
C92    O131    1.292   .     A
C92    O129    1.296   .     A
C93    C97     1.419   .     A
C93    C99     1.438   .     A
C94    C102    1.377   .     A
C94    C96     1.370   .     A
C95    C104    1.390   .     A
C95    C97     1.398   .     A
C98    C100    1.430   .     A
C99    C101    1.391   .     A
C100   C102    1.415   .     A
C100   C105    1.414   .     A
C101   C104    1.387   .     A
C101   C106    1.399   .     A
C102   C738    1.395   .     S
C103   C108    1.378   .     A
C103   C106    1.405   .     A
C103   H113    1.083   .     S
C104   C739    1.400   1_554 S
C105   C107    1.408   .     A
C105   C736    1.416   .     S
C106   C735    1.416   1_554 S
C107   H114    1.078   .     S
C107   C109    1.395   .     A
C108   C732    1.395   1_554 S
C109   C734    1.400   .     S
C110   H115    1.084   .     S
C110   C322    1.375   .     S
C111   H116    1.085   .     S
C111   C502    1.372   1_545 S
C112   C530    1.375   1_545 S
H119   O125    0.991   .     S
H120   O128    0.991   .     S
N121   Zn139   2.051   .     S
N122   Zn140   2.051   .     S
O123   Zn139   1.991   .     S
O124   S137    1.498   .     D
O126   S208    1.504   .     S
O127   S138    1.503   .     D
O128   S138    1.677   .     S
O129   Zn140   1.991   .     S
O130   Zn140   1.960   .     S
O131   Zn139   1.960   .     S
O132   Zn139   2.004   .     S
O133   Zn140   2.004   .     S
O134   Zn140   1.998   .     S
O135   Zn139   1.998   .     S
O136   S137    1.503   .     D
S137   O195    1.685   .     S
Br141  C178    1.919   .     S
Br142  C152    1.915   .     S
Br143  C179    1.912   .     S
Br144  C169    1.966   .     S
Br145  C168    1.942   .     S
Br146  C167    1.921   .     S
Br147  C166    1.925   .     S
Br148  C164    1.911   .     S
Br149  C165    1.915   .     S
Br150  C182    1.922   .     S
C151   O193    1.298   .     A
C151   C154    1.404   .     S
C151   O200    1.293   .     A
C152   C154    1.398   .     A
C152   C391    1.372   .     S
C153   C181    1.392   .     A
C153   C182    1.397   .     A
C153   C162    1.401   .     S
C154   C180    1.395   .     A
C155   S207    1.776   .     S
C155   N192    1.401   .     A
C155   C17     1.424   1_655 S
C156   S208    1.780   .     S
C156   N191    1.402   .     A
C157   N191    1.351   .     A
C157   H187    1.080   .     S
C158   N192    1.351   .     A
C158   H188    1.079   .     S
C158   C16     1.425   1_655 S
C159   O204    1.305   .     A
C159   C161    1.451   .     S
C159   O202    1.308   .     A
C160   C163    1.473   .     S
C160   O203    1.329   .     A
C160   O205    1.293   .     A
C161   C166    1.411   .     A
C161   C168    1.432   .     A
C162   O201    1.292   .     A
C162   O199    1.296   .     A
C163   C167    1.419   .     A
C163   C169    1.438   .     A
C164   C172    1.377   .     A
C164   C166    1.370   .     A
C165   C174    1.390   .     A
C165   C167    1.398   .     A
C168   C170    1.430   .     A
C169   C171    1.391   .     A
C170   C172    1.415   .     A
C170   C175    1.414   .     A
C171   C174    1.387   .     A
C171   C176    1.399   .     A
C172   C808    1.395   .     S
C173   C178    1.378   .     A
C173   C176    1.405   .     A
C173   H183    1.083   .     S
C174   C809    1.400   1_554 S
C175   C177    1.408   .     A
C175   C806    1.416   .     S
C176   C805    1.416   1_554 S
C177   H184    1.078   .     S
C177   C179    1.395   .     A
C178   C802    1.395   1_554 S
C179   C804    1.400   .     S
C180   H185    1.084   .     S
C180   C392    1.375   .     S
C181   H186    1.085   .     S
C181   C572    1.372   1_545 S
C182   C600    1.375   1_545 S
H189   O195    0.991   .     S
H190   O198    0.991   .     S
N191   Zn209   2.051   .     S
N192   Zn210   2.051   .     S
O193   Zn209   1.991   .     S
O194   S207    1.498   .     D
O196   S68     1.504   1_655 S
O197   S208    1.503   .     D
O198   S208    1.677   .     S
O199   Zn210   1.991   .     S
O200   Zn210   1.960   .     S
O201   Zn209   1.960   .     S
O202   Zn209   2.004   .     S
O203   Zn210   2.004   .     S
O204   Zn210   1.998   .     S
O205   Zn209   1.998   .     S
O206   S207    1.503   .     D
S207   O55     1.685   1_655 S
Br211  C248    1.919   .     S
Br212  C222    1.915   .     S
Br213  C249    1.912   .     S
Br214  C239    1.966   .     S
Br215  C238    1.942   .     S
Br216  C237    1.921   .     S
Br217  C236    1.925   .     S
Br218  C234    1.911   .     S
Br219  C235    1.915   .     S
Br220  C252    1.922   .     S
C221   O263    1.298   .     A
C221   C224    1.404   .     S
C221   O270    1.293   .     A
C222   C224    1.398   .     A
C222   C461    1.372   .     S
C223   C251    1.392   .     A
C223   C252    1.397   .     A
C223   C232    1.401   .     S
C224   C250    1.395   .     A
C225   S277    1.776   .     S
C225   N262    1.401   .     A
C225   C297    1.424   .     S
C226   S278    1.780   .     S
C226   N261    1.402   .     A
C226   C368    1.425   1_455 S
C227   N261    1.351   .     A
C227   H257    1.080   .     S
C227   C365    1.424   1_455 S
C228   N262    1.351   .     A
C228   H258    1.079   .     S
C228   C296    1.425   .     S
C229   O274    1.305   .     A
C229   C231    1.451   .     S
C229   O272    1.308   .     A
C230   C233    1.473   .     S
C230   O273    1.329   .     A
C230   O275    1.293   .     A
C231   C236    1.411   .     A
C231   C238    1.432   .     A
C232   O271    1.292   .     A
C232   O269    1.296   .     A
C233   C237    1.419   .     A
C233   C239    1.438   .     A
C234   C242    1.377   .     A
C234   C236    1.370   .     A
C235   C244    1.390   .     A
C235   C237    1.398   .     A
C238   C240    1.430   .     A
C239   C241    1.391   .     A
C240   C242    1.415   .     A
C240   C245    1.414   .     A
C241   C244    1.387   .     A
C241   C246    1.399   .     A
C242   C878    1.395   .     S
C243   C248    1.378   .     A
C243   C246    1.405   .     A
C243   H253    1.083   .     S
C244   C879    1.400   1_554 S
C245   C247    1.408   .     A
C245   C876    1.416   .     S
C246   C875    1.416   1_554 S
C247   H254    1.078   .     S
C247   C249    1.395   .     A
C248   C872    1.395   1_554 S
C249   C874    1.400   .     S
C250   H255    1.084   .     S
C250   C462    1.375   .     S
C251   H256    1.085   .     S
H259   O265    0.991   .     S
H260   O268    0.991   .     S
N261   Zn279   2.051   .     S
N262   Zn280   2.051   .     S
O263   Zn279   1.991   .     S
O264   S277    1.498   .     D
O265   S417    1.685   1_455 S
O266   S348    1.504   .     S
O267   S278    1.503   .     D
O268   S278    1.677   .     S
O269   Zn280   1.991   .     S
O270   Zn280   1.960   .     S
O271   Zn279   1.960   .     S
O272   Zn279   2.004   .     S
O273   Zn280   2.004   .     S
O274   Zn280   1.998   .     S
O275   Zn279   1.998   .     S
O276   S277    1.503   .     D
S277   O335    1.685   .     S
S278   O406    1.504   1_455 S
Br281  C318    1.919   .     S
Br282  C292    1.915   .     S
Br283  C319    1.912   .     S
Br284  C309    1.966   .     S
Br285  C308    1.942   .     S
Br286  C307    1.921   .     S
Br287  C306    1.925   .     S
Br288  C304    1.911   .     S
Br289  C305    1.915   .     S
Br290  C322    1.922   .     S
C291   O333    1.298   .     A
C291   C294    1.404   .     S
C291   O340    1.293   .     A
C292   C294    1.398   .     A
C292   C531    1.372   .     S
C293   C321    1.392   .     A
C293   C322    1.397   .     A
C293   C302    1.401   .     S
C294   C320    1.395   .     A
C295   S347    1.776   .     S
C295   N332    1.401   .     A
C295   C367    1.424   .     S
C296   S348    1.780   .     S
C296   N331    1.402   .     A
C297   N331    1.351   .     A
C297   H327    1.080   .     S
C298   N332    1.351   .     A
C298   H328    1.079   .     S
C298   C366    1.425   .     S
C299   O344    1.305   .     A
C299   C301    1.451   .     S
C299   O342    1.308   .     A
C300   C303    1.473   .     S
C300   O343    1.329   .     A
C300   O345    1.293   .     A
C301   C306    1.411   .     A
C301   C308    1.432   .     A
C302   O341    1.292   .     A
C302   O339    1.296   .     A
C303   C307    1.419   .     A
C303   C309    1.438   .     A
C304   C312    1.377   .     A
C304   C306    1.370   .     A
C305   C314    1.390   .     A
C305   C307    1.398   .     A
C308   C310    1.430   .     A
C309   C311    1.391   .     A
C310   C312    1.415   .     A
C310   C315    1.414   .     A
C311   C314    1.387   .     A
C311   C316    1.399   .     A
C312   C948    1.395   .     S
C313   C318    1.378   .     A
C313   C316    1.405   .     A
C313   H323    1.083   .     S
C314   C949    1.400   1_554 S
C315   C317    1.408   .     A
C315   C946    1.416   .     S
C316   C945    1.416   1_554 S
C317   H324    1.078   .     S
C317   C319    1.395   .     A
C318   C942    1.395   1_554 S
C319   C944    1.400   .     S
C320   H325    1.084   .     S
C320   C532    1.375   .     S
C321   H326    1.085   .     S
H329   O335    0.991   .     S
H330   O338    0.991   .     S
N331   Zn349   2.051   .     S
N332   Zn350   2.051   .     S
O333   Zn349   1.991   .     S
O334   S347    1.498   .     D
O336   S418    1.504   .     S
O337   S348    1.503   .     D
O338   S348    1.677   .     S
O339   Zn350   1.991   .     S
O340   Zn350   1.960   .     S
O341   Zn349   1.960   .     S
O342   Zn349   2.004   .     S
O343   Zn350   2.004   .     S
O344   Zn350   1.998   .     S
O345   Zn349   1.998   .     S
O346   S347    1.503   .     D
S347   O405    1.685   .     S
Br351  C388    1.919   .     S
Br352  C362    1.915   .     S
Br353  C389    1.912   .     S
Br354  C379    1.966   .     S
Br355  C378    1.942   .     S
Br356  C377    1.921   .     S
Br357  C376    1.925   .     S
Br358  C374    1.911   .     S
Br359  C375    1.915   .     S
Br360  C392    1.922   .     S
C361   O403    1.298   .     A
C361   C364    1.404   .     S
C361   O410    1.293   .     A
C362   C364    1.398   .     A
C362   C601    1.372   .     S
C363   C391    1.392   .     A
C363   C392    1.397   .     A
C363   C372    1.401   .     S
C364   C390    1.395   .     A
C365   S417    1.776   .     S
C365   N402    1.401   .     A
C365   C227    1.424   1_655 S
C366   S418    1.780   .     S
C366   N401    1.402   .     A
C367   N401    1.351   .     A
C367   H397    1.080   .     S
C368   N402    1.351   .     A
C368   H398    1.079   .     S
C368   C226    1.425   1_655 S
C369   O414    1.305   .     A
C369   C371    1.451   .     S
C369   O412    1.308   .     A
C370   C373    1.473   .     S
C370   O413    1.329   .     A
C370   O415    1.293   .     A
C371   C376    1.411   .     A
C371   C378    1.432   .     A
C372   O411    1.292   .     A
C372   O409    1.296   .     A
C373   C377    1.419   .     A
C373   C379    1.438   .     A
C374   C382    1.377   .     A
C374   C376    1.370   .     A
C375   C384    1.390   .     A
C375   C377    1.398   .     A
C378   C380    1.430   .     A
C379   C381    1.391   .     A
C380   C382    1.415   .     A
C380   C385    1.414   .     A
C381   C384    1.387   .     A
C381   C386    1.399   .     A
C382   C1018   1.395   .     S
C383   C388    1.378   .     A
C383   C386    1.405   .     A
C383   H393    1.083   .     S
C384   C1019   1.400   1_554 S
C385   C387    1.408   .     A
C385   C1016   1.416   .     S
C386   C1015   1.416   1_554 S
C387   H394    1.078   .     S
C387   C389    1.395   .     A
C388   C1012   1.395   1_554 S
C389   C1014   1.400   .     S
C390   H395    1.084   .     S
C390   C602    1.375   .     S
C391   H396    1.085   .     S
H399   O405    0.991   .     S
H400   O408    0.991   .     S
N401   Zn419   2.051   .     S
N402   Zn420   2.051   .     S
O403   Zn419   1.991   .     S
O404   S417    1.498   .     D
O406   S278    1.504   1_655 S
O407   S418    1.503   .     D
O408   S418    1.677   .     S
O409   Zn420   1.991   .     S
O410   Zn420   1.960   .     S
O411   Zn419   1.960   .     S
O412   Zn419   2.004   .     S
O413   Zn420   2.004   .     S
O414   Zn420   1.998   .     S
O415   Zn419   1.998   .     S
O416   S417    1.503   .     D
S417   O265    1.685   1_655 S
Br421  C458    1.919   .     S
Br422  C432    1.915   .     S
Br423  C459    1.912   .     S
Br424  C449    1.966   .     S
Br425  C448    1.942   .     S
Br426  C447    1.921   .     S
Br427  C446    1.925   .     S
Br428  C444    1.911   .     S
Br429  C445    1.915   .     S
Br430  C462    1.922   .     S
C431   O473    1.298   .     A
C431   C434    1.404   .     S
C431   O480    1.293   .     A
C432   C434    1.398   .     A
C432   C41     1.372   1_565 S
C433   C461    1.392   .     A
C433   C462    1.397   .     A
C433   C442    1.401   .     S
C434   C460    1.395   .     A
C435   S487    1.776   .     S
C435   N472    1.401   .     A
C435   C507    1.424   .     S
C436   S488    1.780   .     S
C436   N471    1.402   .     A
C436   C578    1.425   1_455 S
C437   N471    1.351   .     A
C437   H467    1.080   .     S
C437   C575    1.424   1_455 S
C438   N472    1.351   .     A
C438   H468    1.079   .     S
C438   C506    1.425   .     S
C439   O484    1.305   .     A
C439   C441    1.451   .     S
C439   O482    1.308   .     A
C440   C443    1.473   .     S
C440   O483    1.329   .     A
C440   O485    1.293   .     A
C441   C446    1.411   .     A
C441   C448    1.432   .     A
C442   O481    1.292   .     A
C442   O479    1.296   .     A
C443   C447    1.419   .     A
C443   C449    1.438   .     A
C444   C452    1.377   .     A
C444   C446    1.370   .     A
C445   C454    1.390   .     A
C445   C447    1.398   .     A
C448   C450    1.430   .     A
C449   C451    1.391   .     A
C450   C452    1.415   .     A
C450   C455    1.414   .     A
C451   C454    1.387   .     A
C451   C456    1.399   .     A
C452   C1088   1.395   .     S
C453   C458    1.378   .     A
C453   C456    1.405   .     A
C453   H463    1.083   .     S
C454   C1089   1.400   1_554 S
C455   C457    1.408   .     A
C455   C1086   1.416   .     S
C456   C1085   1.416   1_554 S
C457   H464    1.078   .     S
C457   C459    1.395   .     A
C458   C1082   1.395   1_554 S
C459   C1084   1.400   .     S
C460   H465    1.084   .     S
C460   C42     1.375   1_565 S
C461   H466    1.085   .     S
H469   O475    0.991   .     S
H470   O478    0.991   .     S
N471   Zn489   2.051   .     S
N472   Zn490   2.051   .     S
O473   Zn489   1.991   .     S
O474   S487    1.498   .     D
O475   S627    1.685   1_455 S
O476   S558    1.504   .     S
O477   S488    1.503   .     D
O478   S488    1.677   .     S
O479   Zn490   1.991   .     S
O480   Zn490   1.960   .     S
O481   Zn489   1.960   .     S
O482   Zn489   2.004   .     S
O483   Zn490   2.004   .     S
O484   Zn490   1.998   .     S
O485   Zn489   1.998   .     S
O486   S487    1.503   .     D
S487   O545    1.685   .     S
S488   O616    1.504   1_455 S
Br491  C528    1.919   .     S
Br492  C502    1.915   .     S
Br493  C529    1.912   .     S
Br494  C519    1.966   .     S
Br495  C518    1.942   .     S
Br496  C517    1.921   .     S
Br497  C516    1.925   .     S
Br498  C514    1.911   .     S
Br499  C515    1.915   .     S
Br500  C532    1.922   .     S
C501   O543    1.298   .     A
C501   C504    1.404   .     S
C501   O550    1.293   .     A
C502   C504    1.398   .     A
C502   C111    1.372   1_565 S
C503   C531    1.392   .     A
C503   C532    1.397   .     A
C503   C512    1.401   .     S
C504   C530    1.395   .     A
C505   S557    1.776   .     S
C505   N542    1.401   .     A
C505   C577    1.424   .     S
C506   S558    1.780   .     S
C506   N541    1.402   .     A
C507   N541    1.351   .     A
C507   H537    1.080   .     S
C508   N542    1.351   .     A
C508   H538    1.079   .     S
C508   C576    1.425   .     S
C509   O554    1.305   .     A
C509   C511    1.451   .     S
C509   O552    1.308   .     A
C510   C513    1.473   .     S
C510   O553    1.329   .     A
C510   O555    1.293   .     A
C511   C516    1.411   .     A
C511   C518    1.432   .     A
C512   O551    1.292   .     A
C512   O549    1.296   .     A
C513   C517    1.419   .     A
C513   C519    1.438   .     A
C514   C522    1.377   .     A
C514   C516    1.370   .     A
C515   C524    1.390   .     A
C515   C517    1.398   .     A
C518   C520    1.430   .     A
C519   C521    1.391   .     A
C520   C522    1.415   .     A
C520   C525    1.414   .     A
C521   C524    1.387   .     A
C521   C526    1.399   .     A
C522   C1158   1.395   .     S
C523   C528    1.378   .     A
C523   C526    1.405   .     A
C523   H533    1.083   .     S
C524   C1159   1.400   1_554 S
C525   C527    1.408   .     A
C525   C1156   1.416   .     S
C526   C1155   1.416   1_554 S
C527   H534    1.078   .     S
C527   C529    1.395   .     A
C528   C1152   1.395   1_554 S
C529   C1154   1.400   .     S
C530   H535    1.084   .     S
C530   C112    1.375   1_565 S
C531   H536    1.085   .     S
H539   O545    0.991   .     S
H540   O548    0.991   .     S
N541   Zn559   2.051   .     S
N542   Zn560   2.051   .     S
O543   Zn559   1.991   .     S
O544   S557    1.498   .     D
O546   S628    1.504   .     S
O547   S558    1.503   .     D
O548   S558    1.677   .     S
O549   Zn560   1.991   .     S
O550   Zn560   1.960   .     S
O551   Zn559   1.960   .     S
O552   Zn559   2.004   .     S
O553   Zn560   2.004   .     S
O554   Zn560   1.998   .     S
O555   Zn559   1.998   .     S
O556   S557    1.503   .     D
S557   O615    1.685   .     S
Br561  C598    1.919   .     S
Br562  C572    1.915   .     S
Br563  C599    1.912   .     S
Br564  C589    1.966   .     S
Br565  C588    1.942   .     S
Br566  C587    1.921   .     S
Br567  C586    1.925   .     S
Br568  C584    1.911   .     S
Br569  C585    1.915   .     S
Br570  C602    1.922   .     S
C571   O613    1.298   .     A
C571   C574    1.404   .     S
C571   O620    1.293   .     A
C572   C574    1.398   .     A
C572   C181    1.372   1_565 S
C573   C601    1.392   .     A
C573   C602    1.397   .     A
C573   C582    1.401   .     S
C574   C600    1.395   .     A
C575   S627    1.776   .     S
C575   N612    1.401   .     A
C575   C437    1.424   1_655 S
C576   S628    1.780   .     S
C576   N611    1.402   .     A
C577   N611    1.351   .     A
C577   H607    1.080   .     S
C578   N612    1.351   .     A
C578   H608    1.079   .     S
C578   C436    1.425   1_655 S
C579   O624    1.305   .     A
C579   C581    1.451   .     S
C579   O622    1.308   .     A
C580   C583    1.473   .     S
C580   O623    1.329   .     A
C580   O625    1.293   .     A
C581   C586    1.411   .     A
C581   C588    1.432   .     A
C582   O621    1.292   .     A
C582   O619    1.296   .     A
C583   C587    1.419   .     A
C583   C589    1.438   .     A
C584   C592    1.377   .     A
C584   C586    1.370   .     A
C585   C594    1.390   .     A
C585   C587    1.398   .     A
C588   C590    1.430   .     A
C589   C591    1.391   .     A
C590   C592    1.415   .     A
C590   C595    1.414   .     A
C591   C594    1.387   .     A
C591   C596    1.399   .     A
C592   C1228   1.395   .     S
C593   C598    1.378   .     A
C593   C596    1.405   .     A
C593   H603    1.083   .     S
C594   C1229   1.400   1_554 S
C595   C597    1.408   .     A
C595   C1226   1.416   .     S
C596   C1225   1.416   1_554 S
C597   H604    1.078   .     S
C597   C599    1.395   .     A
C598   C1222   1.395   1_554 S
C599   C1224   1.400   .     S
C600   H605    1.084   .     S
C600   C182    1.375   1_565 S
C601   H606    1.085   .     S
H609   O615    0.991   .     S
H610   O618    0.991   .     S
N611   Zn629   2.051   .     S
N612   Zn630   2.051   .     S
O613   Zn629   1.991   .     S
O614   S627    1.498   .     D
O616   S488    1.504   1_655 S
O617   S628    1.503   .     D
O618   S628    1.677   .     S
O619   Zn630   1.991   .     S
O620   Zn630   1.960   .     S
O621   Zn629   1.960   .     S
O622   Zn629   2.004   .     S
O623   Zn630   2.004   .     S
O624   Zn630   1.998   .     S
O625   Zn629   1.998   .     S
O626   S627    1.503   .     D
S627   O475    1.685   1_655 S
Br631  C668    1.919   .     S
Br632  C642    1.915   .     S
Br633  C669    1.912   .     S
Br634  C659    1.966   .     S
Br635  C658    1.942   .     S
Br636  C657    1.921   .     S
Br637  C656    1.925   .     S
Br638  C654    1.911   .     S
Br639  C655    1.915   .     S
Br640  C672    1.922   .     S
C641   O683    1.298   .     A
C641   C644    1.404   .     S
C641   O690    1.293   .     A
C642   C644    1.398   .     A
C642   C881    1.372   .     S
C643   C671    1.392   .     A
C643   C672    1.397   .     A
C643   C652    1.401   .     S
C644   C670    1.395   .     A
C645   S697    1.776   .     S
C645   N682    1.401   .     A
C645   C717    1.424   .     S
C646   S698    1.780   .     S
C646   N681    1.402   .     A
C646   C788    1.425   1_455 S
C647   N681    1.351   .     A
C647   H677    1.080   .     S
C647   C785    1.424   1_455 S
C648   N682    1.351   .     A
C648   H678    1.079   .     S
C648   C716    1.425   .     S
C649   O694    1.305   .     A
C649   C651    1.451   .     S
C649   O692    1.308   .     A
C650   C653    1.473   .     S
C650   O693    1.329   .     A
C650   O695    1.293   .     A
C651   C656    1.411   .     A
C651   C658    1.432   .     A
C652   O691    1.292   .     A
C652   O689    1.296   .     A
C653   C657    1.419   .     A
C653   C659    1.438   .     A
C654   C662    1.377   .     A
C654   C656    1.370   .     A
C655   C664    1.390   .     A
C655   C657    1.398   .     A
C658   C660    1.430   .     A
C659   C661    1.391   .     A
C660   C662    1.415   .     A
C660   C665    1.414   .     A
C661   C664    1.387   .     A
C661   C666    1.399   .     A
C662   C38     1.395   1_556 S
C663   C668    1.378   .     A
C663   C666    1.405   .     A
C663   H673    1.083   .     S
C665   C667    1.408   .     A
C665   C36     1.416   1_556 S
C667   H674    1.078   .     S
C667   C669    1.395   .     A
C669   C34     1.400   1_556 S
C670   H675    1.084   .     S
C670   C882    1.375   .     S
C671   H676    1.085   .     S
C671   C1062   1.372   1_545 S
C672   C1090   1.375   1_545 S
H679   O685    0.991   .     S
H680   O688    0.991   .     S
N681   Zn699   2.051   .     S
N682   Zn700   2.051   .     S
O683   Zn699   1.991   .     S
O684   S697    1.498   .     D
O685   S837    1.685   1_455 S
O686   S768    1.504   .     S
O687   S698    1.503   .     D
O688   S698    1.677   .     S
O689   Zn700   1.991   .     S
O690   Zn700   1.960   .     S
O691   Zn699   1.960   .     S
O692   Zn699   2.004   .     S
O693   Zn700   2.004   .     S
O694   Zn700   1.998   .     S
O695   Zn699   1.998   .     S
O696   S697    1.503   .     D
S697   O755    1.685   .     S
S698   O826    1.504   1_455 S
Br701  C738    1.919   .     S
Br702  C712    1.915   .     S
Br703  C739    1.912   .     S
Br704  C729    1.966   .     S
Br705  C728    1.942   .     S
Br706  C727    1.921   .     S
Br707  C726    1.925   .     S
Br708  C724    1.911   .     S
Br709  C725    1.915   .     S
Br710  C742    1.922   .     S
C711   O753    1.298   .     A
C711   C714    1.404   .     S
C711   O760    1.293   .     A
C712   C714    1.398   .     A
C712   C951    1.372   .     S
C713   C741    1.392   .     A
C713   C742    1.397   .     A
C713   C722    1.401   .     S
C714   C740    1.395   .     A
C715   S767    1.776   .     S
C715   N752    1.401   .     A
C715   C787    1.424   .     S
C716   S768    1.780   .     S
C716   N751    1.402   .     A
C717   N751    1.351   .     A
C717   H747    1.080   .     S
C718   N752    1.351   .     A
C718   H748    1.079   .     S
C718   C786    1.425   .     S
C719   O764    1.305   .     A
C719   C721    1.451   .     S
C719   O762    1.308   .     A
C720   C723    1.473   .     S
C720   O763    1.329   .     A
C720   O765    1.293   .     A
C721   C726    1.411   .     A
C721   C728    1.432   .     A
C722   O761    1.292   .     A
C722   O759    1.296   .     A
C723   C727    1.419   .     A
C723   C729    1.438   .     A
C724   C732    1.377   .     A
C724   C726    1.370   .     A
C725   C734    1.390   .     A
C725   C727    1.398   .     A
C728   C730    1.430   .     A
C729   C731    1.391   .     A
C730   C732    1.415   .     A
C730   C735    1.414   .     A
C731   C734    1.387   .     A
C731   C736    1.399   .     A
C732   C108    1.395   1_556 S
C733   C738    1.378   .     A
C733   C736    1.405   .     A
C733   H743    1.083   .     S
C735   C737    1.408   .     A
C735   C106    1.416   1_556 S
C737   H744    1.078   .     S
C737   C739    1.395   .     A
C739   C104    1.400   1_556 S
C740   H745    1.084   .     S
C740   C952    1.375   .     S
C741   H746    1.085   .     S
C741   C1132   1.372   1_545 S
C742   C1160   1.375   1_545 S
H749   O755    0.991   .     S
H750   O758    0.991   .     S
N751   Zn769   2.051   .     S
N752   Zn770   2.051   .     S
O753   Zn769   1.991   .     S
O754   S767    1.498   .     D
O756   S838    1.504   .     S
O757   S768    1.503   .     D
O758   S768    1.677   .     S
O759   Zn770   1.991   .     S
O760   Zn770   1.960   .     S
O761   Zn769   1.960   .     S
O762   Zn769   2.004   .     S
O763   Zn770   2.004   .     S
O764   Zn770   1.998   .     S
O765   Zn769   1.998   .     S
O766   S767    1.503   .     D
S767   O825    1.685   .     S
Br771  C808    1.919   .     S
Br772  C782    1.915   .     S
Br773  C809    1.912   .     S
Br774  C799    1.966   .     S
Br775  C798    1.942   .     S
Br776  C797    1.921   .     S
Br777  C796    1.925   .     S
Br778  C794    1.911   .     S
Br779  C795    1.915   .     S
Br780  C812    1.922   .     S
C781   O823    1.298   .     A
C781   C784    1.404   .     S
C781   O830    1.293   .     A
C782   C784    1.398   .     A
C782   C1021   1.372   .     S
C783   C811    1.392   .     A
C783   C812    1.397   .     A
C783   C792    1.401   .     S
C784   C810    1.395   .     A
C785   S837    1.776   .     S
C785   N822    1.401   .     A
C785   C647    1.424   1_655 S
C786   S838    1.780   .     S
C786   N821    1.402   .     A
C787   N821    1.351   .     A
C787   H817    1.080   .     S
C788   N822    1.351   .     A
C788   H818    1.079   .     S
C788   C646    1.425   1_655 S
C789   O834    1.305   .     A
C789   C791    1.451   .     S
C789   O832    1.308   .     A
C790   C793    1.473   .     S
C790   O833    1.329   .     A
C790   O835    1.293   .     A
C791   C796    1.411   .     A
C791   C798    1.432   .     A
C792   O831    1.292   .     A
C792   O829    1.296   .     A
C793   C797    1.419   .     A
C793   C799    1.438   .     A
C794   C802    1.377   .     A
C794   C796    1.370   .     A
C795   C804    1.390   .     A
C795   C797    1.398   .     A
C798   C800    1.430   .     A
C799   C801    1.391   .     A
C800   C802    1.415   .     A
C800   C805    1.414   .     A
C801   C804    1.387   .     A
C801   C806    1.399   .     A
C802   C178    1.395   1_556 S
C803   C808    1.378   .     A
C803   C806    1.405   .     A
C803   H813    1.083   .     S
C805   C807    1.408   .     A
C805   C176    1.416   1_556 S
C807   H814    1.078   .     S
C807   C809    1.395   .     A
C809   C174    1.400   1_556 S
C810   H815    1.084   .     S
C810   C1022   1.375   .     S
C811   H816    1.085   .     S
C811   C1202   1.372   1_545 S
C812   C1230   1.375   1_545 S
H819   O825    0.991   .     S
H820   O828    0.991   .     S
N821   Zn839   2.051   .     S
N822   Zn840   2.051   .     S
O823   Zn839   1.991   .     S
O824   S837    1.498   .     D
O826   S698    1.504   1_655 S
O827   S838    1.503   .     D
O828   S838    1.677   .     S
O829   Zn840   1.991   .     S
O830   Zn840   1.960   .     S
O831   Zn839   1.960   .     S
O832   Zn839   2.004   .     S
O833   Zn840   2.004   .     S
O834   Zn840   1.998   .     S
O835   Zn839   1.998   .     S
O836   S837    1.503   .     D
S837   O685    1.685   1_655 S
Br841  C878    1.919   .     S
Br842  C852    1.915   .     S
Br843  C879    1.912   .     S
Br844  C869    1.966   .     S
Br845  C868    1.942   .     S
Br846  C867    1.921   .     S
Br847  C866    1.925   .     S
Br848  C864    1.911   .     S
Br849  C865    1.915   .     S
Br850  C882    1.922   .     S
C851   O893    1.298   .     A
C851   C854    1.404   .     S
C851   O900    1.293   .     A
C852   C854    1.398   .     A
C852   C1091   1.372   .     S
C853   C881    1.392   .     A
C853   C882    1.397   .     A
C853   C862    1.401   .     S
C854   C880    1.395   .     A
C855   S907    1.776   .     S
C855   N892    1.401   .     A
C855   C927    1.424   .     S
C856   S908    1.780   .     S
C856   N891    1.402   .     A
C856   C998    1.425   1_455 S
C857   N891    1.351   .     A
C857   H887    1.080   .     S
C857   C995    1.424   1_455 S
C858   N892    1.351   .     A
C858   H888    1.079   .     S
C858   C926    1.425   .     S
C859   O904    1.305   .     A
C859   C861    1.451   .     S
C859   O902    1.308   .     A
C860   C863    1.473   .     S
C860   O903    1.329   .     A
C860   O905    1.293   .     A
C861   C866    1.411   .     A
C861   C868    1.432   .     A
C862   O901    1.292   .     A
C862   O899    1.296   .     A
C863   C867    1.419   .     A
C863   C869    1.438   .     A
C864   C872    1.377   .     A
C864   C866    1.370   .     A
C865   C874    1.390   .     A
C865   C867    1.398   .     A
C868   C870    1.430   .     A
C869   C871    1.391   .     A
C870   C872    1.415   .     A
C870   C875    1.414   .     A
C871   C874    1.387   .     A
C871   C876    1.399   .     A
C872   C248    1.395   1_556 S
C873   C878    1.378   .     A
C873   C876    1.405   .     A
C873   H883    1.083   .     S
C875   C877    1.408   .     A
C875   C246    1.416   1_556 S
C877   H884    1.078   .     S
C877   C879    1.395   .     A
C879   C244    1.400   1_556 S
C880   H885    1.084   .     S
C880   C1092   1.375   .     S
C881   H886    1.085   .     S
H889   O895    0.991   .     S
H890   O898    0.991   .     S
N891   Zn909   2.051   .     S
N892   Zn910   2.051   .     S
O893   Zn909   1.991   .     S
O894   S907    1.498   .     D
O895   S1047   1.685   1_455 S
O896   S978    1.504   .     S
O897   S908    1.503   .     D
O898   S908    1.677   .     S
O899   Zn910   1.991   .     S
O900   Zn910   1.960   .     S
O901   Zn909   1.960   .     S
O902   Zn909   2.004   .     S
O903   Zn910   2.004   .     S
O904   Zn910   1.998   .     S
O905   Zn909   1.998   .     S
O906   S907    1.503   .     D
S907   O965    1.685   .     S
S908   O1036   1.504   1_455 S
Br911  C948    1.919   .     S
Br912  C922    1.915   .     S
Br913  C949    1.912   .     S
Br914  C939    1.966   .     S
Br915  C938    1.942   .     S
Br916  C937    1.921   .     S
Br917  C936    1.925   .     S
Br918  C934    1.911   .     S
Br919  C935    1.915   .     S
Br920  C952    1.922   .     S
C921   O963    1.298   .     A
C921   C924    1.404   .     S
C921   O970    1.293   .     A
C922   C924    1.398   .     A
C922   C1161   1.372   .     S
C923   C951    1.392   .     A
C923   C952    1.397   .     A
C923   C932    1.401   .     S
C924   C950    1.395   .     A
C925   S977    1.776   .     S
C925   N962    1.401   .     A
C925   C997    1.424   .     S
C926   S978    1.780   .     S
C926   N961    1.402   .     A
C927   N961    1.351   .     A
C927   H957    1.080   .     S
C928   N962    1.351   .     A
C928   H958    1.079   .     S
C928   C996    1.425   .     S
C929   O974    1.305   .     A
C929   C931    1.451   .     S
C929   O972    1.308   .     A
C930   C933    1.473   .     S
C930   O973    1.329   .     A
C930   O975    1.293   .     A
C931   C936    1.411   .     A
C931   C938    1.432   .     A
C932   O971    1.292   .     A
C932   O969    1.296   .     A
C933   C937    1.419   .     A
C933   C939    1.438   .     A
C934   C942    1.377   .     A
C934   C936    1.370   .     A
C935   C944    1.390   .     A
C935   C937    1.398   .     A
C938   C940    1.430   .     A
C939   C941    1.391   .     A
C940   C942    1.415   .     A
C940   C945    1.414   .     A
C941   C944    1.387   .     A
C941   C946    1.399   .     A
C942   C318    1.395   1_556 S
C943   C948    1.378   .     A
C943   C946    1.405   .     A
C943   H953    1.083   .     S
C945   C947    1.408   .     A
C945   C316    1.416   1_556 S
C947   H954    1.078   .     S
C947   C949    1.395   .     A
C949   C314    1.400   1_556 S
C950   H955    1.084   .     S
C950   C1162   1.375   .     S
C951   H956    1.085   .     S
H959   O965    0.991   .     S
H960   O968    0.991   .     S
N961   Zn979   2.051   .     S
N962   Zn980   2.051   .     S
O963   Zn979   1.991   .     S
O964   S977    1.498   .     D
O966   S1048   1.504   .     S
O967   S978    1.503   .     D
O968   S978    1.677   .     S
O969   Zn980   1.991   .     S
O970   Zn980   1.960   .     S
O971   Zn979   1.960   .     S
O972   Zn979   2.004   .     S
O973   Zn980   2.004   .     S
O974   Zn980   1.998   .     S
O975   Zn979   1.998   .     S
O976   S977    1.503   .     D
S977   O1035   1.685   .     S
Br981  C1018   1.919   .     S
Br982  C992    1.915   .     S
Br983  C1019   1.912   .     S
Br984  C1009   1.966   .     S
Br985  C1008   1.942   .     S
Br986  C1007   1.921   .     S
Br987  C1006   1.925   .     S
Br988  C1004   1.911   .     S
Br989  C1005   1.915   .     S
Br990  C1022   1.922   .     S
C991   O1033   1.298   .     A
C991   C994    1.404   .     S
C991   O1040   1.293   .     A
C992   C994    1.398   .     A
C992   C1231   1.372   .     S
C993   C1021   1.392   .     A
C993   C1022   1.397   .     A
C993   C1002   1.401   .     S
C994   C1020   1.395   .     A
C995   S1047   1.776   .     S
C995   N1032   1.401   .     A
C995   C857    1.424   1_655 S
C996   S1048   1.780   .     S
C996   N1031   1.402   .     A
C997   N1031   1.351   .     A
C997   H1027   1.080   .     S
C998   N1032   1.351   .     A
C998   H1028   1.079   .     S
C998   C856    1.425   1_655 S
C999   O1044   1.305   .     A
C999   C1001   1.451   .     S
C999   O1042   1.308   .     A
C1000  C1003   1.473   .     S
C1000  O1043   1.329   .     A
C1000  O1045   1.293   .     A
C1001  C1006   1.411   .     A
C1001  C1008   1.432   .     A
C1002  O1041   1.292   .     A
C1002  O1039   1.296   .     A
C1003  C1007   1.419   .     A
C1003  C1009   1.438   .     A
C1004  C1012   1.377   .     A
C1004  C1006   1.370   .     A
C1005  C1014   1.390   .     A
C1005  C1007   1.398   .     A
C1008  C1010   1.430   .     A
C1009  C1011   1.391   .     A
C1010  C1012   1.415   .     A
C1010  C1015   1.414   .     A
C1011  C1014   1.387   .     A
C1011  C1016   1.399   .     A
C1012  C388    1.395   1_556 S
C1013  C1018   1.378   .     A
C1013  C1016   1.405   .     A
C1013  H1023   1.083   .     S
C1015  C1017   1.408   .     A
C1015  C386    1.416   1_556 S
C1017  H1024   1.078   .     S
C1017  C1019   1.395   .     A
C1019  C384    1.400   1_556 S
C1020  H1025   1.084   .     S
C1020  C1232   1.375   .     S
C1021  H1026   1.085   .     S
H1029  O1035   0.991   .     S
H1030  O1038   0.991   .     S
N1031  Zn1049  2.051   .     S
N1032  Zn1050  2.051   .     S
O1033  Zn1049  1.991   .     S
O1034  S1047   1.498   .     D
O1036  S908    1.504   1_655 S
O1037  S1048   1.503   .     D
O1038  S1048   1.677   .     S
O1039  Zn1050  1.991   .     S
O1040  Zn1050  1.960   .     S
O1041  Zn1049  1.960   .     S
O1042  Zn1049  2.004   .     S
O1043  Zn1050  2.004   .     S
O1044  Zn1050  1.998   .     S
O1045  Zn1049  1.998   .     S
O1046  S1047   1.503   .     D
S1047  O895    1.685   1_655 S
Br1051 C1088   1.919   .     S
Br1052 C1062   1.915   .     S
Br1053 C1089   1.912   .     S
Br1054 C1079   1.966   .     S
Br1055 C1078   1.942   .     S
Br1056 C1077   1.921   .     S
Br1057 C1076   1.925   .     S
Br1058 C1074   1.911   .     S
Br1059 C1075   1.915   .     S
Br1060 C1092   1.922   .     S
C1061  O1103   1.298   .     A
C1061  C1064   1.404   .     S
C1061  O1110   1.293   .     A
C1062  C1064   1.398   .     A
C1062  C671    1.372   1_565 S
C1063  C1091   1.392   .     A
C1063  C1092   1.397   .     A
C1063  C1072   1.401   .     S
C1064  C1090   1.395   .     A
C1065  S1117   1.776   .     S
C1065  N1102   1.401   .     A
C1065  C1137   1.424   .     S
C1066  S1118   1.780   .     S
C1066  N1101   1.402   .     A
C1066  C1208   1.425   1_455 S
C1067  N1101   1.351   .     A
C1067  H1097   1.080   .     S
C1067  C1205   1.424   1_455 S
C1068  N1102   1.351   .     A
C1068  H1098   1.079   .     S
C1068  C1136   1.425   .     S
C1069  O1114   1.305   .     A
C1069  C1071   1.451   .     S
C1069  O1112   1.308   .     A
C1070  C1073   1.473   .     S
C1070  O1113   1.329   .     A
C1070  O1115   1.293   .     A
C1071  C1076   1.411   .     A
C1071  C1078   1.432   .     A
C1072  O1111   1.292   .     A
C1072  O1109   1.296   .     A
C1073  C1077   1.419   .     A
C1073  C1079   1.438   .     A
C1074  C1082   1.377   .     A
C1074  C1076   1.370   .     A
C1075  C1084   1.390   .     A
C1075  C1077   1.398   .     A
C1078  C1080   1.430   .     A
C1079  C1081   1.391   .     A
C1080  C1082   1.415   .     A
C1080  C1085   1.414   .     A
C1081  C1084   1.387   .     A
C1081  C1086   1.399   .     A
C1082  C458    1.395   1_556 S
C1083  C1088   1.378   .     A
C1083  C1086   1.405   .     A
C1083  H1093   1.083   .     S
C1085  C1087   1.408   .     A
C1085  C456    1.416   1_556 S
C1087  H1094   1.078   .     S
C1087  C1089   1.395   .     A
C1089  C454    1.400   1_556 S
C1090  H1095   1.084   .     S
C1090  C672    1.375   1_565 S
C1091  H1096   1.085   .     S
H1099  O1105   0.991   .     S
H1100  O1108   0.991   .     S
N1101  Zn1119  2.051   .     S
N1102  Zn1120  2.051   .     S
O1103  Zn1119  1.991   .     S
O1104  S1117   1.498   .     D
O1105  S1257   1.685   1_455 S
O1106  S1188   1.504   .     S
O1107  S1118   1.503   .     D
O1108  S1118   1.677   .     S
O1109  Zn1120  1.991   .     S
O1110  Zn1120  1.960   .     S
O1111  Zn1119  1.960   .     S
O1112  Zn1119  2.004   .     S
O1113  Zn1120  2.004   .     S
O1114  Zn1120  1.998   .     S
O1115  Zn1119  1.998   .     S
O1116  S1117   1.503   .     D
S1117  O1175   1.685   .     S
S1118  O1246   1.504   1_455 S
Br1121 C1158   1.919   .     S
Br1122 C1132   1.915   .     S
Br1123 C1159   1.912   .     S
Br1124 C1149   1.966   .     S
Br1125 C1148   1.942   .     S
Br1126 C1147   1.921   .     S
Br1127 C1146   1.925   .     S
Br1128 C1144   1.911   .     S
Br1129 C1145   1.915   .     S
Br1130 C1162   1.922   .     S
C1131  O1173   1.298   .     A
C1131  C1134   1.404   .     S
C1131  O1180   1.293   .     A
C1132  C1134   1.398   .     A
C1132  C741    1.372   1_565 S
C1133  C1161   1.392   .     A
C1133  C1162   1.397   .     A
C1133  C1142   1.401   .     S
C1134  C1160   1.395   .     A
C1135  S1187   1.776   .     S
C1135  N1172   1.401   .     A
C1135  C1207   1.424   .     S
C1136  S1188   1.780   .     S
C1136  N1171   1.402   .     A
C1137  N1171   1.351   .     A
C1137  H1167   1.080   .     S
C1138  N1172   1.351   .     A
C1138  H1168   1.079   .     S
C1138  C1206   1.425   .     S
C1139  O1184   1.305   .     A
C1139  C1141   1.451   .     S
C1139  O1182   1.308   .     A
C1140  C1143   1.473   .     S
C1140  O1183   1.329   .     A
C1140  O1185   1.293   .     A
C1141  C1146   1.411   .     A
C1141  C1148   1.432   .     A
C1142  O1181   1.292   .     A
C1142  O1179   1.296   .     A
C1143  C1147   1.419   .     A
C1143  C1149   1.438   .     A
C1144  C1152   1.377   .     A
C1144  C1146   1.370   .     A
C1145  C1154   1.390   .     A
C1145  C1147   1.398   .     A
C1148  C1150   1.430   .     A
C1149  C1151   1.391   .     A
C1150  C1152   1.415   .     A
C1150  C1155   1.414   .     A
C1151  C1154   1.387   .     A
C1151  C1156   1.399   .     A
C1152  C528    1.395   1_556 S
C1153  C1158   1.378   .     A
C1153  C1156   1.405   .     A
C1153  H1163   1.083   .     S
C1155  C1157   1.408   .     A
C1155  C526    1.416   1_556 S
C1157  H1164   1.078   .     S
C1157  C1159   1.395   .     A
C1159  C524    1.400   1_556 S
C1160  H1165   1.084   .     S
C1160  C742    1.375   1_565 S
C1161  H1166   1.085   .     S
H1169  O1175   0.991   .     S
H1170  O1178   0.991   .     S
N1171  Zn1189  2.051   .     S
N1172  Zn1190  2.051   .     S
O1173  Zn1189  1.991   .     S
O1174  S1187   1.498   .     D
O1176  S1258   1.504   .     S
O1177  S1188   1.503   .     D
O1178  S1188   1.677   .     S
O1179  Zn1190  1.991   .     S
O1180  Zn1190  1.960   .     S
O1181  Zn1189  1.960   .     S
O1182  Zn1189  2.004   .     S
O1183  Zn1190  2.004   .     S
O1184  Zn1190  1.998   .     S
O1185  Zn1189  1.998   .     S
O1186  S1187   1.503   .     D
S1187  O1245   1.685   .     S
Br1191 C1228   1.919   .     S
Br1192 C1202   1.915   .     S
Br1193 C1229   1.912   .     S
Br1194 C1219   1.966   .     S
Br1195 C1218   1.942   .     S
Br1196 C1217   1.921   .     S
Br1197 C1216   1.925   .     S
Br1198 C1214   1.911   .     S
Br1199 C1215   1.915   .     S
Br1200 C1232   1.922   .     S
C1201  O1243   1.298   .     A
C1201  C1204   1.404   .     S
C1201  O1250   1.293   .     A
C1202  C1204   1.398   .     A
C1202  C811    1.372   1_565 S
C1203  C1231   1.392   .     A
C1203  C1232   1.397   .     A
C1203  C1212   1.401   .     S
C1204  C1230   1.395   .     A
C1205  S1257   1.776   .     S
C1205  N1242   1.401   .     A
C1205  C1067   1.424   1_655 S
C1206  S1258   1.780   .     S
C1206  N1241   1.402   .     A
C1207  N1241   1.351   .     A
C1207  H1237   1.080   .     S
C1208  N1242   1.351   .     A
C1208  H1238   1.079   .     S
C1208  C1066   1.425   1_655 S
C1209  O1254   1.305   .     A
C1209  C1211   1.451   .     S
C1209  O1252   1.308   .     A
C1210  C1213   1.473   .     S
C1210  O1253   1.329   .     A
C1210  O1255   1.293   .     A
C1211  C1216   1.411   .     A
C1211  C1218   1.432   .     A
C1212  O1251   1.292   .     A
C1212  O1249   1.296   .     A
C1213  C1217   1.419   .     A
C1213  C1219   1.438   .     A
C1214  C1222   1.377   .     A
C1214  C1216   1.370   .     A
C1215  C1224   1.390   .     A
C1215  C1217   1.398   .     A
C1218  C1220   1.430   .     A
C1219  C1221   1.391   .     A
C1220  C1222   1.415   .     A
C1220  C1225   1.414   .     A
C1221  C1224   1.387   .     A
C1221  C1226   1.399   .     A
C1222  C598    1.395   1_556 S
C1223  C1228   1.378   .     A
C1223  C1226   1.405   .     A
C1223  H1233   1.083   .     S
C1225  C1227   1.408   .     A
C1225  C596    1.416   1_556 S
C1227  H1234   1.078   .     S
C1227  C1229   1.395   .     A
C1229  C594    1.400   1_556 S
C1230  H1235   1.084   .     S
C1230  C812    1.375   1_565 S
C1231  H1236   1.085   .     S
H1239  O1245   0.991   .     S
H1240  O1248   0.991   .     S
N1241  Zn1259  2.051   .     S
N1242  Zn1260  2.051   .     S
O1243  Zn1259  1.991   .     S
O1244  S1257   1.498   .     D
O1246  S1118   1.504   1_655 S
O1247  S1258   1.503   .     D
O1248  S1258   1.677   .     S
O1249  Zn1260  1.991   .     S
O1250  Zn1260  1.960   .     S
O1251  Zn1259  1.960   .     S
O1252  Zn1259  2.004   .     S
O1253  Zn1260  2.004   .     S
O1254  Zn1260  1.998   .     S
O1255  Zn1259  1.998   .     S
O1256  S1257   1.503   .     D
S1257  O1105   1.685   1_655 S
