data_str_m3_o1_o1_pcu_sym.54
_audit_creation_date              2020-01-03
_audit_creation_method            'Materials Studio'
_symmetry_space_group_name_H-M    'P1'
_symmetry_Int_Tables_number       1
_symmetry_cell_setting            triclinic
loop_
_symmetry_equiv_pos_as_xyz
  x,y,z
_cell_length_a                    30.8650
_cell_length_b                    29.7800
_cell_length_c                    29.4765
_cell_angle_alpha                 90.0039
_cell_angle_beta                  90.0058
_cell_angle_gamma                 89.9954
loop_
_atom_site_label
_atom_site_type_symbol
_atom_site_fract_x
_atom_site_fract_y
_atom_site_fract_z
_atom_site_U_iso_or_equiv
_atom_site_adp_type
_atom_site_occupancy
Br1    Br    0.38790   0.17852   0.06855   0.00000  Uiso   1.00
Br2    Br    0.36210   0.07148   0.26479   0.00000  Uiso   1.00
Br3    Br    0.36216   0.07135   0.06859   0.00000  Uiso   1.00
Br4    Br    0.13784   0.42865   0.26474   0.00000  Uiso   1.00
Br5    Br    0.36216   0.42859   0.26477   0.00000  Uiso   1.00
Br6    Br    0.13784   0.07141   0.06857   0.00000  Uiso   1.00
Br7    Br    0.13782   0.07137   0.26475   0.00000  Uiso   1.00
Br8    Br    0.36218   0.42863   0.06859   0.00000  Uiso   1.00
Br9    Br    0.11210   0.32148   0.26479   0.00000  Uiso   1.00
Br10   Br    0.11216   0.32135   0.06859   0.00000  Uiso   1.00
Br11   Br    0.38784   0.17865   0.26474   0.00000  Uiso   1.00
Br12   Br    0.11216   0.17859   0.26477   0.00000  Uiso   1.00
Br13   Br    0.38784   0.32141   0.06857   0.00000  Uiso   1.00
Br14   Br    0.38782   0.32137   0.26475   0.00000  Uiso   1.00
Br15   Br    0.11218   0.17863   0.06859   0.00000  Uiso   1.00
Br16   Br    0.13790   0.42852   0.06855   0.00000  Uiso   1.00
C17    C     0.06324   0.19349   0.16667   0.00000  Uiso   1.00
C18    C     0.00001   0.21041   0.30933   0.00000  Uiso   1.00
C19    C     0.00001   0.21041   0.02400   0.00000  Uiso   1.00
C20    C     0.49999   0.28959   0.30933   0.00000  Uiso   1.00
C21    C     0.24999   0.03959   0.02401   0.00000  Uiso   1.00
C22    C     0.25001   0.46041   0.30933   0.00000  Uiso   1.00
C23    C     0.25001   0.46041   0.02400   0.00000  Uiso   1.00
C24    C     0.24999   0.03959   0.30933   0.00000  Uiso   1.00
C25    C     0.38575   0.14529   0.12511   0.00000  Uiso   1.00
C26    C     0.11425   0.35471   0.20823   0.00000  Uiso   1.00
C27    C     0.11428   0.35466   0.12512   0.00000  Uiso   1.00
C28    C     0.43676   0.30651   0.16667   0.00000  Uiso   1.00
C29    C     0.38572   0.14534   0.20821   0.00000  Uiso   1.00
C30    C     0.11428   0.14532   0.20822   0.00000  Uiso   1.00
C31    C     0.38572   0.35468   0.12511   0.00000  Uiso   1.00
C32    C     0.38572   0.35467   0.20822   0.00000  Uiso   1.00
C33    C     0.11428   0.14533   0.12512   0.00000  Uiso   1.00
C34    C     0.13575   0.39529   0.12511   0.00000  Uiso   1.00
C35    C     0.36425   0.10471   0.20823   0.00000  Uiso   1.00
C36    C     0.36428   0.10466   0.12512   0.00000  Uiso   1.00
C37    C     0.13572   0.39534   0.20821   0.00000  Uiso   1.00
C38    C     0.36428   0.39532   0.20822   0.00000  Uiso   1.00
C39    C     0.43677   0.19347   0.16666   0.00000  Uiso   1.00
C40    C     0.13572   0.10468   0.12511   0.00000  Uiso   1.00
C41    C     0.13572   0.10467   0.20822   0.00000  Uiso   1.00
C42    C     0.36428   0.39533   0.12512   0.00000  Uiso   1.00
C43    C     0.09969   0.33688   0.16667   0.00000  Uiso   1.00
C44    C     0.40031   0.16312   0.16666   0.00000  Uiso   1.00
C45    C     0.40030   0.33686   0.16666   0.00000  Uiso   1.00
C46    C     0.09970   0.16314   0.16667   0.00000  Uiso   1.00
C47    C     0.34969   0.08688   0.16667   0.00000  Uiso   1.00
C48    C     0.15031   0.41312   0.16666   0.00000  Uiso   1.00
C49    C     0.15030   0.08686   0.16666   0.00000  Uiso   1.00
C50    C     0.06324   0.30653   0.16667   0.00000  Uiso   1.00
C51    C     0.34970   0.41314   0.16667   0.00000  Uiso   1.00
C52    C     0.31324   0.44349   0.16667   0.00000  Uiso   1.00
C53    C     0.18676   0.05651   0.16667   0.00000  Uiso   1.00
C54    C     0.18677   0.44347   0.16666   0.00000  Uiso   1.00
C55    C     0.31324   0.05653   0.16667   0.00000  Uiso   1.00
C56    C     0.49999   0.28959   0.02401   0.00000  Uiso   1.00
Cl57   Cl    0.49999   0.34112   0.05328   0.00000  Uiso   1.00
Cl58   Cl    0.00001   0.15887   0.28006   0.00000  Uiso   1.00
Cl59   Cl    0.00003   0.15888   0.05326   0.00000  Uiso   1.00
Cl60   Cl    0.49997   0.34112   0.28007   0.00000  Uiso   1.00
Cl61   Cl    0.24999   0.09112   0.05328   0.00000  Uiso   1.00
Cl62   Cl    0.25001   0.40888   0.28006   0.00000  Uiso   1.00
Cl63   Cl    0.25003   0.40888   0.05326   0.00000  Uiso   1.00
Cl64   Cl    0.24997   0.09112   0.28007   0.00000  Uiso   1.00
N65    N     0.00000   0.25000   0.28573   0.00000  Uiso   1.00
N66    N     0.00000   0.25000   0.04760   0.00000  Uiso   1.00
N67    N     0.25000   0.00000   0.28573   0.00000  Uiso   1.00
N68    N     0.25000   0.00000   0.04760   0.00000  Uiso   1.00
O69    O     0.04581   0.20419   0.20487   0.00000  Uiso   1.00
O70    O     0.20420   0.04581   0.12846   0.00000  Uiso   1.00
O71    O     0.20420   0.04581   0.20487   0.00000  Uiso   1.00
O72    O     0.29581   0.45419   0.12846   0.00000  Uiso   1.00
O73    O     0.20420   0.45419   0.12846   0.00000  Uiso   1.00
O74    O     0.29581   0.04581   0.20487   0.00000  Uiso   1.00
O75    O     0.29581   0.04581   0.12846   0.00000  Uiso   1.00
O76    O     0.20420   0.45419   0.20487   0.00000  Uiso   1.00
O77    O     0.45420   0.29581   0.12846   0.00000  Uiso   1.00
O78    O     0.45420   0.29581   0.20487   0.00000  Uiso   1.00
O79    O     0.04581   0.20419   0.12846   0.00000  Uiso   1.00
O80    O     0.45420   0.20419   0.12846   0.00000  Uiso   1.00
O81    O     0.04581   0.29581   0.20487   0.00000  Uiso   1.00
O82    O     0.04581   0.29581   0.12846   0.00000  Uiso   1.00
O83    O     0.45420   0.20419   0.20487   0.00000  Uiso   1.00
O84    O     0.29581   0.45419   0.20487   0.00000  Uiso   1.00
Zn85   Zn    0.00000   0.25000   0.21771   0.00000  Uiso   1.00
Zn86   Zn    0.00000   0.25000   0.11563   0.00000  Uiso   1.00
Zn87   Zn    0.25000   0.00000   0.21771   0.00000  Uiso   1.00
Zn88   Zn    0.25000   0.00000   0.11563   0.00000  Uiso   1.00
Br89   Br    0.88790   0.17852   0.06855   0.00000  Uiso   1.00
Br90   Br    0.86210   0.07148   0.26479   0.00000  Uiso   1.00
Br91   Br    0.86216   0.07135   0.06859   0.00000  Uiso   1.00
Br92   Br    0.63784   0.42865   0.26474   0.00000  Uiso   1.00
Br93   Br    0.86216   0.42859   0.26477   0.00000  Uiso   1.00
Br94   Br    0.63784   0.07141   0.06857   0.00000  Uiso   1.00
Br95   Br    0.63782   0.07137   0.26475   0.00000  Uiso   1.00
Br96   Br    0.86218   0.42863   0.06859   0.00000  Uiso   1.00
Br97   Br    0.61210   0.32148   0.26479   0.00000  Uiso   1.00
Br98   Br    0.61216   0.32135   0.06859   0.00000  Uiso   1.00
Br99   Br    0.88784   0.17865   0.26474   0.00000  Uiso   1.00
Br100  Br    0.61216   0.17859   0.26477   0.00000  Uiso   1.00
Br101  Br    0.88784   0.32141   0.06857   0.00000  Uiso   1.00
Br102  Br    0.88782   0.32137   0.26475   0.00000  Uiso   1.00
Br103  Br    0.61218   0.17863   0.06859   0.00000  Uiso   1.00
Br104  Br    0.63790   0.42852   0.06855   0.00000  Uiso   1.00
C105   C     0.56324   0.19349   0.16667   0.00000  Uiso   1.00
C106   C     0.50001   0.21041   0.30933   0.00000  Uiso   1.00
C107   C     0.50001   0.21041   0.02400   0.00000  Uiso   1.00
C108   C     0.99999   0.28959   0.30933   0.00000  Uiso   1.00
C109   C     0.74999   0.03959   0.02401   0.00000  Uiso   1.00
C110   C     0.75001   0.46041   0.30933   0.00000  Uiso   1.00
C111   C     0.75001   0.46041   0.02400   0.00000  Uiso   1.00
C112   C     0.74999   0.03959   0.30933   0.00000  Uiso   1.00
C113   C     0.88575   0.14529   0.12511   0.00000  Uiso   1.00
C114   C     0.61425   0.35471   0.20823   0.00000  Uiso   1.00
C115   C     0.61428   0.35466   0.12512   0.00000  Uiso   1.00
C116   C     0.93676   0.30651   0.16667   0.00000  Uiso   1.00
C117   C     0.88572   0.14534   0.20821   0.00000  Uiso   1.00
C118   C     0.61428   0.14532   0.20822   0.00000  Uiso   1.00
C119   C     0.88572   0.35468   0.12511   0.00000  Uiso   1.00
C120   C     0.88572   0.35467   0.20822   0.00000  Uiso   1.00
C121   C     0.61428   0.14533   0.12512   0.00000  Uiso   1.00
C122   C     0.63575   0.39529   0.12511   0.00000  Uiso   1.00
C123   C     0.86425   0.10471   0.20823   0.00000  Uiso   1.00
C124   C     0.86428   0.10466   0.12512   0.00000  Uiso   1.00
C125   C     0.63572   0.39534   0.20821   0.00000  Uiso   1.00
C126   C     0.86428   0.39532   0.20822   0.00000  Uiso   1.00
C127   C     0.93677   0.19347   0.16666   0.00000  Uiso   1.00
C128   C     0.63572   0.10468   0.12511   0.00000  Uiso   1.00
C129   C     0.63572   0.10467   0.20822   0.00000  Uiso   1.00
C130   C     0.86428   0.39533   0.12512   0.00000  Uiso   1.00
C131   C     0.59969   0.33688   0.16667   0.00000  Uiso   1.00
C132   C     0.90031   0.16312   0.16666   0.00000  Uiso   1.00
C133   C     0.90030   0.33686   0.16666   0.00000  Uiso   1.00
C134   C     0.59970   0.16314   0.16667   0.00000  Uiso   1.00
C135   C     0.84969   0.08688   0.16667   0.00000  Uiso   1.00
C136   C     0.65031   0.41312   0.16666   0.00000  Uiso   1.00
C137   C     0.65030   0.08686   0.16666   0.00000  Uiso   1.00
C138   C     0.56324   0.30653   0.16667   0.00000  Uiso   1.00
C139   C     0.84970   0.41314   0.16667   0.00000  Uiso   1.00
C140   C     0.81324   0.44349   0.16667   0.00000  Uiso   1.00
C141   C     0.68676   0.05651   0.16667   0.00000  Uiso   1.00
C142   C     0.68677   0.44347   0.16666   0.00000  Uiso   1.00
C143   C     0.81324   0.05653   0.16667   0.00000  Uiso   1.00
C144   C     0.99999   0.28959   0.02401   0.00000  Uiso   1.00
Cl145  Cl    0.99999   0.34112   0.05328   0.00000  Uiso   1.00
Cl146  Cl    0.50001   0.15887   0.28006   0.00000  Uiso   1.00
Cl147  Cl    0.50003   0.15888   0.05326   0.00000  Uiso   1.00
Cl148  Cl    0.99997   0.34112   0.28007   0.00000  Uiso   1.00
Cl149  Cl    0.74999   0.09112   0.05328   0.00000  Uiso   1.00
Cl150  Cl    0.75001   0.40888   0.28006   0.00000  Uiso   1.00
Cl151  Cl    0.75003   0.40888   0.05326   0.00000  Uiso   1.00
Cl152  Cl    0.74997   0.09112   0.28007   0.00000  Uiso   1.00
N153   N     0.50000   0.25000   0.28573   0.00000  Uiso   1.00
N154   N     0.50000   0.25000   0.04760   0.00000  Uiso   1.00
N155   N     0.75000   0.00000   0.28573   0.00000  Uiso   1.00
N156   N     0.75000   0.00000   0.04760   0.00000  Uiso   1.00
O157   O     0.54581   0.20419   0.20487   0.00000  Uiso   1.00
O158   O     0.70420   0.04581   0.12846   0.00000  Uiso   1.00
O159   O     0.70420   0.04581   0.20487   0.00000  Uiso   1.00
O160   O     0.79581   0.45419   0.12846   0.00000  Uiso   1.00
O161   O     0.70420   0.45419   0.12846   0.00000  Uiso   1.00
O162   O     0.79581   0.04581   0.20487   0.00000  Uiso   1.00
O163   O     0.79581   0.04581   0.12846   0.00000  Uiso   1.00
O164   O     0.70420   0.45419   0.20487   0.00000  Uiso   1.00
O165   O     0.95420   0.29581   0.12846   0.00000  Uiso   1.00
O166   O     0.95420   0.29581   0.20487   0.00000  Uiso   1.00
O167   O     0.54581   0.20419   0.12846   0.00000  Uiso   1.00
O168   O     0.95420   0.20419   0.12846   0.00000  Uiso   1.00
O169   O     0.54581   0.29581   0.20487   0.00000  Uiso   1.00
O170   O     0.54581   0.29581   0.12846   0.00000  Uiso   1.00
O171   O     0.95420   0.20419   0.20487   0.00000  Uiso   1.00
O172   O     0.79581   0.45419   0.20487   0.00000  Uiso   1.00
Zn173  Zn    0.50000   0.25000   0.21771   0.00000  Uiso   1.00
Zn174  Zn    0.50000   0.25000   0.11563   0.00000  Uiso   1.00
Zn175  Zn    0.75000   0.00000   0.21771   0.00000  Uiso   1.00
Zn176  Zn    0.75000   0.00000   0.11563   0.00000  Uiso   1.00
Br177  Br    0.38790   0.67852   0.06855   0.00000  Uiso   1.00
Br178  Br    0.36210   0.57148   0.26479   0.00000  Uiso   1.00
Br179  Br    0.36216   0.57135   0.06859   0.00000  Uiso   1.00
Br180  Br    0.13784   0.92865   0.26474   0.00000  Uiso   1.00
Br181  Br    0.36216   0.92859   0.26477   0.00000  Uiso   1.00
Br182  Br    0.13784   0.57141   0.06857   0.00000  Uiso   1.00
Br183  Br    0.13782   0.57137   0.26475   0.00000  Uiso   1.00
Br184  Br    0.36218   0.92863   0.06859   0.00000  Uiso   1.00
Br185  Br    0.11210   0.82148   0.26479   0.00000  Uiso   1.00
Br186  Br    0.11216   0.82135   0.06859   0.00000  Uiso   1.00
Br187  Br    0.38784   0.67865   0.26474   0.00000  Uiso   1.00
Br188  Br    0.11216   0.67859   0.26477   0.00000  Uiso   1.00
Br189  Br    0.38784   0.82141   0.06857   0.00000  Uiso   1.00
Br190  Br    0.38782   0.82137   0.26475   0.00000  Uiso   1.00
Br191  Br    0.11218   0.67863   0.06859   0.00000  Uiso   1.00
Br192  Br    0.13790   0.92852   0.06855   0.00000  Uiso   1.00
C193   C     0.06324   0.69349   0.16667   0.00000  Uiso   1.00
C194   C     0.00001   0.71041   0.30933   0.00000  Uiso   1.00
C195   C     0.00001   0.71041   0.02400   0.00000  Uiso   1.00
C196   C     0.49999   0.78959   0.30933   0.00000  Uiso   1.00
C197   C     0.24999   0.53959   0.02401   0.00000  Uiso   1.00
C198   C     0.25001   0.96041   0.30933   0.00000  Uiso   1.00
C199   C     0.25001   0.96041   0.02400   0.00000  Uiso   1.00
C200   C     0.24999   0.53959   0.30933   0.00000  Uiso   1.00
C201   C     0.38575   0.64529   0.12511   0.00000  Uiso   1.00
C202   C     0.11425   0.85471   0.20823   0.00000  Uiso   1.00
C203   C     0.11428   0.85466   0.12512   0.00000  Uiso   1.00
C204   C     0.43676   0.80651   0.16667   0.00000  Uiso   1.00
C205   C     0.38572   0.64534   0.20821   0.00000  Uiso   1.00
C206   C     0.11428   0.64532   0.20822   0.00000  Uiso   1.00
C207   C     0.38572   0.85468   0.12511   0.00000  Uiso   1.00
C208   C     0.38572   0.85467   0.20822   0.00000  Uiso   1.00
C209   C     0.11428   0.64533   0.12512   0.00000  Uiso   1.00
C210   C     0.13575   0.89529   0.12511   0.00000  Uiso   1.00
C211   C     0.36425   0.60471   0.20823   0.00000  Uiso   1.00
C212   C     0.36428   0.60466   0.12512   0.00000  Uiso   1.00
C213   C     0.13572   0.89534   0.20821   0.00000  Uiso   1.00
C214   C     0.36428   0.89532   0.20822   0.00000  Uiso   1.00
C215   C     0.43677   0.69347   0.16666   0.00000  Uiso   1.00
C216   C     0.13572   0.60468   0.12511   0.00000  Uiso   1.00
C217   C     0.13572   0.60467   0.20822   0.00000  Uiso   1.00
C218   C     0.36428   0.89533   0.12512   0.00000  Uiso   1.00
C219   C     0.09969   0.83688   0.16667   0.00000  Uiso   1.00
C220   C     0.40031   0.66312   0.16666   0.00000  Uiso   1.00
C221   C     0.40030   0.83686   0.16666   0.00000  Uiso   1.00
C222   C     0.09970   0.66314   0.16667   0.00000  Uiso   1.00
C223   C     0.34969   0.58688   0.16667   0.00000  Uiso   1.00
C224   C     0.15031   0.91312   0.16666   0.00000  Uiso   1.00
C225   C     0.15030   0.58686   0.16666   0.00000  Uiso   1.00
C226   C     0.06324   0.80653   0.16667   0.00000  Uiso   1.00
C227   C     0.34970   0.91314   0.16667   0.00000  Uiso   1.00
C228   C     0.31324   0.94349   0.16667   0.00000  Uiso   1.00
C229   C     0.18676   0.55651   0.16667   0.00000  Uiso   1.00
C230   C     0.18677   0.94347   0.16666   0.00000  Uiso   1.00
C231   C     0.31324   0.55653   0.16667   0.00000  Uiso   1.00
C232   C     0.49999   0.78959   0.02401   0.00000  Uiso   1.00
Cl233  Cl    0.49999   0.84112   0.05328   0.00000  Uiso   1.00
Cl234  Cl    0.00001   0.65887   0.28006   0.00000  Uiso   1.00
Cl235  Cl    0.00003   0.65888   0.05326   0.00000  Uiso   1.00
Cl236  Cl    0.49997   0.84112   0.28007   0.00000  Uiso   1.00
Cl237  Cl    0.24999   0.59112   0.05328   0.00000  Uiso   1.00
Cl238  Cl    0.25001   0.90888   0.28006   0.00000  Uiso   1.00
Cl239  Cl    0.25003   0.90888   0.05326   0.00000  Uiso   1.00
Cl240  Cl    0.24997   0.59112   0.28007   0.00000  Uiso   1.00
N241   N     0.00000   0.75000   0.28573   0.00000  Uiso   1.00
N242   N     0.00000   0.75000   0.04760   0.00000  Uiso   1.00
N243   N     0.25000   0.50000   0.28573   0.00000  Uiso   1.00
N244   N     0.25000   0.50000   0.04760   0.00000  Uiso   1.00
O245   O     0.04581   0.70419   0.20487   0.00000  Uiso   1.00
O246   O     0.20420   0.54581   0.12846   0.00000  Uiso   1.00
O247   O     0.20420   0.54581   0.20487   0.00000  Uiso   1.00
O248   O     0.29581   0.95419   0.12846   0.00000  Uiso   1.00
O249   O     0.20420   0.95419   0.12846   0.00000  Uiso   1.00
O250   O     0.29581   0.54581   0.20487   0.00000  Uiso   1.00
O251   O     0.29581   0.54581   0.12846   0.00000  Uiso   1.00
O252   O     0.20420   0.95419   0.20487   0.00000  Uiso   1.00
O253   O     0.45420   0.79581   0.12846   0.00000  Uiso   1.00
O254   O     0.45420   0.79581   0.20487   0.00000  Uiso   1.00
O255   O     0.04581   0.70419   0.12846   0.00000  Uiso   1.00
O256   O     0.45420   0.70419   0.12846   0.00000  Uiso   1.00
O257   O     0.04581   0.79581   0.20487   0.00000  Uiso   1.00
O258   O     0.04581   0.79581   0.12846   0.00000  Uiso   1.00
O259   O     0.45420   0.70419   0.20487   0.00000  Uiso   1.00
O260   O     0.29581   0.95419   0.20487   0.00000  Uiso   1.00
Zn261  Zn    0.00000   0.75000   0.21771   0.00000  Uiso   1.00
Zn262  Zn    0.00000   0.75000   0.11563   0.00000  Uiso   1.00
Zn263  Zn    0.25000   0.50000   0.21771   0.00000  Uiso   1.00
Zn264  Zn    0.25000   0.50000   0.11563   0.00000  Uiso   1.00
Br265  Br    0.88790   0.67852   0.06855   0.00000  Uiso   1.00
Br266  Br    0.86210   0.57148   0.26479   0.00000  Uiso   1.00
Br267  Br    0.86216   0.57135   0.06859   0.00000  Uiso   1.00
Br268  Br    0.63784   0.92865   0.26474   0.00000  Uiso   1.00
Br269  Br    0.86216   0.92859   0.26477   0.00000  Uiso   1.00
Br270  Br    0.63784   0.57141   0.06857   0.00000  Uiso   1.00
Br271  Br    0.63782   0.57137   0.26475   0.00000  Uiso   1.00
Br272  Br    0.86218   0.92863   0.06859   0.00000  Uiso   1.00
Br273  Br    0.61210   0.82148   0.26479   0.00000  Uiso   1.00
Br274  Br    0.61216   0.82135   0.06859   0.00000  Uiso   1.00
Br275  Br    0.88784   0.67865   0.26474   0.00000  Uiso   1.00
Br276  Br    0.61216   0.67859   0.26477   0.00000  Uiso   1.00
Br277  Br    0.88784   0.82141   0.06857   0.00000  Uiso   1.00
Br278  Br    0.88782   0.82137   0.26475   0.00000  Uiso   1.00
Br279  Br    0.61218   0.67863   0.06859   0.00000  Uiso   1.00
Br280  Br    0.63790   0.92852   0.06855   0.00000  Uiso   1.00
C281   C     0.56324   0.69349   0.16667   0.00000  Uiso   1.00
C282   C     0.50001   0.71041   0.30933   0.00000  Uiso   1.00
C283   C     0.50001   0.71041   0.02400   0.00000  Uiso   1.00
C284   C     0.99999   0.78959   0.30933   0.00000  Uiso   1.00
C285   C     0.74999   0.53959   0.02401   0.00000  Uiso   1.00
C286   C     0.75001   0.96041   0.30933   0.00000  Uiso   1.00
C287   C     0.75001   0.96041   0.02400   0.00000  Uiso   1.00
C288   C     0.74999   0.53959   0.30933   0.00000  Uiso   1.00
C289   C     0.88575   0.64529   0.12511   0.00000  Uiso   1.00
C290   C     0.61425   0.85471   0.20823   0.00000  Uiso   1.00
C291   C     0.61428   0.85466   0.12512   0.00000  Uiso   1.00
C292   C     0.93676   0.80651   0.16667   0.00000  Uiso   1.00
C293   C     0.88572   0.64534   0.20821   0.00000  Uiso   1.00
C294   C     0.61428   0.64532   0.20822   0.00000  Uiso   1.00
C295   C     0.88572   0.85468   0.12511   0.00000  Uiso   1.00
C296   C     0.88572   0.85467   0.20822   0.00000  Uiso   1.00
C297   C     0.61428   0.64533   0.12512   0.00000  Uiso   1.00
C298   C     0.63575   0.89529   0.12511   0.00000  Uiso   1.00
C299   C     0.86425   0.60471   0.20823   0.00000  Uiso   1.00
C300   C     0.86428   0.60466   0.12512   0.00000  Uiso   1.00
C301   C     0.63572   0.89534   0.20821   0.00000  Uiso   1.00
C302   C     0.86428   0.89532   0.20822   0.00000  Uiso   1.00
C303   C     0.93677   0.69347   0.16666   0.00000  Uiso   1.00
C304   C     0.63572   0.60468   0.12511   0.00000  Uiso   1.00
C305   C     0.63572   0.60467   0.20822   0.00000  Uiso   1.00
C306   C     0.86428   0.89533   0.12512   0.00000  Uiso   1.00
C307   C     0.59969   0.83688   0.16667   0.00000  Uiso   1.00
C308   C     0.90031   0.66312   0.16666   0.00000  Uiso   1.00
C309   C     0.90030   0.83686   0.16666   0.00000  Uiso   1.00
C310   C     0.59970   0.66314   0.16667   0.00000  Uiso   1.00
C311   C     0.84969   0.58688   0.16667   0.00000  Uiso   1.00
C312   C     0.65031   0.91312   0.16666   0.00000  Uiso   1.00
C313   C     0.65030   0.58686   0.16666   0.00000  Uiso   1.00
C314   C     0.56324   0.80653   0.16667   0.00000  Uiso   1.00
C315   C     0.84970   0.91314   0.16667   0.00000  Uiso   1.00
C316   C     0.81324   0.94349   0.16667   0.00000  Uiso   1.00
C317   C     0.68676   0.55651   0.16667   0.00000  Uiso   1.00
C318   C     0.68677   0.94347   0.16666   0.00000  Uiso   1.00
C319   C     0.81324   0.55653   0.16667   0.00000  Uiso   1.00
C320   C     0.99999   0.78959   0.02401   0.00000  Uiso   1.00
Cl321  Cl    0.99999   0.84112   0.05328   0.00000  Uiso   1.00
Cl322  Cl    0.50001   0.65887   0.28006   0.00000  Uiso   1.00
Cl323  Cl    0.50003   0.65888   0.05326   0.00000  Uiso   1.00
Cl324  Cl    0.99997   0.84112   0.28007   0.00000  Uiso   1.00
Cl325  Cl    0.74999   0.59112   0.05328   0.00000  Uiso   1.00
Cl326  Cl    0.75001   0.90888   0.28006   0.00000  Uiso   1.00
Cl327  Cl    0.75003   0.90888   0.05326   0.00000  Uiso   1.00
Cl328  Cl    0.74997   0.59112   0.28007   0.00000  Uiso   1.00
N329   N     0.50000   0.75000   0.28573   0.00000  Uiso   1.00
N330   N     0.50000   0.75000   0.04760   0.00000  Uiso   1.00
N331   N     0.75000   0.50000   0.28573   0.00000  Uiso   1.00
N332   N     0.75000   0.50000   0.04760   0.00000  Uiso   1.00
O333   O     0.54581   0.70419   0.20487   0.00000  Uiso   1.00
O334   O     0.70420   0.54581   0.12846   0.00000  Uiso   1.00
O335   O     0.70420   0.54581   0.20487   0.00000  Uiso   1.00
O336   O     0.79581   0.95419   0.12846   0.00000  Uiso   1.00
O337   O     0.70420   0.95419   0.12846   0.00000  Uiso   1.00
O338   O     0.79581   0.54581   0.20487   0.00000  Uiso   1.00
O339   O     0.79581   0.54581   0.12846   0.00000  Uiso   1.00
O340   O     0.70420   0.95419   0.20487   0.00000  Uiso   1.00
O341   O     0.95420   0.79581   0.12846   0.00000  Uiso   1.00
O342   O     0.95420   0.79581   0.20487   0.00000  Uiso   1.00
O343   O     0.54581   0.70419   0.12846   0.00000  Uiso   1.00
O344   O     0.95420   0.70419   0.12846   0.00000  Uiso   1.00
O345   O     0.54581   0.79581   0.20487   0.00000  Uiso   1.00
O346   O     0.54581   0.79581   0.12846   0.00000  Uiso   1.00
O347   O     0.95420   0.70419   0.20487   0.00000  Uiso   1.00
O348   O     0.79581   0.95419   0.20487   0.00000  Uiso   1.00
Zn349  Zn    0.50000   0.75000   0.21771   0.00000  Uiso   1.00
Zn350  Zn    0.50000   0.75000   0.11563   0.00000  Uiso   1.00
Zn351  Zn    0.75000   0.50000   0.21771   0.00000  Uiso   1.00
Zn352  Zn    0.75000   0.50000   0.11563   0.00000  Uiso   1.00
Br353  Br    0.38790   0.17852   0.40188   0.00000  Uiso   1.00
Br354  Br    0.36210   0.07148   0.59812   0.00000  Uiso   1.00
Br355  Br    0.36216   0.07135   0.40192   0.00000  Uiso   1.00
Br356  Br    0.13784   0.42865   0.59808   0.00000  Uiso   1.00
Br357  Br    0.36216   0.42859   0.59810   0.00000  Uiso   1.00
Br358  Br    0.13784   0.07141   0.40190   0.00000  Uiso   1.00
Br359  Br    0.13782   0.07137   0.59808   0.00000  Uiso   1.00
Br360  Br    0.36218   0.42863   0.40192   0.00000  Uiso   1.00
Br361  Br    0.11210   0.32148   0.59812   0.00000  Uiso   1.00
Br362  Br    0.11216   0.32135   0.40192   0.00000  Uiso   1.00
Br363  Br    0.38784   0.17865   0.59808   0.00000  Uiso   1.00
Br364  Br    0.11216   0.17859   0.59810   0.00000  Uiso   1.00
Br365  Br    0.38784   0.32141   0.40190   0.00000  Uiso   1.00
Br366  Br    0.38782   0.32137   0.59808   0.00000  Uiso   1.00
Br367  Br    0.11218   0.17863   0.40192   0.00000  Uiso   1.00
Br368  Br    0.13790   0.42852   0.40188   0.00000  Uiso   1.00
C369   C     0.06324   0.19349   0.50000   0.00000  Uiso   1.00
C370   C     0.00001   0.21041   0.64266   0.00000  Uiso   1.00
C371   C     0.00001   0.21041   0.35734   0.00000  Uiso   1.00
C372   C     0.49999   0.28959   0.64266   0.00000  Uiso   1.00
C373   C     0.24999   0.03959   0.35734   0.00000  Uiso   1.00
C374   C     0.25001   0.46041   0.64266   0.00000  Uiso   1.00
C375   C     0.25001   0.46041   0.35734   0.00000  Uiso   1.00
C376   C     0.24999   0.03959   0.64266   0.00000  Uiso   1.00
C377   C     0.38575   0.14529   0.45844   0.00000  Uiso   1.00
C378   C     0.11425   0.35471   0.54156   0.00000  Uiso   1.00
C379   C     0.11428   0.35466   0.45845   0.00000  Uiso   1.00
C380   C     0.43676   0.30651   0.50000   0.00000  Uiso   1.00
C381   C     0.38572   0.14534   0.54155   0.00000  Uiso   1.00
C382   C     0.11428   0.14532   0.54155   0.00000  Uiso   1.00
C383   C     0.38572   0.35468   0.45844   0.00000  Uiso   1.00
C384   C     0.38572   0.35467   0.54155   0.00000  Uiso   1.00
C385   C     0.11428   0.14533   0.45845   0.00000  Uiso   1.00
C386   C     0.13575   0.39529   0.45844   0.00000  Uiso   1.00
C387   C     0.36425   0.10471   0.54156   0.00000  Uiso   1.00
C388   C     0.36428   0.10466   0.45845   0.00000  Uiso   1.00
C389   C     0.13572   0.39534   0.54155   0.00000  Uiso   1.00
C390   C     0.36428   0.39532   0.54155   0.00000  Uiso   1.00
C391   C     0.43677   0.19347   0.50000   0.00000  Uiso   1.00
C392   C     0.13572   0.10468   0.45844   0.00000  Uiso   1.00
C393   C     0.13572   0.10467   0.54155   0.00000  Uiso   1.00
C394   C     0.36428   0.39533   0.45845   0.00000  Uiso   1.00
C395   C     0.09969   0.33688   0.50001   0.00000  Uiso   1.00
C396   C     0.40031   0.16312   0.49999   0.00000  Uiso   1.00
C397   C     0.40030   0.33686   0.50000   0.00000  Uiso   1.00
C398   C     0.09970   0.16314   0.50000   0.00000  Uiso   1.00
C399   C     0.34969   0.08688   0.50001   0.00000  Uiso   1.00
C400   C     0.15031   0.41312   0.49999   0.00000  Uiso   1.00
C401   C     0.15030   0.08686   0.50000   0.00000  Uiso   1.00
C402   C     0.06324   0.30653   0.50000   0.00000  Uiso   1.00
C403   C     0.34970   0.41314   0.50000   0.00000  Uiso   1.00
C404   C     0.31324   0.44349   0.50000   0.00000  Uiso   1.00
C405   C     0.18676   0.05651   0.50000   0.00000  Uiso   1.00
C406   C     0.18677   0.44347   0.50000   0.00000  Uiso   1.00
C407   C     0.31324   0.05653   0.50000   0.00000  Uiso   1.00
C408   C     0.49999   0.28959   0.35734   0.00000  Uiso   1.00
Cl409  Cl    0.49999   0.34112   0.38661   0.00000  Uiso   1.00
Cl410  Cl    0.00001   0.15887   0.61339   0.00000  Uiso   1.00
Cl411  Cl    0.00003   0.15888   0.38660   0.00000  Uiso   1.00
Cl412  Cl    0.49997   0.34112   0.61340   0.00000  Uiso   1.00
Cl413  Cl    0.24999   0.09112   0.38661   0.00000  Uiso   1.00
Cl414  Cl    0.25001   0.40888   0.61339   0.00000  Uiso   1.00
Cl415  Cl    0.25003   0.40888   0.38660   0.00000  Uiso   1.00
Cl416  Cl    0.24997   0.09112   0.61340   0.00000  Uiso   1.00
N417   N     0.00000   0.25000   0.61907   0.00000  Uiso   1.00
N418   N     0.00000   0.25000   0.38093   0.00000  Uiso   1.00
N419   N     0.25000   0.00000   0.61907   0.00000  Uiso   1.00
N420   N     0.25000   0.00000   0.38093   0.00000  Uiso   1.00
O421   O     0.04581   0.20419   0.53821   0.00000  Uiso   1.00
O422   O     0.20420   0.04581   0.46179   0.00000  Uiso   1.00
O423   O     0.20420   0.04581   0.53821   0.00000  Uiso   1.00
O424   O     0.29581   0.45419   0.46179   0.00000  Uiso   1.00
O425   O     0.20420   0.45419   0.46179   0.00000  Uiso   1.00
O426   O     0.29581   0.04581   0.53821   0.00000  Uiso   1.00
O427   O     0.29581   0.04581   0.46179   0.00000  Uiso   1.00
O428   O     0.20420   0.45419   0.53821   0.00000  Uiso   1.00
O429   O     0.45420   0.29581   0.46179   0.00000  Uiso   1.00
O430   O     0.45420   0.29581   0.53821   0.00000  Uiso   1.00
O431   O     0.04581   0.20419   0.46179   0.00000  Uiso   1.00
O432   O     0.45420   0.20419   0.46179   0.00000  Uiso   1.00
O433   O     0.04581   0.29581   0.53821   0.00000  Uiso   1.00
O434   O     0.04581   0.29581   0.46179   0.00000  Uiso   1.00
O435   O     0.45420   0.20419   0.53821   0.00000  Uiso   1.00
O436   O     0.29581   0.45419   0.53821   0.00000  Uiso   1.00
Zn437  Zn    0.00000   0.25000   0.55104   0.00000  Uiso   1.00
Zn438  Zn    0.00000   0.25000   0.44896   0.00000  Uiso   1.00
Zn439  Zn    0.25000   0.00000   0.55104   0.00000  Uiso   1.00
Zn440  Zn    0.25000   0.00000   0.44896   0.00000  Uiso   1.00
Br441  Br    0.88790   0.17852   0.40188   0.00000  Uiso   1.00
Br442  Br    0.86210   0.07148   0.59812   0.00000  Uiso   1.00
Br443  Br    0.86216   0.07135   0.40192   0.00000  Uiso   1.00
Br444  Br    0.63784   0.42865   0.59808   0.00000  Uiso   1.00
Br445  Br    0.86216   0.42859   0.59810   0.00000  Uiso   1.00
Br446  Br    0.63784   0.07141   0.40190   0.00000  Uiso   1.00
Br447  Br    0.63782   0.07137   0.59808   0.00000  Uiso   1.00
Br448  Br    0.86218   0.42863   0.40192   0.00000  Uiso   1.00
Br449  Br    0.61210   0.32148   0.59812   0.00000  Uiso   1.00
Br450  Br    0.61216   0.32135   0.40192   0.00000  Uiso   1.00
Br451  Br    0.88784   0.17865   0.59808   0.00000  Uiso   1.00
Br452  Br    0.61216   0.17859   0.59810   0.00000  Uiso   1.00
Br453  Br    0.88784   0.32141   0.40190   0.00000  Uiso   1.00
Br454  Br    0.88782   0.32137   0.59808   0.00000  Uiso   1.00
Br455  Br    0.61218   0.17863   0.40192   0.00000  Uiso   1.00
Br456  Br    0.63790   0.42852   0.40188   0.00000  Uiso   1.00
C457   C     0.56324   0.19349   0.50000   0.00000  Uiso   1.00
C458   C     0.50001   0.21041   0.64266   0.00000  Uiso   1.00
C459   C     0.50001   0.21041   0.35734   0.00000  Uiso   1.00
C460   C     0.99999   0.28959   0.64266   0.00000  Uiso   1.00
C461   C     0.74999   0.03959   0.35734   0.00000  Uiso   1.00
C462   C     0.75001   0.46041   0.64266   0.00000  Uiso   1.00
C463   C     0.75001   0.46041   0.35734   0.00000  Uiso   1.00
C464   C     0.74999   0.03959   0.64266   0.00000  Uiso   1.00
C465   C     0.88575   0.14529   0.45844   0.00000  Uiso   1.00
C466   C     0.61425   0.35471   0.54156   0.00000  Uiso   1.00
C467   C     0.61428   0.35466   0.45845   0.00000  Uiso   1.00
C468   C     0.93676   0.30651   0.50000   0.00000  Uiso   1.00
C469   C     0.88572   0.14534   0.54155   0.00000  Uiso   1.00
C470   C     0.61428   0.14532   0.54155   0.00000  Uiso   1.00
C471   C     0.88572   0.35468   0.45844   0.00000  Uiso   1.00
C472   C     0.88572   0.35467   0.54155   0.00000  Uiso   1.00
C473   C     0.61428   0.14533   0.45845   0.00000  Uiso   1.00
C474   C     0.63575   0.39529   0.45844   0.00000  Uiso   1.00
C475   C     0.86425   0.10471   0.54156   0.00000  Uiso   1.00
C476   C     0.86428   0.10466   0.45845   0.00000  Uiso   1.00
C477   C     0.63572   0.39534   0.54155   0.00000  Uiso   1.00
C478   C     0.86428   0.39532   0.54155   0.00000  Uiso   1.00
C479   C     0.93677   0.19347   0.50000   0.00000  Uiso   1.00
C480   C     0.63572   0.10468   0.45844   0.00000  Uiso   1.00
C481   C     0.63572   0.10467   0.54155   0.00000  Uiso   1.00
C482   C     0.86428   0.39533   0.45845   0.00000  Uiso   1.00
C483   C     0.59969   0.33688   0.50001   0.00000  Uiso   1.00
C484   C     0.90031   0.16312   0.49999   0.00000  Uiso   1.00
C485   C     0.90030   0.33686   0.50000   0.00000  Uiso   1.00
C486   C     0.59970   0.16314   0.50000   0.00000  Uiso   1.00
C487   C     0.84969   0.08688   0.50001   0.00000  Uiso   1.00
C488   C     0.65031   0.41312   0.49999   0.00000  Uiso   1.00
C489   C     0.65030   0.08686   0.50000   0.00000  Uiso   1.00
C490   C     0.56324   0.30653   0.50000   0.00000  Uiso   1.00
C491   C     0.84970   0.41314   0.50000   0.00000  Uiso   1.00
C492   C     0.81324   0.44349   0.50000   0.00000  Uiso   1.00
C493   C     0.68676   0.05651   0.50000   0.00000  Uiso   1.00
C494   C     0.68677   0.44347   0.50000   0.00000  Uiso   1.00
C495   C     0.81324   0.05653   0.50000   0.00000  Uiso   1.00
C496   C     0.99999   0.28959   0.35734   0.00000  Uiso   1.00
Cl497  Cl    0.99999   0.34112   0.38661   0.00000  Uiso   1.00
Cl498  Cl    0.50001   0.15887   0.61339   0.00000  Uiso   1.00
Cl499  Cl    0.50003   0.15888   0.38660   0.00000  Uiso   1.00
Cl500  Cl    0.99997   0.34112   0.61340   0.00000  Uiso   1.00
Cl501  Cl    0.74999   0.09112   0.38661   0.00000  Uiso   1.00
Cl502  Cl    0.75001   0.40888   0.61339   0.00000  Uiso   1.00
Cl503  Cl    0.75003   0.40888   0.38660   0.00000  Uiso   1.00
Cl504  Cl    0.74997   0.09112   0.61340   0.00000  Uiso   1.00
N505   N     0.50000   0.25000   0.61907   0.00000  Uiso   1.00
N506   N     0.50000   0.25000   0.38093   0.00000  Uiso   1.00
N507   N     0.75000   0.00000   0.61907   0.00000  Uiso   1.00
N508   N     0.75000   0.00000   0.38093   0.00000  Uiso   1.00
O509   O     0.54581   0.20419   0.53821   0.00000  Uiso   1.00
O510   O     0.70420   0.04581   0.46179   0.00000  Uiso   1.00
O511   O     0.70420   0.04581   0.53821   0.00000  Uiso   1.00
O512   O     0.79581   0.45419   0.46179   0.00000  Uiso   1.00
O513   O     0.70420   0.45419   0.46179   0.00000  Uiso   1.00
O514   O     0.79581   0.04581   0.53821   0.00000  Uiso   1.00
O515   O     0.79581   0.04581   0.46179   0.00000  Uiso   1.00
O516   O     0.70420   0.45419   0.53821   0.00000  Uiso   1.00
O517   O     0.95420   0.29581   0.46179   0.00000  Uiso   1.00
O518   O     0.95420   0.29581   0.53821   0.00000  Uiso   1.00
O519   O     0.54581   0.20419   0.46179   0.00000  Uiso   1.00
O520   O     0.95420   0.20419   0.46179   0.00000  Uiso   1.00
O521   O     0.54581   0.29581   0.53821   0.00000  Uiso   1.00
O522   O     0.54581   0.29581   0.46179   0.00000  Uiso   1.00
O523   O     0.95420   0.20419   0.53821   0.00000  Uiso   1.00
O524   O     0.79581   0.45419   0.53821   0.00000  Uiso   1.00
Zn525  Zn    0.50000   0.25000   0.55104   0.00000  Uiso   1.00
Zn526  Zn    0.50000   0.25000   0.44896   0.00000  Uiso   1.00
Zn527  Zn    0.75000   0.00000   0.55104   0.00000  Uiso   1.00
Zn528  Zn    0.75000   0.00000   0.44896   0.00000  Uiso   1.00
Br529  Br    0.38790   0.67852   0.40188   0.00000  Uiso   1.00
Br530  Br    0.36210   0.57148   0.59812   0.00000  Uiso   1.00
Br531  Br    0.36216   0.57135   0.40192   0.00000  Uiso   1.00
Br532  Br    0.13784   0.92865   0.59808   0.00000  Uiso   1.00
Br533  Br    0.36216   0.92859   0.59810   0.00000  Uiso   1.00
Br534  Br    0.13784   0.57141   0.40190   0.00000  Uiso   1.00
Br535  Br    0.13782   0.57137   0.59808   0.00000  Uiso   1.00
Br536  Br    0.36218   0.92863   0.40192   0.00000  Uiso   1.00
Br537  Br    0.11210   0.82148   0.59812   0.00000  Uiso   1.00
Br538  Br    0.11216   0.82135   0.40192   0.00000  Uiso   1.00
Br539  Br    0.38784   0.67865   0.59808   0.00000  Uiso   1.00
Br540  Br    0.11216   0.67859   0.59810   0.00000  Uiso   1.00
Br541  Br    0.38784   0.82141   0.40190   0.00000  Uiso   1.00
Br542  Br    0.38782   0.82137   0.59808   0.00000  Uiso   1.00
Br543  Br    0.11218   0.67863   0.40192   0.00000  Uiso   1.00
Br544  Br    0.13790   0.92852   0.40188   0.00000  Uiso   1.00
C545   C     0.06324   0.69349   0.50000   0.00000  Uiso   1.00
C546   C     0.00001   0.71041   0.64266   0.00000  Uiso   1.00
C547   C     0.00001   0.71041   0.35734   0.00000  Uiso   1.00
C548   C     0.49999   0.78959   0.64266   0.00000  Uiso   1.00
C549   C     0.24999   0.53959   0.35734   0.00000  Uiso   1.00
C550   C     0.25001   0.96041   0.64266   0.00000  Uiso   1.00
C551   C     0.25001   0.96041   0.35734   0.00000  Uiso   1.00
C552   C     0.24999   0.53959   0.64266   0.00000  Uiso   1.00
C553   C     0.38575   0.64529   0.45844   0.00000  Uiso   1.00
C554   C     0.11425   0.85471   0.54156   0.00000  Uiso   1.00
C555   C     0.11428   0.85466   0.45845   0.00000  Uiso   1.00
C556   C     0.43676   0.80651   0.50000   0.00000  Uiso   1.00
C557   C     0.38572   0.64534   0.54155   0.00000  Uiso   1.00
C558   C     0.11428   0.64532   0.54155   0.00000  Uiso   1.00
C559   C     0.38572   0.85468   0.45844   0.00000  Uiso   1.00
C560   C     0.38572   0.85467   0.54155   0.00000  Uiso   1.00
C561   C     0.11428   0.64533   0.45845   0.00000  Uiso   1.00
C562   C     0.13575   0.89529   0.45844   0.00000  Uiso   1.00
C563   C     0.36425   0.60471   0.54156   0.00000  Uiso   1.00
C564   C     0.36428   0.60466   0.45845   0.00000  Uiso   1.00
C565   C     0.13572   0.89534   0.54155   0.00000  Uiso   1.00
C566   C     0.36428   0.89532   0.54155   0.00000  Uiso   1.00
C567   C     0.43677   0.69347   0.50000   0.00000  Uiso   1.00
C568   C     0.13572   0.60468   0.45844   0.00000  Uiso   1.00
C569   C     0.13572   0.60467   0.54155   0.00000  Uiso   1.00
C570   C     0.36428   0.89533   0.45845   0.00000  Uiso   1.00
C571   C     0.09969   0.83688   0.50001   0.00000  Uiso   1.00
C572   C     0.40031   0.66312   0.49999   0.00000  Uiso   1.00
C573   C     0.40030   0.83686   0.50000   0.00000  Uiso   1.00
C574   C     0.09970   0.66314   0.50000   0.00000  Uiso   1.00
C575   C     0.34969   0.58688   0.50001   0.00000  Uiso   1.00
C576   C     0.15031   0.91312   0.49999   0.00000  Uiso   1.00
C577   C     0.15030   0.58686   0.50000   0.00000  Uiso   1.00
C578   C     0.06324   0.80653   0.50000   0.00000  Uiso   1.00
C579   C     0.34970   0.91314   0.50000   0.00000  Uiso   1.00
C580   C     0.31324   0.94349   0.50000   0.00000  Uiso   1.00
C581   C     0.18676   0.55651   0.50000   0.00000  Uiso   1.00
C582   C     0.18677   0.94347   0.50000   0.00000  Uiso   1.00
C583   C     0.31324   0.55653   0.50000   0.00000  Uiso   1.00
C584   C     0.49999   0.78959   0.35734   0.00000  Uiso   1.00
Cl585  Cl    0.49999   0.84112   0.38661   0.00000  Uiso   1.00
Cl586  Cl    0.00001   0.65887   0.61339   0.00000  Uiso   1.00
Cl587  Cl    0.00003   0.65888   0.38660   0.00000  Uiso   1.00
Cl588  Cl    0.49997   0.84112   0.61340   0.00000  Uiso   1.00
Cl589  Cl    0.24999   0.59112   0.38661   0.00000  Uiso   1.00
Cl590  Cl    0.25001   0.90888   0.61339   0.00000  Uiso   1.00
Cl591  Cl    0.25003   0.90888   0.38660   0.00000  Uiso   1.00
Cl592  Cl    0.24997   0.59112   0.61340   0.00000  Uiso   1.00
N593   N     0.00000   0.75000   0.61907   0.00000  Uiso   1.00
N594   N     0.00000   0.75000   0.38093   0.00000  Uiso   1.00
N595   N     0.25000   0.50000   0.61907   0.00000  Uiso   1.00
N596   N     0.25000   0.50000   0.38093   0.00000  Uiso   1.00
O597   O     0.04581   0.70419   0.53821   0.00000  Uiso   1.00
O598   O     0.20420   0.54581   0.46179   0.00000  Uiso   1.00
O599   O     0.20420   0.54581   0.53821   0.00000  Uiso   1.00
O600   O     0.29581   0.95419   0.46179   0.00000  Uiso   1.00
O601   O     0.20420   0.95419   0.46179   0.00000  Uiso   1.00
O602   O     0.29581   0.54581   0.53821   0.00000  Uiso   1.00
O603   O     0.29581   0.54581   0.46179   0.00000  Uiso   1.00
O604   O     0.20420   0.95419   0.53821   0.00000  Uiso   1.00
O605   O     0.45420   0.79581   0.46179   0.00000  Uiso   1.00
O606   O     0.45420   0.79581   0.53821   0.00000  Uiso   1.00
O607   O     0.04581   0.70419   0.46179   0.00000  Uiso   1.00
O608   O     0.45420   0.70419   0.46179   0.00000  Uiso   1.00
O609   O     0.04581   0.79581   0.53821   0.00000  Uiso   1.00
O610   O     0.04581   0.79581   0.46179   0.00000  Uiso   1.00
O611   O     0.45420   0.70419   0.53821   0.00000  Uiso   1.00
O612   O     0.29581   0.95419   0.53821   0.00000  Uiso   1.00
Zn613  Zn    0.00000   0.75000   0.55104   0.00000  Uiso   1.00
Zn614  Zn    0.00000   0.75000   0.44896   0.00000  Uiso   1.00
Zn615  Zn    0.25000   0.50000   0.55104   0.00000  Uiso   1.00
Zn616  Zn    0.25000   0.50000   0.44896   0.00000  Uiso   1.00
Br617  Br    0.88790   0.67852   0.40188   0.00000  Uiso   1.00
Br618  Br    0.86210   0.57148   0.59812   0.00000  Uiso   1.00
Br619  Br    0.86216   0.57135   0.40192   0.00000  Uiso   1.00
Br620  Br    0.63784   0.92865   0.59808   0.00000  Uiso   1.00
Br621  Br    0.86216   0.92859   0.59810   0.00000  Uiso   1.00
Br622  Br    0.63784   0.57141   0.40190   0.00000  Uiso   1.00
Br623  Br    0.63782   0.57137   0.59808   0.00000  Uiso   1.00
Br624  Br    0.86218   0.92863   0.40192   0.00000  Uiso   1.00
Br625  Br    0.61210   0.82148   0.59812   0.00000  Uiso   1.00
Br626  Br    0.61216   0.82135   0.40192   0.00000  Uiso   1.00
Br627  Br    0.88784   0.67865   0.59808   0.00000  Uiso   1.00
Br628  Br    0.61216   0.67859   0.59810   0.00000  Uiso   1.00
Br629  Br    0.88784   0.82141   0.40190   0.00000  Uiso   1.00
Br630  Br    0.88782   0.82137   0.59808   0.00000  Uiso   1.00
Br631  Br    0.61218   0.67863   0.40192   0.00000  Uiso   1.00
Br632  Br    0.63790   0.92852   0.40188   0.00000  Uiso   1.00
C633   C     0.56324   0.69349   0.50000   0.00000  Uiso   1.00
C634   C     0.50001   0.71041   0.64266   0.00000  Uiso   1.00
C635   C     0.50001   0.71041   0.35734   0.00000  Uiso   1.00
C636   C     0.99999   0.78959   0.64266   0.00000  Uiso   1.00
C637   C     0.74999   0.53959   0.35734   0.00000  Uiso   1.00
C638   C     0.75001   0.96041   0.64266   0.00000  Uiso   1.00
C639   C     0.75001   0.96041   0.35734   0.00000  Uiso   1.00
C640   C     0.74999   0.53959   0.64266   0.00000  Uiso   1.00
C641   C     0.88575   0.64529   0.45844   0.00000  Uiso   1.00
C642   C     0.61425   0.85471   0.54156   0.00000  Uiso   1.00
C643   C     0.61428   0.85466   0.45845   0.00000  Uiso   1.00
C644   C     0.93676   0.80651   0.50000   0.00000  Uiso   1.00
C645   C     0.88572   0.64534   0.54155   0.00000  Uiso   1.00
C646   C     0.61428   0.64532   0.54155   0.00000  Uiso   1.00
C647   C     0.88572   0.85468   0.45844   0.00000  Uiso   1.00
C648   C     0.88572   0.85467   0.54155   0.00000  Uiso   1.00
C649   C     0.61428   0.64533   0.45845   0.00000  Uiso   1.00
C650   C     0.63575   0.89529   0.45844   0.00000  Uiso   1.00
C651   C     0.86425   0.60471   0.54156   0.00000  Uiso   1.00
C652   C     0.86428   0.60466   0.45845   0.00000  Uiso   1.00
C653   C     0.63572   0.89534   0.54155   0.00000  Uiso   1.00
C654   C     0.86428   0.89532   0.54155   0.00000  Uiso   1.00
C655   C     0.93677   0.69347   0.50000   0.00000  Uiso   1.00
C656   C     0.63572   0.60468   0.45844   0.00000  Uiso   1.00
C657   C     0.63572   0.60467   0.54155   0.00000  Uiso   1.00
C658   C     0.86428   0.89533   0.45845   0.00000  Uiso   1.00
C659   C     0.59969   0.83688   0.50001   0.00000  Uiso   1.00
C660   C     0.90031   0.66312   0.49999   0.00000  Uiso   1.00
C661   C     0.90030   0.83686   0.50000   0.00000  Uiso   1.00
C662   C     0.59970   0.66314   0.50000   0.00000  Uiso   1.00
C663   C     0.84969   0.58688   0.50001   0.00000  Uiso   1.00
C664   C     0.65031   0.91312   0.49999   0.00000  Uiso   1.00
C665   C     0.65030   0.58686   0.50000   0.00000  Uiso   1.00
C666   C     0.56324   0.80653   0.50000   0.00000  Uiso   1.00
C667   C     0.84970   0.91314   0.50000   0.00000  Uiso   1.00
C668   C     0.81324   0.94349   0.50000   0.00000  Uiso   1.00
C669   C     0.68676   0.55651   0.50000   0.00000  Uiso   1.00
C670   C     0.68677   0.94347   0.50000   0.00000  Uiso   1.00
C671   C     0.81324   0.55653   0.50000   0.00000  Uiso   1.00
C672   C     0.99999   0.78959   0.35734   0.00000  Uiso   1.00
Cl673  Cl    0.99999   0.84112   0.38661   0.00000  Uiso   1.00
Cl674  Cl    0.50001   0.65887   0.61339   0.00000  Uiso   1.00
Cl675  Cl    0.50003   0.65888   0.38660   0.00000  Uiso   1.00
Cl676  Cl    0.99997   0.84112   0.61340   0.00000  Uiso   1.00
Cl677  Cl    0.74999   0.59112   0.38661   0.00000  Uiso   1.00
Cl678  Cl    0.75001   0.90888   0.61339   0.00000  Uiso   1.00
Cl679  Cl    0.75003   0.90888   0.38660   0.00000  Uiso   1.00
Cl680  Cl    0.74997   0.59112   0.61340   0.00000  Uiso   1.00
N681   N     0.50000   0.75000   0.61907   0.00000  Uiso   1.00
N682   N     0.50000   0.75000   0.38093   0.00000  Uiso   1.00
N683   N     0.75000   0.50000   0.61907   0.00000  Uiso   1.00
N684   N     0.75000   0.50000   0.38093   0.00000  Uiso   1.00
O685   O     0.54581   0.70419   0.53821   0.00000  Uiso   1.00
O686   O     0.70420   0.54581   0.46179   0.00000  Uiso   1.00
O687   O     0.70420   0.54581   0.53821   0.00000  Uiso   1.00
O688   O     0.79581   0.95419   0.46179   0.00000  Uiso   1.00
O689   O     0.70420   0.95419   0.46179   0.00000  Uiso   1.00
O690   O     0.79581   0.54581   0.53821   0.00000  Uiso   1.00
O691   O     0.79581   0.54581   0.46179   0.00000  Uiso   1.00
O692   O     0.70420   0.95419   0.53821   0.00000  Uiso   1.00
O693   O     0.95420   0.79581   0.46179   0.00000  Uiso   1.00
O694   O     0.95420   0.79581   0.53821   0.00000  Uiso   1.00
O695   O     0.54581   0.70419   0.46179   0.00000  Uiso   1.00
O696   O     0.95420   0.70419   0.46179   0.00000  Uiso   1.00
O697   O     0.54581   0.79581   0.53821   0.00000  Uiso   1.00
O698   O     0.54581   0.79581   0.46179   0.00000  Uiso   1.00
O699   O     0.95420   0.70419   0.53821   0.00000  Uiso   1.00
O700   O     0.79581   0.95419   0.53821   0.00000  Uiso   1.00
Zn701  Zn    0.50000   0.75000   0.55104   0.00000  Uiso   1.00
Zn702  Zn    0.50000   0.75000   0.44896   0.00000  Uiso   1.00
Zn703  Zn    0.75000   0.50000   0.55104   0.00000  Uiso   1.00
Zn704  Zn    0.75000   0.50000   0.44896   0.00000  Uiso   1.00
Br705  Br    0.38790   0.17852   0.73521   0.00000  Uiso   1.00
Br706  Br    0.36210   0.07148   0.93145   0.00000  Uiso   1.00
Br707  Br    0.36216   0.07135   0.73526   0.00000  Uiso   1.00
Br708  Br    0.13784   0.42865   0.93141   0.00000  Uiso   1.00
Br709  Br    0.36216   0.42859   0.93143   0.00000  Uiso   1.00
Br710  Br    0.13784   0.07141   0.73523   0.00000  Uiso   1.00
Br711  Br    0.13782   0.07137   0.93141   0.00000  Uiso   1.00
Br712  Br    0.36218   0.42863   0.73525   0.00000  Uiso   1.00
Br713  Br    0.11210   0.32148   0.93145   0.00000  Uiso   1.00
Br714  Br    0.11216   0.32135   0.73526   0.00000  Uiso   1.00
Br715  Br    0.38784   0.17865   0.93141   0.00000  Uiso   1.00
Br716  Br    0.11216   0.17859   0.93143   0.00000  Uiso   1.00
Br717  Br    0.38784   0.32141   0.73523   0.00000  Uiso   1.00
Br718  Br    0.38782   0.32137   0.93141   0.00000  Uiso   1.00
Br719  Br    0.11218   0.17863   0.73525   0.00000  Uiso   1.00
Br720  Br    0.13790   0.42852   0.73521   0.00000  Uiso   1.00
C721   C     0.06324   0.19349   0.83333   0.00000  Uiso   1.00
C722   C     0.00001   0.21041   0.97599   0.00000  Uiso   1.00
C723   C     0.00001   0.21041   0.69067   0.00000  Uiso   1.00
C724   C     0.49999   0.28959   0.97600   0.00000  Uiso   1.00
C725   C     0.24999   0.03959   0.69067   0.00000  Uiso   1.00
C726   C     0.25001   0.46041   0.97599   0.00000  Uiso   1.00
C727   C     0.25001   0.46041   0.69067   0.00000  Uiso   1.00
C728   C     0.24999   0.03959   0.97600   0.00000  Uiso   1.00
C729   C     0.38575   0.14529   0.79177   0.00000  Uiso   1.00
C730   C     0.11425   0.35471   0.87489   0.00000  Uiso   1.00
C731   C     0.11428   0.35466   0.79178   0.00000  Uiso   1.00
C732   C     0.43676   0.30651   0.83333   0.00000  Uiso   1.00
C733   C     0.38572   0.14534   0.87488   0.00000  Uiso   1.00
C734   C     0.11428   0.14532   0.87489   0.00000  Uiso   1.00
C735   C     0.38572   0.35468   0.79178   0.00000  Uiso   1.00
C736   C     0.38572   0.35467   0.87488   0.00000  Uiso   1.00
C737   C     0.11428   0.14533   0.79178   0.00000  Uiso   1.00
C738   C     0.13575   0.39529   0.79177   0.00000  Uiso   1.00
C739   C     0.36425   0.10471   0.87489   0.00000  Uiso   1.00
C740   C     0.36428   0.10466   0.79178   0.00000  Uiso   1.00
C741   C     0.13572   0.39534   0.87488   0.00000  Uiso   1.00
C742   C     0.36428   0.39532   0.87489   0.00000  Uiso   1.00
C743   C     0.43677   0.19347   0.83333   0.00000  Uiso   1.00
C744   C     0.13572   0.10468   0.79178   0.00000  Uiso   1.00
C745   C     0.13572   0.10467   0.87488   0.00000  Uiso   1.00
C746   C     0.36428   0.39533   0.79178   0.00000  Uiso   1.00
C747   C     0.09969   0.33688   0.83334   0.00000  Uiso   1.00
C748   C     0.40031   0.16312   0.83333   0.00000  Uiso   1.00
C749   C     0.40030   0.33686   0.83333   0.00000  Uiso   1.00
C750   C     0.09970   0.16314   0.83334   0.00000  Uiso   1.00
C751   C     0.34969   0.08688   0.83334   0.00000  Uiso   1.00
C752   C     0.15031   0.41312   0.83333   0.00000  Uiso   1.00
C753   C     0.15030   0.08686   0.83333   0.00000  Uiso   1.00
C754   C     0.06324   0.30653   0.83334   0.00000  Uiso   1.00
C755   C     0.34970   0.41314   0.83334   0.00000  Uiso   1.00
C756   C     0.31324   0.44349   0.83333   0.00000  Uiso   1.00
C757   C     0.18676   0.05651   0.83333   0.00000  Uiso   1.00
C758   C     0.18677   0.44347   0.83333   0.00000  Uiso   1.00
C759   C     0.31324   0.05653   0.83334   0.00000  Uiso   1.00
C760   C     0.49999   0.28959   0.69067   0.00000  Uiso   1.00
Cl761  Cl    0.49999   0.34112   0.71994   0.00000  Uiso   1.00
Cl762  Cl    0.00001   0.15887   0.94672   0.00000  Uiso   1.00
Cl763  Cl    0.00003   0.15888   0.71993   0.00000  Uiso   1.00
Cl764  Cl    0.49997   0.34112   0.94674   0.00000  Uiso   1.00
Cl765  Cl    0.24999   0.09112   0.71994   0.00000  Uiso   1.00
Cl766  Cl    0.25001   0.40888   0.94672   0.00000  Uiso   1.00
Cl767  Cl    0.25003   0.40888   0.71993   0.00000  Uiso   1.00
Cl768  Cl    0.24997   0.09112   0.94674   0.00000  Uiso   1.00
N769   N     0.00000   0.25000   0.95240   0.00000  Uiso   1.00
N770   N     0.00000   0.25000   0.71427   0.00000  Uiso   1.00
N771   N     0.25000   0.00000   0.95240   0.00000  Uiso   1.00
N772   N     0.25000   0.00000   0.71427   0.00000  Uiso   1.00
O773   O     0.04581   0.20419   0.87154   0.00000  Uiso   1.00
O774   O     0.20420   0.04581   0.79513   0.00000  Uiso   1.00
O775   O     0.20420   0.04581   0.87154   0.00000  Uiso   1.00
O776   O     0.29581   0.45419   0.79513   0.00000  Uiso   1.00
O777   O     0.20420   0.45419   0.79513   0.00000  Uiso   1.00
O778   O     0.29581   0.04581   0.87154   0.00000  Uiso   1.00
O779   O     0.29581   0.04581   0.79513   0.00000  Uiso   1.00
O780   O     0.20420   0.45419   0.87154   0.00000  Uiso   1.00
O781   O     0.45420   0.29581   0.79513   0.00000  Uiso   1.00
O782   O     0.45420   0.29581   0.87154   0.00000  Uiso   1.00
O783   O     0.04581   0.20419   0.79513   0.00000  Uiso   1.00
O784   O     0.45420   0.20419   0.79513   0.00000  Uiso   1.00
O785   O     0.04581   0.29581   0.87154   0.00000  Uiso   1.00
O786   O     0.04581   0.29581   0.79513   0.00000  Uiso   1.00
O787   O     0.45420   0.20419   0.87154   0.00000  Uiso   1.00
O788   O     0.29581   0.45419   0.87154   0.00000  Uiso   1.00
Zn789  Zn    0.00000   0.25000   0.88437   0.00000  Uiso   1.00
Zn790  Zn    0.00000   0.25000   0.78229   0.00000  Uiso   1.00
Zn791  Zn    0.25000   0.00000   0.88437   0.00000  Uiso   1.00
Zn792  Zn    0.25000   0.00000   0.78229   0.00000  Uiso   1.00
Br793  Br    0.88790   0.17852   0.73521   0.00000  Uiso   1.00
Br794  Br    0.86210   0.07148   0.93145   0.00000  Uiso   1.00
Br795  Br    0.86216   0.07135   0.73526   0.00000  Uiso   1.00
Br796  Br    0.63784   0.42865   0.93141   0.00000  Uiso   1.00
Br797  Br    0.86216   0.42859   0.93143   0.00000  Uiso   1.00
Br798  Br    0.63784   0.07141   0.73523   0.00000  Uiso   1.00
Br799  Br    0.63782   0.07137   0.93141   0.00000  Uiso   1.00
Br800  Br    0.86218   0.42863   0.73525   0.00000  Uiso   1.00
Br801  Br    0.61210   0.32148   0.93145   0.00000  Uiso   1.00
Br802  Br    0.61216   0.32135   0.73526   0.00000  Uiso   1.00
Br803  Br    0.88784   0.17865   0.93141   0.00000  Uiso   1.00
Br804  Br    0.61216   0.17859   0.93143   0.00000  Uiso   1.00
Br805  Br    0.88784   0.32141   0.73523   0.00000  Uiso   1.00
Br806  Br    0.88782   0.32137   0.93141   0.00000  Uiso   1.00
Br807  Br    0.61218   0.17863   0.73525   0.00000  Uiso   1.00
Br808  Br    0.63790   0.42852   0.73521   0.00000  Uiso   1.00
C809   C     0.56324   0.19349   0.83333   0.00000  Uiso   1.00
C810   C     0.50001   0.21041   0.97599   0.00000  Uiso   1.00
C811   C     0.50001   0.21041   0.69067   0.00000  Uiso   1.00
C812   C     0.99999   0.28959   0.97600   0.00000  Uiso   1.00
C813   C     0.74999   0.03959   0.69067   0.00000  Uiso   1.00
C814   C     0.75001   0.46041   0.97599   0.00000  Uiso   1.00
C815   C     0.75001   0.46041   0.69067   0.00000  Uiso   1.00
C816   C     0.74999   0.03959   0.97600   0.00000  Uiso   1.00
C817   C     0.88575   0.14529   0.79177   0.00000  Uiso   1.00
C818   C     0.61425   0.35471   0.87489   0.00000  Uiso   1.00
C819   C     0.61428   0.35466   0.79178   0.00000  Uiso   1.00
C820   C     0.93676   0.30651   0.83333   0.00000  Uiso   1.00
C821   C     0.88572   0.14534   0.87488   0.00000  Uiso   1.00
C822   C     0.61428   0.14532   0.87489   0.00000  Uiso   1.00
C823   C     0.88572   0.35468   0.79178   0.00000  Uiso   1.00
C824   C     0.88572   0.35467   0.87488   0.00000  Uiso   1.00
C825   C     0.61428   0.14533   0.79178   0.00000  Uiso   1.00
C826   C     0.63575   0.39529   0.79177   0.00000  Uiso   1.00
C827   C     0.86425   0.10471   0.87489   0.00000  Uiso   1.00
C828   C     0.86428   0.10466   0.79178   0.00000  Uiso   1.00
C829   C     0.63572   0.39534   0.87488   0.00000  Uiso   1.00
C830   C     0.86428   0.39532   0.87489   0.00000  Uiso   1.00
C831   C     0.93677   0.19347   0.83333   0.00000  Uiso   1.00
C832   C     0.63572   0.10468   0.79178   0.00000  Uiso   1.00
C833   C     0.63572   0.10467   0.87488   0.00000  Uiso   1.00
C834   C     0.86428   0.39533   0.79178   0.00000  Uiso   1.00
C835   C     0.59969   0.33688   0.83334   0.00000  Uiso   1.00
C836   C     0.90031   0.16312   0.83333   0.00000  Uiso   1.00
C837   C     0.90030   0.33686   0.83333   0.00000  Uiso   1.00
C838   C     0.59970   0.16314   0.83334   0.00000  Uiso   1.00
C839   C     0.84969   0.08688   0.83334   0.00000  Uiso   1.00
C840   C     0.65031   0.41312   0.83333   0.00000  Uiso   1.00
C841   C     0.65030   0.08686   0.83333   0.00000  Uiso   1.00
C842   C     0.56324   0.30653   0.83334   0.00000  Uiso   1.00
C843   C     0.84970   0.41314   0.83334   0.00000  Uiso   1.00
C844   C     0.81324   0.44349   0.83333   0.00000  Uiso   1.00
C845   C     0.68676   0.05651   0.83333   0.00000  Uiso   1.00
C846   C     0.68677   0.44347   0.83333   0.00000  Uiso   1.00
C847   C     0.81324   0.05653   0.83334   0.00000  Uiso   1.00
C848   C     0.99999   0.28959   0.69067   0.00000  Uiso   1.00
Cl849  Cl    0.99999   0.34112   0.71994   0.00000  Uiso   1.00
Cl850  Cl    0.50001   0.15887   0.94672   0.00000  Uiso   1.00
Cl851  Cl    0.50003   0.15888   0.71993   0.00000  Uiso   1.00
Cl852  Cl    0.99997   0.34112   0.94674   0.00000  Uiso   1.00
Cl853  Cl    0.74999   0.09112   0.71994   0.00000  Uiso   1.00
Cl854  Cl    0.75001   0.40888   0.94672   0.00000  Uiso   1.00
Cl855  Cl    0.75003   0.40888   0.71993   0.00000  Uiso   1.00
Cl856  Cl    0.74997   0.09112   0.94674   0.00000  Uiso   1.00
N857   N     0.50000   0.25000   0.95240   0.00000  Uiso   1.00
N858   N     0.50000   0.25000   0.71427   0.00000  Uiso   1.00
N859   N     0.75000   0.00000   0.95240   0.00000  Uiso   1.00
N860   N     0.75000   0.00000   0.71427   0.00000  Uiso   1.00
O861   O     0.54581   0.20419   0.87154   0.00000  Uiso   1.00
O862   O     0.70420   0.04581   0.79513   0.00000  Uiso   1.00
O863   O     0.70420   0.04581   0.87154   0.00000  Uiso   1.00
O864   O     0.79581   0.45419   0.79513   0.00000  Uiso   1.00
O865   O     0.70420   0.45419   0.79513   0.00000  Uiso   1.00
O866   O     0.79581   0.04581   0.87154   0.00000  Uiso   1.00
O867   O     0.79581   0.04581   0.79513   0.00000  Uiso   1.00
O868   O     0.70420   0.45419   0.87154   0.00000  Uiso   1.00
O869   O     0.95420   0.29581   0.79513   0.00000  Uiso   1.00
O870   O     0.95420   0.29581   0.87154   0.00000  Uiso   1.00
O871   O     0.54581   0.20419   0.79513   0.00000  Uiso   1.00
O872   O     0.95420   0.20419   0.79513   0.00000  Uiso   1.00
O873   O     0.54581   0.29581   0.87154   0.00000  Uiso   1.00
O874   O     0.54581   0.29581   0.79513   0.00000  Uiso   1.00
O875   O     0.95420   0.20419   0.87154   0.00000  Uiso   1.00
O876   O     0.79581   0.45419   0.87154   0.00000  Uiso   1.00
Zn877  Zn    0.50000   0.25000   0.88437   0.00000  Uiso   1.00
Zn878  Zn    0.50000   0.25000   0.78229   0.00000  Uiso   1.00
Zn879  Zn    0.75000   0.00000   0.88437   0.00000  Uiso   1.00
Zn880  Zn    0.75000   0.00000   0.78229   0.00000  Uiso   1.00
Br881  Br    0.38790   0.67852   0.73521   0.00000  Uiso   1.00
Br882  Br    0.36210   0.57148   0.93145   0.00000  Uiso   1.00
Br883  Br    0.36216   0.57135   0.73526   0.00000  Uiso   1.00
Br884  Br    0.13784   0.92865   0.93141   0.00000  Uiso   1.00
Br885  Br    0.36216   0.92859   0.93143   0.00000  Uiso   1.00
Br886  Br    0.13784   0.57141   0.73523   0.00000  Uiso   1.00
Br887  Br    0.13782   0.57137   0.93141   0.00000  Uiso   1.00
Br888  Br    0.36218   0.92863   0.73525   0.00000  Uiso   1.00
Br889  Br    0.11210   0.82148   0.93145   0.00000  Uiso   1.00
Br890  Br    0.11216   0.82135   0.73526   0.00000  Uiso   1.00
Br891  Br    0.38784   0.67865   0.93141   0.00000  Uiso   1.00
Br892  Br    0.11216   0.67859   0.93143   0.00000  Uiso   1.00
Br893  Br    0.38784   0.82141   0.73523   0.00000  Uiso   1.00
Br894  Br    0.38782   0.82137   0.93141   0.00000  Uiso   1.00
Br895  Br    0.11218   0.67863   0.73525   0.00000  Uiso   1.00
Br896  Br    0.13790   0.92852   0.73521   0.00000  Uiso   1.00
C897   C     0.06324   0.69349   0.83333   0.00000  Uiso   1.00
C898   C     0.00001   0.71041   0.97599   0.00000  Uiso   1.00
C899   C     0.00001   0.71041   0.69067   0.00000  Uiso   1.00
C900   C     0.49999   0.78959   0.97600   0.00000  Uiso   1.00
C901   C     0.24999   0.53959   0.69067   0.00000  Uiso   1.00
C902   C     0.25001   0.96041   0.97599   0.00000  Uiso   1.00
C903   C     0.25001   0.96041   0.69067   0.00000  Uiso   1.00
C904   C     0.24999   0.53959   0.97600   0.00000  Uiso   1.00
C905   C     0.38575   0.64529   0.79177   0.00000  Uiso   1.00
C906   C     0.11425   0.85471   0.87489   0.00000  Uiso   1.00
C907   C     0.11428   0.85466   0.79178   0.00000  Uiso   1.00
C908   C     0.43676   0.80651   0.83333   0.00000  Uiso   1.00
C909   C     0.38572   0.64534   0.87488   0.00000  Uiso   1.00
C910   C     0.11428   0.64532   0.87489   0.00000  Uiso   1.00
C911   C     0.38572   0.85468   0.79178   0.00000  Uiso   1.00
C912   C     0.38572   0.85467   0.87488   0.00000  Uiso   1.00
C913   C     0.11428   0.64533   0.79178   0.00000  Uiso   1.00
C914   C     0.13575   0.89529   0.79177   0.00000  Uiso   1.00
C915   C     0.36425   0.60471   0.87489   0.00000  Uiso   1.00
C916   C     0.36428   0.60466   0.79178   0.00000  Uiso   1.00
C917   C     0.13572   0.89534   0.87488   0.00000  Uiso   1.00
C918   C     0.36428   0.89532   0.87489   0.00000  Uiso   1.00
C919   C     0.43677   0.69347   0.83333   0.00000  Uiso   1.00
C920   C     0.13572   0.60468   0.79178   0.00000  Uiso   1.00
C921   C     0.13572   0.60467   0.87488   0.00000  Uiso   1.00
C922   C     0.36428   0.89533   0.79178   0.00000  Uiso   1.00
C923   C     0.09969   0.83688   0.83334   0.00000  Uiso   1.00
C924   C     0.40031   0.66312   0.83333   0.00000  Uiso   1.00
C925   C     0.40030   0.83686   0.83333   0.00000  Uiso   1.00
C926   C     0.09970   0.66314   0.83334   0.00000  Uiso   1.00
C927   C     0.34969   0.58688   0.83334   0.00000  Uiso   1.00
C928   C     0.15031   0.91312   0.83333   0.00000  Uiso   1.00
C929   C     0.15030   0.58686   0.83333   0.00000  Uiso   1.00
C930   C     0.06324   0.80653   0.83334   0.00000  Uiso   1.00
C931   C     0.34970   0.91314   0.83334   0.00000  Uiso   1.00
C932   C     0.31324   0.94349   0.83333   0.00000  Uiso   1.00
C933   C     0.18676   0.55651   0.83333   0.00000  Uiso   1.00
C934   C     0.18677   0.94347   0.83333   0.00000  Uiso   1.00
C935   C     0.31324   0.55653   0.83334   0.00000  Uiso   1.00
C936   C     0.49999   0.78959   0.69067   0.00000  Uiso   1.00
Cl937  Cl    0.49999   0.84112   0.71994   0.00000  Uiso   1.00
Cl938  Cl    0.00001   0.65887   0.94672   0.00000  Uiso   1.00
Cl939  Cl    0.00003   0.65888   0.71993   0.00000  Uiso   1.00
Cl940  Cl    0.49997   0.84112   0.94674   0.00000  Uiso   1.00
Cl941  Cl    0.24999   0.59112   0.71994   0.00000  Uiso   1.00
Cl942  Cl    0.25001   0.90888   0.94672   0.00000  Uiso   1.00
Cl943  Cl    0.25003   0.90888   0.71993   0.00000  Uiso   1.00
Cl944  Cl    0.24997   0.59112   0.94674   0.00000  Uiso   1.00
N945   N     0.00000   0.75000   0.95240   0.00000  Uiso   1.00
N946   N     0.00000   0.75000   0.71427   0.00000  Uiso   1.00
N947   N     0.25000   0.50000   0.95240   0.00000  Uiso   1.00
N948   N     0.25000   0.50000   0.71427   0.00000  Uiso   1.00
O949   O     0.04581   0.70419   0.87154   0.00000  Uiso   1.00
O950   O     0.20420   0.54581   0.79513   0.00000  Uiso   1.00
O951   O     0.20420   0.54581   0.87154   0.00000  Uiso   1.00
O952   O     0.29581   0.95419   0.79513   0.00000  Uiso   1.00
O953   O     0.20420   0.95419   0.79513   0.00000  Uiso   1.00
O954   O     0.29581   0.54581   0.87154   0.00000  Uiso   1.00
O955   O     0.29581   0.54581   0.79513   0.00000  Uiso   1.00
O956   O     0.20420   0.95419   0.87154   0.00000  Uiso   1.00
O957   O     0.45420   0.79581   0.79513   0.00000  Uiso   1.00
O958   O     0.45420   0.79581   0.87154   0.00000  Uiso   1.00
O959   O     0.04581   0.70419   0.79513   0.00000  Uiso   1.00
O960   O     0.45420   0.70419   0.79513   0.00000  Uiso   1.00
O961   O     0.04581   0.79581   0.87154   0.00000  Uiso   1.00
O962   O     0.04581   0.79581   0.79513   0.00000  Uiso   1.00
O963   O     0.45420   0.70419   0.87154   0.00000  Uiso   1.00
O964   O     0.29581   0.95419   0.87154   0.00000  Uiso   1.00
Zn965  Zn    0.00000   0.75000   0.88437   0.00000  Uiso   1.00
Zn966  Zn    0.00000   0.75000   0.78229   0.00000  Uiso   1.00
Zn967  Zn    0.25000   0.50000   0.88437   0.00000  Uiso   1.00
Zn968  Zn    0.25000   0.50000   0.78229   0.00000  Uiso   1.00
Br969  Br    0.88790   0.67852   0.73521   0.00000  Uiso   1.00
Br970  Br    0.86210   0.57148   0.93145   0.00000  Uiso   1.00
Br971  Br    0.86216   0.57135   0.73526   0.00000  Uiso   1.00
Br972  Br    0.63784   0.92865   0.93141   0.00000  Uiso   1.00
Br973  Br    0.86216   0.92859   0.93143   0.00000  Uiso   1.00
Br974  Br    0.63784   0.57141   0.73523   0.00000  Uiso   1.00
Br975  Br    0.63782   0.57137   0.93141   0.00000  Uiso   1.00
Br976  Br    0.86218   0.92863   0.73525   0.00000  Uiso   1.00
Br977  Br    0.61210   0.82148   0.93145   0.00000  Uiso   1.00
Br978  Br    0.61216   0.82135   0.73526   0.00000  Uiso   1.00
Br979  Br    0.88784   0.67865   0.93141   0.00000  Uiso   1.00
Br980  Br    0.61216   0.67859   0.93143   0.00000  Uiso   1.00
Br981  Br    0.88784   0.82141   0.73523   0.00000  Uiso   1.00
Br982  Br    0.88782   0.82137   0.93141   0.00000  Uiso   1.00
Br983  Br    0.61218   0.67863   0.73525   0.00000  Uiso   1.00
Br984  Br    0.63790   0.92852   0.73521   0.00000  Uiso   1.00
C985   C     0.56324   0.69349   0.83333   0.00000  Uiso   1.00
C986   C     0.50001   0.71041   0.97599   0.00000  Uiso   1.00
C987   C     0.50001   0.71041   0.69067   0.00000  Uiso   1.00
C988   C     0.99999   0.78959   0.97600   0.00000  Uiso   1.00
C989   C     0.74999   0.53959   0.69067   0.00000  Uiso   1.00
C990   C     0.75001   0.96041   0.97599   0.00000  Uiso   1.00
C991   C     0.75001   0.96041   0.69067   0.00000  Uiso   1.00
C992   C     0.74999   0.53959   0.97600   0.00000  Uiso   1.00
C993   C     0.88575   0.64529   0.79177   0.00000  Uiso   1.00
C994   C     0.61425   0.85471   0.87489   0.00000  Uiso   1.00
C995   C     0.61428   0.85466   0.79178   0.00000  Uiso   1.00
C996   C     0.93676   0.80651   0.83333   0.00000  Uiso   1.00
C997   C     0.88572   0.64534   0.87488   0.00000  Uiso   1.00
C998   C     0.61428   0.64532   0.87489   0.00000  Uiso   1.00
C999   C     0.88572   0.85468   0.79178   0.00000  Uiso   1.00
C1000  C     0.88572   0.85467   0.87488   0.00000  Uiso   1.00
C1001  C     0.61428   0.64533   0.79178   0.00000  Uiso   1.00
C1002  C     0.63575   0.89529   0.79177   0.00000  Uiso   1.00
C1003  C     0.86425   0.60471   0.87489   0.00000  Uiso   1.00
C1004  C     0.86428   0.60466   0.79178   0.00000  Uiso   1.00
C1005  C     0.63572   0.89534   0.87488   0.00000  Uiso   1.00
C1006  C     0.86428   0.89532   0.87489   0.00000  Uiso   1.00
C1007  C     0.93677   0.69347   0.83333   0.00000  Uiso   1.00
C1008  C     0.63572   0.60468   0.79178   0.00000  Uiso   1.00
C1009  C     0.63572   0.60467   0.87488   0.00000  Uiso   1.00
C1010  C     0.86428   0.89533   0.79178   0.00000  Uiso   1.00
C1011  C     0.59969   0.83688   0.83334   0.00000  Uiso   1.00
C1012  C     0.90031   0.66312   0.83333   0.00000  Uiso   1.00
C1013  C     0.90030   0.83686   0.83333   0.00000  Uiso   1.00
C1014  C     0.59970   0.66314   0.83334   0.00000  Uiso   1.00
C1015  C     0.84969   0.58688   0.83334   0.00000  Uiso   1.00
C1016  C     0.65031   0.91312   0.83333   0.00000  Uiso   1.00
C1017  C     0.65030   0.58686   0.83333   0.00000  Uiso   1.00
C1018  C     0.56324   0.80653   0.83334   0.00000  Uiso   1.00
C1019  C     0.84970   0.91314   0.83334   0.00000  Uiso   1.00
C1020  C     0.81324   0.94349   0.83333   0.00000  Uiso   1.00
C1021  C     0.68676   0.55651   0.83333   0.00000  Uiso   1.00
C1022  C     0.68677   0.94347   0.83333   0.00000  Uiso   1.00
C1023  C     0.81324   0.55653   0.83334   0.00000  Uiso   1.00
C1024  C     0.99999   0.78959   0.69067   0.00000  Uiso   1.00
Cl1025 Cl    0.99999   0.84112   0.71994   0.00000  Uiso   1.00
Cl1026 Cl    0.50001   0.65887   0.94672   0.00000  Uiso   1.00
Cl1027 Cl    0.50003   0.65888   0.71993   0.00000  Uiso   1.00
Cl1028 Cl    0.99997   0.84112   0.94674   0.00000  Uiso   1.00
Cl1029 Cl    0.74999   0.59112   0.71994   0.00000  Uiso   1.00
Cl1030 Cl    0.75001   0.90888   0.94672   0.00000  Uiso   1.00
Cl1031 Cl    0.75003   0.90888   0.71993   0.00000  Uiso   1.00
Cl1032 Cl    0.74997   0.59112   0.94674   0.00000  Uiso   1.00
N1033  N     0.50000   0.75000   0.95240   0.00000  Uiso   1.00
N1034  N     0.50000   0.75000   0.71427   0.00000  Uiso   1.00
N1035  N     0.75000   0.50000   0.95240   0.00000  Uiso   1.00
N1036  N     0.75000   0.50000   0.71427   0.00000  Uiso   1.00
O1037  O     0.54581   0.70419   0.87154   0.00000  Uiso   1.00
O1038  O     0.70420   0.54581   0.79513   0.00000  Uiso   1.00
O1039  O     0.70420   0.54581   0.87154   0.00000  Uiso   1.00
O1040  O     0.79581   0.95419   0.79513   0.00000  Uiso   1.00
O1041  O     0.70420   0.95419   0.79513   0.00000  Uiso   1.00
O1042  O     0.79581   0.54581   0.87154   0.00000  Uiso   1.00
O1043  O     0.79581   0.54581   0.79513   0.00000  Uiso   1.00
O1044  O     0.70420   0.95419   0.87154   0.00000  Uiso   1.00
O1045  O     0.95420   0.79581   0.79513   0.00000  Uiso   1.00
O1046  O     0.95420   0.79581   0.87154   0.00000  Uiso   1.00
O1047  O     0.54581   0.70419   0.79513   0.00000  Uiso   1.00
O1048  O     0.95420   0.70419   0.79513   0.00000  Uiso   1.00
O1049  O     0.54581   0.79581   0.87154   0.00000  Uiso   1.00
O1050  O     0.54581   0.79581   0.79513   0.00000  Uiso   1.00
O1051  O     0.95420   0.70419   0.87154   0.00000  Uiso   1.00
O1052  O     0.79581   0.95419   0.87154   0.00000  Uiso   1.00
Zn1053 Zn    0.50000   0.75000   0.88437   0.00000  Uiso   1.00
Zn1054 Zn    0.50000   0.75000   0.78229   0.00000  Uiso   1.00
Zn1055 Zn    0.75000   0.50000   0.88437   0.00000  Uiso   1.00
Zn1056 Zn    0.75000   0.50000   0.78229   0.00000  Uiso   1.00
loop_
_geom_bond_atom_site_label_1
_geom_bond_atom_site_label_2
_geom_bond_distance
_geom_bond_site_symmetry_2
_ccdc_geom_bond_type
Br1    C25     1.940   .     S
Br2    C35     1.940   .     S
Br3    C36     1.940   .     S
Br4    C37     1.940   .     S
Br5    C38     1.940   .     S
Br6    C40     1.940   .     S
Br7    C41     1.940   .     S
Br8    C42     1.940   .     S
Br9    C26     1.940   .     S
Br10   C27     1.940   .     S
Br11   C29     1.940   .     S
Br12   C30     1.940   .     S
Br13   C31     1.940   .     S
Br14   C32     1.940   .     S
Br15   C33     1.940   .     S
Br16   C34     1.940   .     S
C17    O69     1.288   .     A
C17    O79     1.288   .     A
C17    C46     1.443   .     S
C18    N65     1.369   .     A
C18    Cl58    1.760   .     S
C18    C371    1.415   .     S
C19    Cl59    1.760   .     S
C19    C722    1.415   1_554 S
C19    N66     1.369   .     S
C20    Cl60    1.760   .     S
C20    C408    1.415   .     S
C20    N153    1.369   .     S
C21    Cl61    1.760   .     S
C21    N68     1.369   .     A
C21    C728    1.415   1_554 S
C22    Cl62    1.760   .     S
C22    C375    1.415   .     S
C22    N243    1.369   .     S
C23    Cl63    1.760   .     S
C23    C726    1.415   1_554 S
C23    N244    1.369   .     S
C24    N67     1.369   .     A
C24    Cl64    1.760   .     S
C24    C373    1.415   .     S
C25    C44     1.409   .     A
C25    C36     1.379   .     A
C26    C43     1.409   .     A
C26    C37     1.379   .     A
C27    C34     1.379   .     A
C27    C43     1.409   .     A
C28    O78     1.288   .     A
C28    C45     1.443   .     S
C28    O77     1.288   .     A
C29    C35     1.379   .     A
C29    C44     1.409   .     A
C30    C41     1.380   .     A
C30    C46     1.409   .     A
C31    C42     1.380   .     A
C31    C45     1.409   .     A
C32    C45     1.409   .     A
C32    C38     1.380   .     A
C33    C46     1.409   .     A
C33    C40     1.380   .     A
C34    C48     1.409   .     A
C35    C47     1.409   .     A
C36    C47     1.409   .     A
C37    C48     1.409   .     A
C38    C51     1.409   .     A
C39    C44     1.443   .     S
C39    O80     1.288   .     A
C39    O83     1.288   .     A
C40    C49     1.409   .     A
C41    C49     1.409   .     A
C42    C51     1.409   .     A
C43    C50     1.443   .     S
C47    C55     1.443   .     S
C48    C54     1.443   .     S
C49    C53     1.443   .     S
C50    O82     1.288   .     A
C50    O81     1.288   .     A
C51    C52     1.443   .     S
C52    O84     1.288   .     A
C52    O72     1.288   .     A
C53    O70     1.288   .     A
C53    O71     1.288   .     A
C54    O73     1.288   .     A
C54    O76     1.288   .     A
C55    O74     1.288   .     A
C55    O75     1.288   .     A
C56    N154    1.369   .     A
C56    Cl57    1.760   .     S
C56    C724    1.415   1_554 S
N65    Zn85    2.005   .     S
N65    C108    1.369   1_455 S
N66    C144    1.369   1_455 A
N66    Zn86    2.005   .     S
N67    Zn87    2.005   .     S
N67    C198    1.369   1_545 S
N68    Zn88    2.005   .     S
N68    C199    1.369   1_545 S
O69    Zn85    2.001   .     S
O70    Zn88    2.001   .     S
O71    Zn87    2.001   .     S
O72    Zn264   2.001   .     S
O73    Zn264   2.001   .     S
O74    Zn87    2.001   .     S
O75    Zn88    2.001   .     S
O76    Zn263   2.001   .     S
O77    Zn174   2.001   .     S
O78    Zn173   2.001   .     S
O79    Zn86    2.001   .     S
O80    Zn174   2.001   .     S
O81    Zn85    2.001   .     S
O82    Zn86    2.001   .     S
O83    Zn173   2.001   .     S
O84    Zn263   2.001   .     S
Zn85   O171    2.001   1_455 S
Zn85   O166    2.001   1_455 S
Zn86   O168    2.001   1_455 S
Zn86   O165    2.001   1_455 S
Zn87   O252    2.001   1_545 S
Zn87   O260    2.001   1_545 S
Zn88   O249    2.001   1_545 S
Zn88   O248    2.001   1_545 S
Br89   C113    1.940   .     S
Br90   C123    1.940   .     S
Br91   C124    1.940   .     S
Br92   C125    1.940   .     S
Br93   C126    1.940   .     S
Br94   C128    1.940   .     S
Br95   C129    1.940   .     S
Br96   C130    1.940   .     S
Br97   C114    1.940   .     S
Br98   C115    1.940   .     S
Br99   C117    1.940   .     S
Br100  C118    1.940   .     S
Br101  C119    1.940   .     S
Br102  C120    1.940   .     S
Br103  C121    1.940   .     S
Br104  C122    1.940   .     S
C105   O157    1.288   .     A
C105   O167    1.288   .     A
C105   C134    1.443   .     S
C106   N153    1.369   .     A
C106   Cl146   1.760   .     S
C106   C459    1.415   .     S
C107   Cl147   1.760   .     S
C107   C810    1.415   1_554 S
C107   N154    1.369   .     S
C108   Cl148   1.760   .     S
C108   C496    1.415   .     S
C108   N65     1.369   1_655 S
C109   Cl149   1.760   .     S
C109   N156    1.369   .     A
C109   C816    1.415   1_554 S
C110   Cl150   1.760   .     S
C110   C463    1.415   .     S
C110   N331    1.369   .     S
C111   Cl151   1.760   .     S
C111   C814    1.415   1_554 S
C111   N332    1.369   .     S
C112   N155    1.369   .     A
C112   Cl152   1.760   .     S
C112   C461    1.415   .     S
C113   C132    1.409   .     A
C113   C124    1.379   .     A
C114   C131    1.409   .     A
C114   C125    1.379   .     A
C115   C122    1.379   .     A
C115   C131    1.409   .     A
C116   O166    1.288   .     A
C116   C133    1.443   .     S
C116   O165    1.288   .     A
C117   C123    1.379   .     A
C117   C132    1.409   .     A
C118   C129    1.380   .     A
C118   C134    1.409   .     A
C119   C130    1.380   .     A
C119   C133    1.409   .     A
C120   C133    1.409   .     A
C120   C126    1.380   .     A
C121   C134    1.409   .     A
C121   C128    1.380   .     A
C122   C136    1.409   .     A
C123   C135    1.409   .     A
C124   C135    1.409   .     A
C125   C136    1.409   .     A
C126   C139    1.409   .     A
C127   C132    1.443   .     S
C127   O168    1.288   .     A
C127   O171    1.288   .     A
C128   C137    1.409   .     A
C129   C137    1.409   .     A
C130   C139    1.409   .     A
C131   C138    1.443   .     S
C135   C143    1.443   .     S
C136   C142    1.443   .     S
C137   C141    1.443   .     S
C138   O170    1.288   .     A
C138   O169    1.288   .     A
C139   C140    1.443   .     S
C140   O172    1.288   .     A
C140   O160    1.288   .     A
C141   O158    1.288   .     A
C141   O159    1.288   .     A
C142   O161    1.288   .     A
C142   O164    1.288   .     A
C143   O162    1.288   .     A
C143   O163    1.288   .     A
C144   N66     1.369   1_655 A
C144   Cl145   1.760   .     S
C144   C812    1.415   1_554 S
N153   Zn173   2.005   .     S
N154   Zn174   2.005   .     S
N155   Zn175   2.005   .     S
N155   C286    1.369   1_545 S
N156   Zn176   2.005   .     S
N156   C287    1.369   1_545 S
O157   Zn173   2.001   .     S
O158   Zn176   2.001   .     S
O159   Zn175   2.001   .     S
O160   Zn352   2.001   .     S
O161   Zn352   2.001   .     S
O162   Zn175   2.001   .     S
O163   Zn176   2.001   .     S
O164   Zn351   2.001   .     S
O165   Zn86    2.001   1_655 S
O166   Zn85    2.001   1_655 S
O167   Zn174   2.001   .     S
O168   Zn86    2.001   1_655 S
O169   Zn173   2.001   .     S
O170   Zn174   2.001   .     S
O171   Zn85    2.001   1_655 S
O172   Zn351   2.001   .     S
Zn175  O340    2.001   1_545 S
Zn175  O348    2.001   1_545 S
Zn176  O337    2.001   1_545 S
Zn176  O336    2.001   1_545 S
Br177  C201    1.940   .     S
Br178  C211    1.940   .     S
Br179  C212    1.940   .     S
Br180  C213    1.940   .     S
Br181  C214    1.940   .     S
Br182  C216    1.940   .     S
Br183  C217    1.940   .     S
Br184  C218    1.940   .     S
Br185  C202    1.940   .     S
Br186  C203    1.940   .     S
Br187  C205    1.940   .     S
Br188  C206    1.940   .     S
Br189  C207    1.940   .     S
Br190  C208    1.940   .     S
Br191  C209    1.940   .     S
Br192  C210    1.940   .     S
C193   O245    1.288   .     A
C193   O255    1.288   .     A
C193   C222    1.443   .     S
C194   N241    1.369   .     A
C194   Cl234   1.760   .     S
C194   C547    1.415   .     S
C195   Cl235   1.760   .     S
C195   C898    1.415   1_554 S
C195   N242    1.369   .     S
C196   Cl236   1.760   .     S
C196   C584    1.415   .     S
C196   N329    1.369   .     S
C197   Cl237   1.760   .     S
C197   N244    1.369   .     A
C197   C904    1.415   1_554 S
C198   Cl238   1.760   .     S
C198   C551    1.415   .     S
C198   N67     1.369   1_565 S
C199   Cl239   1.760   .     S
C199   C902    1.415   1_554 S
C199   N68     1.369   1_565 S
C200   N243    1.369   .     A
C200   Cl240   1.760   .     S
C200   C549    1.415   .     S
C201   C220    1.409   .     A
C201   C212    1.379   .     A
C202   C219    1.409   .     A
C202   C213    1.379   .     A
C203   C210    1.379   .     A
C203   C219    1.409   .     A
C204   O254    1.288   .     A
C204   C221    1.443   .     S
C204   O253    1.288   .     A
C205   C211    1.379   .     A
C205   C220    1.409   .     A
C206   C217    1.380   .     A
C206   C222    1.409   .     A
C207   C218    1.380   .     A
C207   C221    1.409   .     A
C208   C221    1.409   .     A
C208   C214    1.380   .     A
C209   C222    1.409   .     A
C209   C216    1.380   .     A
C210   C224    1.409   .     A
C211   C223    1.409   .     A
C212   C223    1.409   .     A
C213   C224    1.409   .     A
C214   C227    1.409   .     A
C215   C220    1.443   .     S
C215   O256    1.288   .     A
C215   O259    1.288   .     A
C216   C225    1.409   .     A
C217   C225    1.409   .     A
C218   C227    1.409   .     A
C219   C226    1.443   .     S
C223   C231    1.443   .     S
C224   C230    1.443   .     S
C225   C229    1.443   .     S
C226   O258    1.288   .     A
C226   O257    1.288   .     A
C227   C228    1.443   .     S
C228   O260    1.288   .     A
C228   O248    1.288   .     A
C229   O246    1.288   .     A
C229   O247    1.288   .     A
C230   O249    1.288   .     A
C230   O252    1.288   .     A
C231   O250    1.288   .     A
C231   O251    1.288   .     A
C232   N330    1.369   .     A
C232   Cl233   1.760   .     S
C232   C900    1.415   1_554 S
N241   Zn261   2.005   .     S
N241   C284    1.369   1_455 S
N242   C320    1.369   1_455 A
N242   Zn262   2.005   .     S
N243   Zn263   2.005   .     S
N244   Zn264   2.005   .     S
O245   Zn261   2.001   .     S
O246   Zn264   2.001   .     S
O247   Zn263   2.001   .     S
O248   Zn88    2.001   1_565 S
O249   Zn88    2.001   1_565 S
O250   Zn263   2.001   .     S
O251   Zn264   2.001   .     S
O252   Zn87    2.001   1_565 S
O253   Zn350   2.001   .     S
O254   Zn349   2.001   .     S
O255   Zn262   2.001   .     S
O256   Zn350   2.001   .     S
O257   Zn261   2.001   .     S
O258   Zn262   2.001   .     S
O259   Zn349   2.001   .     S
O260   Zn87    2.001   1_565 S
Zn261  O347    2.001   1_455 S
Zn261  O342    2.001   1_455 S
Zn262  O344    2.001   1_455 S
Zn262  O341    2.001   1_455 S
Br265  C289    1.940   .     S
Br266  C299    1.940   .     S
Br267  C300    1.940   .     S
Br268  C301    1.940   .     S
Br269  C302    1.940   .     S
Br270  C304    1.940   .     S
Br271  C305    1.940   .     S
Br272  C306    1.940   .     S
Br273  C290    1.940   .     S
Br274  C291    1.940   .     S
Br275  C293    1.940   .     S
Br276  C294    1.940   .     S
Br277  C295    1.940   .     S
Br278  C296    1.940   .     S
Br279  C297    1.940   .     S
Br280  C298    1.940   .     S
C281   O333    1.288   .     A
C281   O343    1.288   .     A
C281   C310    1.443   .     S
C282   N329    1.369   .     A
C282   Cl322   1.760   .     S
C282   C635    1.415   .     S
C283   Cl323   1.760   .     S
C283   C986    1.415   1_554 S
C283   N330    1.369   .     S
C284   Cl324   1.760   .     S
C284   C672    1.415   .     S
C284   N241    1.369   1_655 S
C285   Cl325   1.760   .     S
C285   N332    1.369   .     A
C285   C992    1.415   1_554 S
C286   Cl326   1.760   .     S
C286   C639    1.415   .     S
C286   N155    1.369   1_565 S
C287   Cl327   1.760   .     S
C287   C990    1.415   1_554 S
C287   N156    1.369   1_565 S
C288   N331    1.369   .     A
C288   Cl328   1.760   .     S
C288   C637    1.415   .     S
C289   C308    1.409   .     A
C289   C300    1.379   .     A
C290   C307    1.409   .     A
C290   C301    1.379   .     A
C291   C298    1.379   .     A
C291   C307    1.409   .     A
C292   O342    1.288   .     A
C292   C309    1.443   .     S
C292   O341    1.288   .     A
C293   C299    1.379   .     A
C293   C308    1.409   .     A
C294   C305    1.380   .     A
C294   C310    1.409   .     A
C295   C306    1.380   .     A
C295   C309    1.409   .     A
C296   C309    1.409   .     A
C296   C302    1.380   .     A
C297   C310    1.409   .     A
C297   C304    1.380   .     A
C298   C312    1.409   .     A
C299   C311    1.409   .     A
C300   C311    1.409   .     A
C301   C312    1.409   .     A
C302   C315    1.409   .     A
C303   C308    1.443   .     S
C303   O344    1.288   .     A
C303   O347    1.288   .     A
C304   C313    1.409   .     A
C305   C313    1.409   .     A
C306   C315    1.409   .     A
C307   C314    1.443   .     S
C311   C319    1.443   .     S
C312   C318    1.443   .     S
C313   C317    1.443   .     S
C314   O346    1.288   .     A
C314   O345    1.288   .     A
C315   C316    1.443   .     S
C316   O348    1.288   .     A
C316   O336    1.288   .     A
C317   O334    1.288   .     A
C317   O335    1.288   .     A
C318   O337    1.288   .     A
C318   O340    1.288   .     A
C319   O338    1.288   .     A
C319   O339    1.288   .     A
C320   N242    1.369   1_655 A
C320   Cl321   1.760   .     S
C320   C988    1.415   1_554 S
N329   Zn349   2.005   .     S
N330   Zn350   2.005   .     S
N331   Zn351   2.005   .     S
N332   Zn352   2.005   .     S
O333   Zn349   2.001   .     S
O334   Zn352   2.001   .     S
O335   Zn351   2.001   .     S
O336   Zn176   2.001   1_565 S
O337   Zn176   2.001   1_565 S
O338   Zn351   2.001   .     S
O339   Zn352   2.001   .     S
O340   Zn175   2.001   1_565 S
O341   Zn262   2.001   1_655 S
O342   Zn261   2.001   1_655 S
O343   Zn350   2.001   .     S
O344   Zn262   2.001   1_655 S
O345   Zn349   2.001   .     S
O346   Zn350   2.001   .     S
O347   Zn261   2.001   1_655 S
O348   Zn175   2.001   1_565 S
Br353  C377    1.940   .     S
Br354  C387    1.940   .     S
Br355  C388    1.940   .     S
Br356  C389    1.940   .     S
Br357  C390    1.940   .     S
Br358  C392    1.940   .     S
Br359  C393    1.940   .     S
Br360  C394    1.940   .     S
Br361  C378    1.940   .     S
Br362  C379    1.940   .     S
Br363  C381    1.940   .     S
Br364  C382    1.940   .     S
Br365  C383    1.940   .     S
Br366  C384    1.940   .     S
Br367  C385    1.940   .     S
Br368  C386    1.940   .     S
C369   O421    1.288   .     A
C369   O431    1.288   .     A
C369   C398    1.443   .     S
C370   N417    1.369   .     A
C370   Cl410   1.760   .     S
C370   C723    1.415   .     S
C371   Cl411   1.760   .     S
C371   N418    1.369   .     S
C372   Cl412   1.760   .     S
C372   C760    1.415   .     S
C372   N505    1.369   .     S
C373   Cl413   1.760   .     S
C373   N420    1.369   .     A
C374   Cl414   1.760   .     S
C374   C727    1.415   .     S
C374   N595    1.369   .     S
C375   Cl415   1.760   .     S
C375   N596    1.369   .     S
C376   N419    1.369   .     A
C376   Cl416   1.760   .     S
C376   C725    1.415   .     S
C377   C396    1.409   .     A
C377   C388    1.379   .     A
C378   C395    1.409   .     A
C378   C389    1.379   .     A
C379   C386    1.379   .     A
C379   C395    1.409   .     A
C380   O430    1.288   .     A
C380   C397    1.443   .     S
C380   O429    1.288   .     A
C381   C387    1.379   .     A
C381   C396    1.409   .     A
C382   C393    1.380   .     A
C382   C398    1.409   .     A
C383   C394    1.380   .     A
C383   C397    1.409   .     A
C384   C397    1.409   .     A
C384   C390    1.380   .     A
C385   C398    1.409   .     A
C385   C392    1.380   .     A
C386   C400    1.409   .     A
C387   C399    1.409   .     A
C388   C399    1.409   .     A
C389   C400    1.409   .     A
C390   C403    1.409   .     A
C391   C396    1.443   .     S
C391   O432    1.288   .     A
C391   O435    1.288   .     A
C392   C401    1.409   .     A
C393   C401    1.409   .     A
C394   C403    1.409   .     A
C395   C402    1.443   .     S
C399   C407    1.443   .     S
C400   C406    1.443   .     S
C401   C405    1.443   .     S
C402   O434    1.288   .     A
C402   O433    1.288   .     A
C403   C404    1.443   .     S
C404   O436    1.288   .     A
C404   O424    1.288   .     A
C405   O422    1.288   .     A
C405   O423    1.288   .     A
C406   O425    1.288   .     A
C406   O428    1.288   .     A
C407   O426    1.288   .     A
C407   O427    1.288   .     A
C408   N506    1.369   .     A
C408   Cl409   1.760   .     S
N417   Zn437   2.005   .     S
N417   C460    1.369   1_455 S
N418   C496    1.369   1_455 A
N418   Zn438   2.005   .     S
N419   Zn439   2.005   .     S
N419   C550    1.369   1_545 S
N420   Zn440   2.005   .     S
N420   C551    1.369   1_545 S
O421   Zn437   2.001   .     S
O422   Zn440   2.001   .     S
O423   Zn439   2.001   .     S
O424   Zn616   2.001   .     S
O425   Zn616   2.001   .     S
O426   Zn439   2.001   .     S
O427   Zn440   2.001   .     S
O428   Zn615   2.001   .     S
O429   Zn526   2.001   .     S
O430   Zn525   2.001   .     S
O431   Zn438   2.001   .     S
O432   Zn526   2.001   .     S
O433   Zn437   2.001   .     S
O434   Zn438   2.001   .     S
O435   Zn525   2.001   .     S
O436   Zn615   2.001   .     S
Zn437  O523    2.001   1_455 S
Zn437  O518    2.001   1_455 S
Zn438  O520    2.001   1_455 S
Zn438  O517    2.001   1_455 S
Zn439  O604    2.001   1_545 S
Zn439  O612    2.001   1_545 S
Zn440  O601    2.001   1_545 S
Zn440  O600    2.001   1_545 S
Br441  C465    1.940   .     S
Br442  C475    1.940   .     S
Br443  C476    1.940   .     S
Br444  C477    1.940   .     S
Br445  C478    1.940   .     S
Br446  C480    1.940   .     S
Br447  C481    1.940   .     S
Br448  C482    1.940   .     S
Br449  C466    1.940   .     S
Br450  C467    1.940   .     S
Br451  C469    1.940   .     S
Br452  C470    1.940   .     S
Br453  C471    1.940   .     S
Br454  C472    1.940   .     S
Br455  C473    1.940   .     S
Br456  C474    1.940   .     S
C457   O509    1.288   .     A
C457   O519    1.288   .     A
C457   C486    1.443   .     S
C458   N505    1.369   .     A
C458   Cl498   1.760   .     S
C458   C811    1.415   .     S
C459   Cl499   1.760   .     S
C459   N506    1.369   .     S
C460   Cl500   1.760   .     S
C460   C848    1.415   .     S
C460   N417    1.369   1_655 S
C461   Cl501   1.760   .     S
C461   N508    1.369   .     A
C462   Cl502   1.760   .     S
C462   C815    1.415   .     S
C462   N683    1.369   .     S
C463   Cl503   1.760   .     S
C463   N684    1.369   .     S
C464   N507    1.369   .     A
C464   Cl504   1.760   .     S
C464   C813    1.415   .     S
C465   C484    1.409   .     A
C465   C476    1.379   .     A
C466   C483    1.409   .     A
C466   C477    1.379   .     A
C467   C474    1.379   .     A
C467   C483    1.409   .     A
C468   O518    1.288   .     A
C468   C485    1.443   .     S
C468   O517    1.288   .     A
C469   C475    1.379   .     A
C469   C484    1.409   .     A
C470   C481    1.380   .     A
C470   C486    1.409   .     A
C471   C482    1.380   .     A
C471   C485    1.409   .     A
C472   C485    1.409   .     A
C472   C478    1.380   .     A
C473   C486    1.409   .     A
C473   C480    1.380   .     A
C474   C488    1.409   .     A
C475   C487    1.409   .     A
C476   C487    1.409   .     A
C477   C488    1.409   .     A
C478   C491    1.409   .     A
C479   C484    1.443   .     S
C479   O520    1.288   .     A
C479   O523    1.288   .     A
C480   C489    1.409   .     A
C481   C489    1.409   .     A
C482   C491    1.409   .     A
C483   C490    1.443   .     S
C487   C495    1.443   .     S
C488   C494    1.443   .     S
C489   C493    1.443   .     S
C490   O522    1.288   .     A
C490   O521    1.288   .     A
C491   C492    1.443   .     S
C492   O524    1.288   .     A
C492   O512    1.288   .     A
C493   O510    1.288   .     A
C493   O511    1.288   .     A
C494   O513    1.288   .     A
C494   O516    1.288   .     A
C495   O514    1.288   .     A
C495   O515    1.288   .     A
C496   N418    1.369   1_655 A
C496   Cl497   1.760   .     S
N505   Zn525   2.005   .     S
N506   Zn526   2.005   .     S
N507   Zn527   2.005   .     S
N507   C638    1.369   1_545 S
N508   Zn528   2.005   .     S
N508   C639    1.369   1_545 S
O509   Zn525   2.001   .     S
O510   Zn528   2.001   .     S
O511   Zn527   2.001   .     S
O512   Zn704   2.001   .     S
O513   Zn704   2.001   .     S
O514   Zn527   2.001   .     S
O515   Zn528   2.001   .     S
O516   Zn703   2.001   .     S
O517   Zn438   2.001   1_655 S
O518   Zn437   2.001   1_655 S
O519   Zn526   2.001   .     S
O520   Zn438   2.001   1_655 S
O521   Zn525   2.001   .     S
O522   Zn526   2.001   .     S
O523   Zn437   2.001   1_655 S
O524   Zn703   2.001   .     S
Zn527  O692    2.001   1_545 S
Zn527  O700    2.001   1_545 S
Zn528  O689    2.001   1_545 S
Zn528  O688    2.001   1_545 S
Br529  C553    1.940   .     S
Br530  C563    1.940   .     S
Br531  C564    1.940   .     S
Br532  C565    1.940   .     S
Br533  C566    1.940   .     S
Br534  C568    1.940   .     S
Br535  C569    1.940   .     S
Br536  C570    1.940   .     S
Br537  C554    1.940   .     S
Br538  C555    1.940   .     S
Br539  C557    1.940   .     S
Br540  C558    1.940   .     S
Br541  C559    1.940   .     S
Br542  C560    1.940   .     S
Br543  C561    1.940   .     S
Br544  C562    1.940   .     S
C545   O597    1.288   .     A
C545   O607    1.288   .     A
C545   C574    1.443   .     S
C546   N593    1.369   .     A
C546   Cl586   1.760   .     S
C546   C899    1.415   .     S
C547   Cl587   1.760   .     S
C547   N594    1.369   .     S
C548   Cl588   1.760   .     S
C548   C936    1.415   .     S
C548   N681    1.369   .     S
C549   Cl589   1.760   .     S
C549   N596    1.369   .     A
C550   Cl590   1.760   .     S
C550   C903    1.415   .     S
C550   N419    1.369   1_565 S
C551   Cl591   1.760   .     S
C551   N420    1.369   1_565 S
C552   N595    1.369   .     A
C552   Cl592   1.760   .     S
C552   C901    1.415   .     S
C553   C572    1.409   .     A
C553   C564    1.379   .     A
C554   C571    1.409   .     A
C554   C565    1.379   .     A
C555   C562    1.379   .     A
C555   C571    1.409   .     A
C556   O606    1.288   .     A
C556   C573    1.443   .     S
C556   O605    1.288   .     A
C557   C563    1.379   .     A
C557   C572    1.409   .     A
C558   C569    1.380   .     A
C558   C574    1.409   .     A
C559   C570    1.380   .     A
C559   C573    1.409   .     A
C560   C573    1.409   .     A
C560   C566    1.380   .     A
C561   C574    1.409   .     A
C561   C568    1.380   .     A
C562   C576    1.409   .     A
C563   C575    1.409   .     A
C564   C575    1.409   .     A
C565   C576    1.409   .     A
C566   C579    1.409   .     A
C567   C572    1.443   .     S
C567   O608    1.288   .     A
C567   O611    1.288   .     A
C568   C577    1.409   .     A
C569   C577    1.409   .     A
C570   C579    1.409   .     A
C571   C578    1.443   .     S
C575   C583    1.443   .     S
C576   C582    1.443   .     S
C577   C581    1.443   .     S
C578   O610    1.288   .     A
C578   O609    1.288   .     A
C579   C580    1.443   .     S
C580   O612    1.288   .     A
C580   O600    1.288   .     A
C581   O598    1.288   .     A
C581   O599    1.288   .     A
C582   O601    1.288   .     A
C582   O604    1.288   .     A
C583   O602    1.288   .     A
C583   O603    1.288   .     A
C584   N682    1.369   .     A
C584   Cl585   1.760   .     S
N593   Zn613   2.005   .     S
N593   C636    1.369   1_455 S
N594   C672    1.369   1_455 A
N594   Zn614   2.005   .     S
N595   Zn615   2.005   .     S
N596   Zn616   2.005   .     S
O597   Zn613   2.001   .     S
O598   Zn616   2.001   .     S
O599   Zn615   2.001   .     S
O600   Zn440   2.001   1_565 S
O601   Zn440   2.001   1_565 S
O602   Zn615   2.001   .     S
O603   Zn616   2.001   .     S
O604   Zn439   2.001   1_565 S
O605   Zn702   2.001   .     S
O606   Zn701   2.001   .     S
O607   Zn614   2.001   .     S
O608   Zn702   2.001   .     S
O609   Zn613   2.001   .     S
O610   Zn614   2.001   .     S
O611   Zn701   2.001   .     S
O612   Zn439   2.001   1_565 S
Zn613  O699    2.001   1_455 S
Zn613  O694    2.001   1_455 S
Zn614  O696    2.001   1_455 S
Zn614  O693    2.001   1_455 S
Br617  C641    1.940   .     S
Br618  C651    1.940   .     S
Br619  C652    1.940   .     S
Br620  C653    1.940   .     S
Br621  C654    1.940   .     S
Br622  C656    1.940   .     S
Br623  C657    1.940   .     S
Br624  C658    1.940   .     S
Br625  C642    1.940   .     S
Br626  C643    1.940   .     S
Br627  C645    1.940   .     S
Br628  C646    1.940   .     S
Br629  C647    1.940   .     S
Br630  C648    1.940   .     S
Br631  C649    1.940   .     S
Br632  C650    1.940   .     S
C633   O685    1.288   .     A
C633   O695    1.288   .     A
C633   C662    1.443   .     S
C634   N681    1.369   .     A
C634   Cl674   1.760   .     S
C634   C987    1.415   .     S
C635   Cl675   1.760   .     S
C635   N682    1.369   .     S
C636   Cl676   1.760   .     S
C636   C1024   1.415   .     S
C636   N593    1.369   1_655 S
C637   Cl677   1.760   .     S
C637   N684    1.369   .     A
C638   Cl678   1.760   .     S
C638   C991    1.415   .     S
C638   N507    1.369   1_565 S
C639   Cl679   1.760   .     S
C639   N508    1.369   1_565 S
C640   N683    1.369   .     A
C640   Cl680   1.760   .     S
C640   C989    1.415   .     S
C641   C660    1.409   .     A
C641   C652    1.379   .     A
C642   C659    1.409   .     A
C642   C653    1.379   .     A
C643   C650    1.379   .     A
C643   C659    1.409   .     A
C644   O694    1.288   .     A
C644   C661    1.443   .     S
C644   O693    1.288   .     A
C645   C651    1.379   .     A
C645   C660    1.409   .     A
C646   C657    1.380   .     A
C646   C662    1.409   .     A
C647   C658    1.380   .     A
C647   C661    1.409   .     A
C648   C661    1.409   .     A
C648   C654    1.380   .     A
C649   C662    1.409   .     A
C649   C656    1.380   .     A
C650   C664    1.409   .     A
C651   C663    1.409   .     A
C652   C663    1.409   .     A
C653   C664    1.409   .     A
C654   C667    1.409   .     A
C655   C660    1.443   .     S
C655   O696    1.288   .     A
C655   O699    1.288   .     A
C656   C665    1.409   .     A
C657   C665    1.409   .     A
C658   C667    1.409   .     A
C659   C666    1.443   .     S
C663   C671    1.443   .     S
C664   C670    1.443   .     S
C665   C669    1.443   .     S
C666   O698    1.288   .     A
C666   O697    1.288   .     A
C667   C668    1.443   .     S
C668   O700    1.288   .     A
C668   O688    1.288   .     A
C669   O686    1.288   .     A
C669   O687    1.288   .     A
C670   O689    1.288   .     A
C670   O692    1.288   .     A
C671   O690    1.288   .     A
C671   O691    1.288   .     A
C672   N594    1.369   1_655 A
C672   Cl673   1.760   .     S
N681   Zn701   2.005   .     S
N682   Zn702   2.005   .     S
N683   Zn703   2.005   .     S
N684   Zn704   2.005   .     S
O685   Zn701   2.001   .     S
O686   Zn704   2.001   .     S
O687   Zn703   2.001   .     S
O688   Zn528   2.001   1_565 S
O689   Zn528   2.001   1_565 S
O690   Zn703   2.001   .     S
O691   Zn704   2.001   .     S
O692   Zn527   2.001   1_565 S
O693   Zn614   2.001   1_655 S
O694   Zn613   2.001   1_655 S
O695   Zn702   2.001   .     S
O696   Zn614   2.001   1_655 S
O697   Zn701   2.001   .     S
O698   Zn702   2.001   .     S
O699   Zn613   2.001   1_655 S
O700   Zn527   2.001   1_565 S
Br705  C729    1.940   .     S
Br706  C739    1.940   .     S
Br707  C740    1.940   .     S
Br708  C741    1.940   .     S
Br709  C742    1.940   .     S
Br710  C744    1.940   .     S
Br711  C745    1.940   .     S
Br712  C746    1.940   .     S
Br713  C730    1.940   .     S
Br714  C731    1.940   .     S
Br715  C733    1.940   .     S
Br716  C734    1.940   .     S
Br717  C735    1.940   .     S
Br718  C736    1.940   .     S
Br719  C737    1.940   .     S
Br720  C738    1.940   .     S
C721   O773    1.288   .     A
C721   O783    1.288   .     A
C721   C750    1.443   .     S
C722   N769    1.369   .     A
C722   Cl762   1.760   .     S
C722   C19     1.415   1_556 S
C723   Cl763   1.760   .     S
C723   N770    1.369   .     S
C724   Cl764   1.760   .     S
C724   C56     1.415   1_556 S
C724   N857    1.369   .     S
C725   Cl765   1.760   .     S
C725   N772    1.369   .     A
C726   Cl766   1.760   .     S
C726   C23     1.415   1_556 S
C726   N947    1.369   .     S
C727   Cl767   1.760   .     S
C727   N948    1.369   .     S
C728   N771    1.369   .     A
C728   Cl768   1.760   .     S
C728   C21     1.415   1_556 S
C729   C748    1.409   .     A
C729   C740    1.379   .     A
C730   C747    1.409   .     A
C730   C741    1.379   .     A
C731   C738    1.379   .     A
C731   C747    1.409   .     A
C732   O782    1.288   .     A
C732   C749    1.443   .     S
C732   O781    1.288   .     A
C733   C739    1.379   .     A
C733   C748    1.409   .     A
C734   C745    1.380   .     A
C734   C750    1.409   .     A
C735   C746    1.380   .     A
C735   C749    1.409   .     A
C736   C749    1.409   .     A
C736   C742    1.380   .     A
C737   C750    1.409   .     A
C737   C744    1.380   .     A
C738   C752    1.409   .     A
C739   C751    1.409   .     A
C740   C751    1.409   .     A
C741   C752    1.409   .     A
C742   C755    1.409   .     A
C743   C748    1.443   .     S
C743   O784    1.288   .     A
C743   O787    1.288   .     A
C744   C753    1.409   .     A
C745   C753    1.409   .     A
C746   C755    1.409   .     A
C747   C754    1.443   .     S
C751   C759    1.443   .     S
C752   C758    1.443   .     S
C753   C757    1.443   .     S
C754   O786    1.288   .     A
C754   O785    1.288   .     A
C755   C756    1.443   .     S
C756   O788    1.288   .     A
C756   O776    1.288   .     A
C757   O774    1.288   .     A
C757   O775    1.288   .     A
C758   O777    1.288   .     A
C758   O780    1.288   .     A
C759   O778    1.288   .     A
C759   O779    1.288   .     A
C760   N858    1.369   .     A
C760   Cl761   1.760   .     S
N769   Zn789   2.005   .     S
N769   C812    1.369   1_455 S
N770   C848    1.369   1_455 A
N770   Zn790   2.005   .     S
N771   Zn791   2.005   .     S
N771   C902    1.369   1_545 S
N772   Zn792   2.005   .     S
N772   C903    1.369   1_545 S
O773   Zn789   2.001   .     S
O774   Zn792   2.001   .     S
O775   Zn791   2.001   .     S
O776   Zn968   2.001   .     S
O777   Zn968   2.001   .     S
O778   Zn791   2.001   .     S
O779   Zn792   2.001   .     S
O780   Zn967   2.001   .     S
O781   Zn878   2.001   .     S
O782   Zn877   2.001   .     S
O783   Zn790   2.001   .     S
O784   Zn878   2.001   .     S
O785   Zn789   2.001   .     S
O786   Zn790   2.001   .     S
O787   Zn877   2.001   .     S
O788   Zn967   2.001   .     S
Zn789  O875    2.001   1_455 S
Zn789  O870    2.001   1_455 S
Zn790  O872    2.001   1_455 S
Zn790  O869    2.001   1_455 S
Zn791  O956    2.001   1_545 S
Zn791  O964    2.001   1_545 S
Zn792  O953    2.001   1_545 S
Zn792  O952    2.001   1_545 S
Br793  C817    1.940   .     S
Br794  C827    1.940   .     S
Br795  C828    1.940   .     S
Br796  C829    1.940   .     S
Br797  C830    1.940   .     S
Br798  C832    1.940   .     S
Br799  C833    1.940   .     S
Br800  C834    1.940   .     S
Br801  C818    1.940   .     S
Br802  C819    1.940   .     S
Br803  C821    1.940   .     S
Br804  C822    1.940   .     S
Br805  C823    1.940   .     S
Br806  C824    1.940   .     S
Br807  C825    1.940   .     S
Br808  C826    1.940   .     S
C809   O861    1.288   .     A
C809   O871    1.288   .     A
C809   C838    1.443   .     S
C810   N857    1.369   .     A
C810   Cl850   1.760   .     S
C810   C107    1.415   1_556 S
C811   Cl851   1.760   .     S
C811   N858    1.369   .     S
C812   Cl852   1.760   .     S
C812   C144    1.415   1_556 S
C812   N769    1.369   1_655 S
C813   Cl853   1.760   .     S
C813   N860    1.369   .     A
C814   Cl854   1.760   .     S
C814   C111    1.415   1_556 S
C814   N1035   1.369   .     S
C815   Cl855   1.760   .     S
C815   N1036   1.369   .     S
C816   N859    1.369   .     A
C816   Cl856   1.760   .     S
C816   C109    1.415   1_556 S
C817   C836    1.409   .     A
C817   C828    1.379   .     A
C818   C835    1.409   .     A
C818   C829    1.379   .     A
C819   C826    1.379   .     A
C819   C835    1.409   .     A
C820   O870    1.288   .     A
C820   C837    1.443   .     S
C820   O869    1.288   .     A
C821   C827    1.379   .     A
C821   C836    1.409   .     A
C822   C833    1.380   .     A
C822   C838    1.409   .     A
C823   C834    1.380   .     A
C823   C837    1.409   .     A
C824   C837    1.409   .     A
C824   C830    1.380   .     A
C825   C838    1.409   .     A
C825   C832    1.380   .     A
C826   C840    1.409   .     A
C827   C839    1.409   .     A
C828   C839    1.409   .     A
C829   C840    1.409   .     A
C830   C843    1.409   .     A
C831   C836    1.443   .     S
C831   O872    1.288   .     A
C831   O875    1.288   .     A
C832   C841    1.409   .     A
C833   C841    1.409   .     A
C834   C843    1.409   .     A
C835   C842    1.443   .     S
C839   C847    1.443   .     S
C840   C846    1.443   .     S
C841   C845    1.443   .     S
C842   O874    1.288   .     A
C842   O873    1.288   .     A
C843   C844    1.443   .     S
C844   O876    1.288   .     A
C844   O864    1.288   .     A
C845   O862    1.288   .     A
C845   O863    1.288   .     A
C846   O865    1.288   .     A
C846   O868    1.288   .     A
C847   O866    1.288   .     A
C847   O867    1.288   .     A
C848   N770    1.369   1_655 A
C848   Cl849   1.760   .     S
N857   Zn877   2.005   .     S
N858   Zn878   2.005   .     S
N859   Zn879   2.005   .     S
N859   C990    1.369   1_545 S
N860   Zn880   2.005   .     S
N860   C991    1.369   1_545 S
O861   Zn877   2.001   .     S
O862   Zn880   2.001   .     S
O863   Zn879   2.001   .     S
O864   Zn1056  2.001   .     S
O865   Zn1056  2.001   .     S
O866   Zn879   2.001   .     S
O867   Zn880   2.001   .     S
O868   Zn1055  2.001   .     S
O869   Zn790   2.001   1_655 S
O870   Zn789   2.001   1_655 S
O871   Zn878   2.001   .     S
O872   Zn790   2.001   1_655 S
O873   Zn877   2.001   .     S
O874   Zn878   2.001   .     S
O875   Zn789   2.001   1_655 S
O876   Zn1055  2.001   .     S
Zn879  O1044   2.001   1_545 S
Zn879  O1052   2.001   1_545 S
Zn880  O1041   2.001   1_545 S
Zn880  O1040   2.001   1_545 S
Br881  C905    1.940   .     S
Br882  C915    1.940   .     S
Br883  C916    1.940   .     S
Br884  C917    1.940   .     S
Br885  C918    1.940   .     S
Br886  C920    1.940   .     S
Br887  C921    1.940   .     S
Br888  C922    1.940   .     S
Br889  C906    1.940   .     S
Br890  C907    1.940   .     S
Br891  C909    1.940   .     S
Br892  C910    1.940   .     S
Br893  C911    1.940   .     S
Br894  C912    1.940   .     S
Br895  C913    1.940   .     S
Br896  C914    1.940   .     S
C897   O949    1.288   .     A
C897   O959    1.288   .     A
C897   C926    1.443   .     S
C898   N945    1.369   .     A
C898   Cl938   1.760   .     S
C898   C195    1.415   1_556 S
C899   Cl939   1.760   .     S
C899   N946    1.369   .     S
C900   Cl940   1.760   .     S
C900   C232    1.415   1_556 S
C900   N1033   1.369   .     S
C901   Cl941   1.760   .     S
C901   N948    1.369   .     A
C902   Cl942   1.760   .     S
C902   C199    1.415   1_556 S
C902   N771    1.369   1_565 S
C903   Cl943   1.760   .     S
C903   N772    1.369   1_565 S
C904   N947    1.369   .     A
C904   Cl944   1.760   .     S
C904   C197    1.415   1_556 S
C905   C924    1.409   .     A
C905   C916    1.379   .     A
C906   C923    1.409   .     A
C906   C917    1.379   .     A
C907   C914    1.379   .     A
C907   C923    1.409   .     A
C908   O958    1.288   .     A
C908   C925    1.443   .     S
C908   O957    1.288   .     A
C909   C915    1.379   .     A
C909   C924    1.409   .     A
C910   C921    1.380   .     A
C910   C926    1.409   .     A
C911   C922    1.380   .     A
C911   C925    1.409   .     A
C912   C925    1.409   .     A
C912   C918    1.380   .     A
C913   C926    1.409   .     A
C913   C920    1.380   .     A
C914   C928    1.409   .     A
C915   C927    1.409   .     A
C916   C927    1.409   .     A
C917   C928    1.409   .     A
C918   C931    1.409   .     A
C919   C924    1.443   .     S
C919   O960    1.288   .     A
C919   O963    1.288   .     A
C920   C929    1.409   .     A
C921   C929    1.409   .     A
C922   C931    1.409   .     A
C923   C930    1.443   .     S
C927   C935    1.443   .     S
C928   C934    1.443   .     S
C929   C933    1.443   .     S
C930   O962    1.288   .     A
C930   O961    1.288   .     A
C931   C932    1.443   .     S
C932   O964    1.288   .     A
C932   O952    1.288   .     A
C933   O950    1.288   .     A
C933   O951    1.288   .     A
C934   O953    1.288   .     A
C934   O956    1.288   .     A
C935   O954    1.288   .     A
C935   O955    1.288   .     A
C936   N1034   1.369   .     A
C936   Cl937   1.760   .     S
N945   Zn965   2.005   .     S
N945   C988    1.369   1_455 S
N946   C1024   1.369   1_455 A
N946   Zn966   2.005   .     S
N947   Zn967   2.005   .     S
N948   Zn968   2.005   .     S
O949   Zn965   2.001   .     S
O950   Zn968   2.001   .     S
O951   Zn967   2.001   .     S
O952   Zn792   2.001   1_565 S
O953   Zn792   2.001   1_565 S
O954   Zn967   2.001   .     S
O955   Zn968   2.001   .     S
O956   Zn791   2.001   1_565 S
O957   Zn1054  2.001   .     S
O958   Zn1053  2.001   .     S
O959   Zn966   2.001   .     S
O960   Zn1054  2.001   .     S
O961   Zn965   2.001   .     S
O962   Zn966   2.001   .     S
O963   Zn1053  2.001   .     S
O964   Zn791   2.001   1_565 S
Zn965  O1051   2.001   1_455 S
Zn965  O1046   2.001   1_455 S
Zn966  O1048   2.001   1_455 S
Zn966  O1045   2.001   1_455 S
Br969  C993    1.940   .     S
Br970  C1003   1.940   .     S
Br971  C1004   1.940   .     S
Br972  C1005   1.940   .     S
Br973  C1006   1.940   .     S
Br974  C1008   1.940   .     S
Br975  C1009   1.940   .     S
Br976  C1010   1.940   .     S
Br977  C994    1.940   .     S
Br978  C995    1.940   .     S
Br979  C997    1.940   .     S
Br980  C998    1.940   .     S
Br981  C999    1.940   .     S
Br982  C1000   1.940   .     S
Br983  C1001   1.940   .     S
Br984  C1002   1.940   .     S
C985   O1037   1.288   .     A
C985   O1047   1.288   .     A
C985   C1014   1.443   .     S
C986   N1033   1.369   .     A
C986   Cl1026  1.760   .     S
C986   C283    1.415   1_556 S
C987   Cl1027  1.760   .     S
C987   N1034   1.369   .     S
C988   Cl1028  1.760   .     S
C988   C320    1.415   1_556 S
C988   N945    1.369   1_655 S
C989   Cl1029  1.760   .     S
C989   N1036   1.369   .     A
C990   Cl1030  1.760   .     S
C990   C287    1.415   1_556 S
C990   N859    1.369   1_565 S
C991   Cl1031  1.760   .     S
C991   N860    1.369   1_565 S
C992   N1035   1.369   .     A
C992   Cl1032  1.760   .     S
C992   C285    1.415   1_556 S
C993   C1012   1.409   .     A
C993   C1004   1.379   .     A
C994   C1011   1.409   .     A
C994   C1005   1.379   .     A
C995   C1002   1.379   .     A
C995   C1011   1.409   .     A
C996   O1046   1.288   .     A
C996   C1013   1.443   .     S
C996   O1045   1.288   .     A
C997   C1003   1.379   .     A
C997   C1012   1.409   .     A
C998   C1009   1.380   .     A
C998   C1014   1.409   .     A
C999   C1010   1.380   .     A
C999   C1013   1.409   .     A
C1000  C1013   1.409   .     A
C1000  C1006   1.380   .     A
C1001  C1014   1.409   .     A
C1001  C1008   1.380   .     A
C1002  C1016   1.409   .     A
C1003  C1015   1.409   .     A
C1004  C1015   1.409   .     A
C1005  C1016   1.409   .     A
C1006  C1019   1.409   .     A
C1007  C1012   1.443   .     S
C1007  O1048   1.288   .     A
C1007  O1051   1.288   .     A
C1008  C1017   1.409   .     A
C1009  C1017   1.409   .     A
C1010  C1019   1.409   .     A
C1011  C1018   1.443   .     S
C1015  C1023   1.443   .     S
C1016  C1022   1.443   .     S
C1017  C1021   1.443   .     S
C1018  O1050   1.288   .     A
C1018  O1049   1.288   .     A
C1019  C1020   1.443   .     S
C1020  O1052   1.288   .     A
C1020  O1040   1.288   .     A
C1021  O1038   1.288   .     A
C1021  O1039   1.288   .     A
C1022  O1041   1.288   .     A
C1022  O1044   1.288   .     A
C1023  O1042   1.288   .     A
C1023  O1043   1.288   .     A
C1024  N946    1.369   1_655 A
C1024  Cl1025  1.760   .     S
N1033  Zn1053  2.005   .     S
N1034  Zn1054  2.005   .     S
N1035  Zn1055  2.005   .     S
N1036  Zn1056  2.005   .     S
O1037  Zn1053  2.001   .     S
O1038  Zn1056  2.001   .     S
O1039  Zn1055  2.001   .     S
O1040  Zn880   2.001   1_565 S
O1041  Zn880   2.001   1_565 S
O1042  Zn1055  2.001   .     S
O1043  Zn1056  2.001   .     S
O1044  Zn879   2.001   1_565 S
O1045  Zn966   2.001   1_655 S
O1046  Zn965   2.001   1_655 S
O1047  Zn1054  2.001   .     S
O1048  Zn966   2.001   1_655 S
O1049  Zn1053  2.001   .     S
O1050  Zn1054  2.001   .     S
O1051  Zn965   2.001   1_655 S
O1052  Zn879   2.001   1_565 S
