data_str_m3_o1_o2_pcu_sym.5
_audit_creation_date              2020-01-03
_audit_creation_method            'Materials Studio'
_symmetry_space_group_name_H-M    'P1'
_symmetry_Int_Tables_number       1
_symmetry_cell_setting            triclinic
loop_
_symmetry_equiv_pos_as_xyz
  x,y,z
_cell_length_a                    32.1717
_cell_length_b                    29.8865
_cell_length_c                    30.0622
_cell_angle_alpha                 90.0000
_cell_angle_beta                  93.0160
_cell_angle_gamma                 90.0000
loop_
_atom_site_label
_atom_site_type_symbol
_atom_site_fract_x
_atom_site_fract_y
_atom_site_fract_z
_atom_site_U_iso_or_equiv
_atom_site_adp_type
_atom_site_occupancy
C1     C     0.08675   0.16666   0.25021   0.00000  Uiso   1.00
C2     C     0.31205   0.20739   0.24958   0.00000  Uiso   1.00
C3     C     0.31204   0.12583   0.24971   0.00000  Uiso   1.00
C4     C     0.02129   0.20739   0.25042   0.00000  Uiso   1.00
C5     C     0.15368   0.20368   0.04619   0.00000  Uiso   1.00
C6     C     0.15336   0.12738   0.45185   0.00000  Uiso   1.00
C7     C     0.17965   0.20368   0.45381   0.00000  Uiso   1.00
C8     C     0.17997   0.12738   0.04815   0.00000  Uiso   1.00
C9     C     0.15469   0.20440   0.09207   0.00000  Uiso   1.00
C10    C     0.15343   0.12772   0.40588   0.00000  Uiso   1.00
C11    C     0.17864   0.20440   0.40793   0.00000  Uiso   1.00
C12    C     0.24658   0.16666   0.24979   0.00000  Uiso   1.00
C13    C     0.17990   0.12772   0.09411   0.00000  Uiso   1.00
C14    C     0.16727   0.16630   0.11613   0.00000  Uiso   1.00
C15    C     0.16606   0.16630   0.38387   0.00000  Uiso   1.00
C16    C     0.16664   0.16532   0.02409   0.00000  Uiso   1.00
C17    C     0.16669   0.16532   0.47591   0.00000  Uiso   1.00
C18    C     0.29080   0.16662   0.24956   0.00000  Uiso   1.00
C19    C     0.04254   0.16662   0.25044   0.00000  Uiso   1.00
C20    C     0.16690   0.16662   0.16406   0.00000  Uiso   1.00
C21    C     0.16643   0.16662   0.33594   0.00000  Uiso   1.00
C22    C     0.19336   0.02394   0.27843   0.00000  Uiso   1.00
C23    C     0.13963   0.30949   0.22196   0.00000  Uiso   1.00
C24    C     0.13998   0.02394   0.22157   0.00000  Uiso   1.00
C25    C     0.19371   0.30949   0.27805   0.00000  Uiso   1.00
C26    C     0.02130   0.12583   0.25029   0.00000  Uiso   1.00
H27    H     0.14260   0.23302   0.02804   0.00000  Uiso   1.00
H28    H     0.29600   0.23923   0.24899   0.00000  Uiso   1.00
H29    H     0.29596   0.09399   0.24938   0.00000  Uiso   1.00
H30    H     0.03734   0.23923   0.25101   0.00000  Uiso   1.00
H31    H     0.14252   0.09777   0.46850   0.00000  Uiso   1.00
H32    H     0.19073   0.23302   0.47196   0.00000  Uiso   1.00
H33    H     0.19080   0.09777   0.03150   0.00000  Uiso   1.00
H34    H     0.14516   0.23454   0.10848   0.00000  Uiso   1.00
H35    H     0.14311   0.09813   0.38763   0.00000  Uiso   1.00
H36    H     0.18817   0.23454   0.39152   0.00000  Uiso   1.00
H37    H     0.19021   0.09813   0.11237   0.00000  Uiso   1.00
H38    H     0.03738   0.09399   0.25062   0.00000  Uiso   1.00
I39    I     0.23490   0.05852   0.32443   0.00000  Uiso   1.00
I40    I     0.09583   0.27535   0.17830   0.00000  Uiso   1.00
I41    I     0.09844   0.05852   0.17557   0.00000  Uiso   1.00
I42    I     0.23751   0.27535   0.32170   0.00000  Uiso   1.00
N43    N     0.16667   0.28573   0.25000   0.00000  Uiso   1.00
N44    N     0.16667   0.04760   0.25000   0.00000  Uiso   1.00
O45    O     0.10559   0.20487   0.25000   0.00000  Uiso   1.00
O46    O     0.22774   0.12846   0.25001   0.00000  Uiso   1.00
O47    O     0.22774   0.20487   0.25001   0.00000  Uiso   1.00
O48    O     0.10559   0.12846   0.25000   0.00000  Uiso   1.00
O49    O     0.16666   0.20489   0.18453   0.00000  Uiso   1.00
O50    O     0.16667   0.12845   0.31547   0.00000  Uiso   1.00
O51    O     0.16667   0.20489   0.31547   0.00000  Uiso   1.00
O52    O     0.16666   0.12845   0.18453   0.00000  Uiso   1.00
Zn53   Zn    0.16667   0.21771   0.25000   0.00000  Uiso   1.00
Zn54   Zn    0.16667   0.11563   0.25000   0.00000  Uiso   1.00
C55    C     0.42008   0.16666   0.25021   0.00000  Uiso   1.00
C56    C     0.64538   0.20739   0.24958   0.00000  Uiso   1.00
C57    C     0.64537   0.12583   0.24971   0.00000  Uiso   1.00
C58    C     0.35462   0.20739   0.25042   0.00000  Uiso   1.00
C59    C     0.48701   0.20368   0.04619   0.00000  Uiso   1.00
C60    C     0.48669   0.12738   0.45185   0.00000  Uiso   1.00
C61    C     0.51298   0.20368   0.45381   0.00000  Uiso   1.00
C62    C     0.51330   0.12738   0.04815   0.00000  Uiso   1.00
C63    C     0.48802   0.20440   0.09207   0.00000  Uiso   1.00
C64    C     0.48676   0.12772   0.40588   0.00000  Uiso   1.00
C65    C     0.51198   0.20440   0.40793   0.00000  Uiso   1.00
C66    C     0.57992   0.16666   0.24979   0.00000  Uiso   1.00
C67    C     0.51323   0.12772   0.09411   0.00000  Uiso   1.00
C68    C     0.50060   0.16630   0.11613   0.00000  Uiso   1.00
C69    C     0.49939   0.16630   0.38387   0.00000  Uiso   1.00
C70    C     0.49997   0.16532   0.02409   0.00000  Uiso   1.00
C71    C     0.50002   0.16532   0.47591   0.00000  Uiso   1.00
C72    C     0.62413   0.16662   0.24956   0.00000  Uiso   1.00
C73    C     0.37587   0.16662   0.25044   0.00000  Uiso   1.00
C74    C     0.50023   0.16662   0.16406   0.00000  Uiso   1.00
C75    C     0.49977   0.16662   0.33594   0.00000  Uiso   1.00
C76    C     0.52669   0.02394   0.27843   0.00000  Uiso   1.00
C77    C     0.47296   0.30949   0.22196   0.00000  Uiso   1.00
C78    C     0.47331   0.02394   0.22157   0.00000  Uiso   1.00
C79    C     0.52704   0.30949   0.27805   0.00000  Uiso   1.00
C80    C     0.35463   0.12583   0.25029   0.00000  Uiso   1.00
H81    H     0.47594   0.23302   0.02804   0.00000  Uiso   1.00
H82    H     0.62933   0.23923   0.24899   0.00000  Uiso   1.00
H83    H     0.62929   0.09399   0.24938   0.00000  Uiso   1.00
H84    H     0.37067   0.23923   0.25101   0.00000  Uiso   1.00
H85    H     0.47585   0.09777   0.46850   0.00000  Uiso   1.00
H86    H     0.52406   0.23302   0.47196   0.00000  Uiso   1.00
H87    H     0.52414   0.09777   0.03150   0.00000  Uiso   1.00
H88    H     0.47849   0.23454   0.10848   0.00000  Uiso   1.00
H89    H     0.47644   0.09813   0.38763   0.00000  Uiso   1.00
H90    H     0.52151   0.23454   0.39152   0.00000  Uiso   1.00
H91    H     0.52355   0.09813   0.11237   0.00000  Uiso   1.00
H92    H     0.37071   0.09399   0.25062   0.00000  Uiso   1.00
I93    I     0.56823   0.05852   0.32443   0.00000  Uiso   1.00
I94    I     0.42916   0.27535   0.17830   0.00000  Uiso   1.00
I95    I     0.43177   0.05852   0.17557   0.00000  Uiso   1.00
I96    I     0.57084   0.27535   0.32170   0.00000  Uiso   1.00
N97    N     0.50000   0.28573   0.25000   0.00000  Uiso   1.00
N98    N     0.50000   0.04760   0.25000   0.00000  Uiso   1.00
O99    O     0.43892   0.20487   0.25000   0.00000  Uiso   1.00
O100   O     0.56108   0.12846   0.25001   0.00000  Uiso   1.00
O101   O     0.56108   0.20487   0.25001   0.00000  Uiso   1.00
O102   O     0.43892   0.12846   0.25000   0.00000  Uiso   1.00
O103   O     0.50000   0.20489   0.18453   0.00000  Uiso   1.00
O104   O     0.50000   0.12845   0.31547   0.00000  Uiso   1.00
O105   O     0.50000   0.20489   0.31547   0.00000  Uiso   1.00
O106   O     0.50000   0.12845   0.18453   0.00000  Uiso   1.00
Zn107  Zn    0.50000   0.21771   0.25000   0.00000  Uiso   1.00
Zn108  Zn    0.50000   0.11563   0.25000   0.00000  Uiso   1.00
C109   C     0.75342   0.16666   0.25021   0.00000  Uiso   1.00
C110   C     0.97871   0.20739   0.24958   0.00000  Uiso   1.00
C111   C     0.97870   0.12583   0.24971   0.00000  Uiso   1.00
C112   C     0.68795   0.20739   0.25042   0.00000  Uiso   1.00
C113   C     0.82034   0.20368   0.04619   0.00000  Uiso   1.00
C114   C     0.82002   0.12738   0.45185   0.00000  Uiso   1.00
C115   C     0.84632   0.20368   0.45381   0.00000  Uiso   1.00
C116   C     0.84663   0.12738   0.04815   0.00000  Uiso   1.00
C117   C     0.82135   0.20440   0.09207   0.00000  Uiso   1.00
C118   C     0.82009   0.12772   0.40588   0.00000  Uiso   1.00
C119   C     0.84531   0.20440   0.40793   0.00000  Uiso   1.00
C120   C     0.91325   0.16666   0.24979   0.00000  Uiso   1.00
C121   C     0.84656   0.12772   0.09411   0.00000  Uiso   1.00
C122   C     0.83394   0.16630   0.11613   0.00000  Uiso   1.00
C123   C     0.83272   0.16630   0.38387   0.00000  Uiso   1.00
C124   C     0.83330   0.16532   0.02409   0.00000  Uiso   1.00
C125   C     0.83335   0.16532   0.47591   0.00000  Uiso   1.00
C126   C     0.95746   0.16662   0.24956   0.00000  Uiso   1.00
C127   C     0.70920   0.16662   0.25044   0.00000  Uiso   1.00
C128   C     0.83357   0.16662   0.16406   0.00000  Uiso   1.00
C129   C     0.83310   0.16662   0.33594   0.00000  Uiso   1.00
C130   C     0.86002   0.02394   0.27843   0.00000  Uiso   1.00
C131   C     0.80629   0.30949   0.22196   0.00000  Uiso   1.00
C132   C     0.80664   0.02394   0.22157   0.00000  Uiso   1.00
C133   C     0.86037   0.30949   0.27805   0.00000  Uiso   1.00
C134   C     0.68796   0.12583   0.25029   0.00000  Uiso   1.00
H135   H     0.80927   0.23302   0.02804   0.00000  Uiso   1.00
H136   H     0.96266   0.23923   0.24899   0.00000  Uiso   1.00
H137   H     0.96262   0.09399   0.24938   0.00000  Uiso   1.00
H138   H     0.70400   0.23923   0.25101   0.00000  Uiso   1.00
H139   H     0.80918   0.09777   0.46850   0.00000  Uiso   1.00
H140   H     0.85739   0.23302   0.47196   0.00000  Uiso   1.00
H141   H     0.85747   0.09777   0.03150   0.00000  Uiso   1.00
H142   H     0.81183   0.23454   0.10848   0.00000  Uiso   1.00
H143   H     0.80978   0.09813   0.38763   0.00000  Uiso   1.00
H144   H     0.85484   0.23454   0.39152   0.00000  Uiso   1.00
H145   H     0.85688   0.09813   0.11237   0.00000  Uiso   1.00
H146   H     0.70404   0.09399   0.25062   0.00000  Uiso   1.00
I147   I     0.90156   0.05852   0.32443   0.00000  Uiso   1.00
I148   I     0.76249   0.27535   0.17830   0.00000  Uiso   1.00
I149   I     0.76510   0.05852   0.17557   0.00000  Uiso   1.00
I150   I     0.90417   0.27535   0.32170   0.00000  Uiso   1.00
N151   N     0.83333   0.28573   0.25000   0.00000  Uiso   1.00
N152   N     0.83333   0.04760   0.25000   0.00000  Uiso   1.00
O153   O     0.77226   0.20487   0.25000   0.00000  Uiso   1.00
O154   O     0.89441   0.12846   0.25001   0.00000  Uiso   1.00
O155   O     0.89441   0.20487   0.25001   0.00000  Uiso   1.00
O156   O     0.77226   0.12846   0.25000   0.00000  Uiso   1.00
O157   O     0.83333   0.20489   0.18453   0.00000  Uiso   1.00
O158   O     0.83334   0.12845   0.31547   0.00000  Uiso   1.00
O159   O     0.83334   0.20489   0.31547   0.00000  Uiso   1.00
O160   O     0.83333   0.12845   0.18453   0.00000  Uiso   1.00
Zn161  Zn    0.83333   0.21771   0.25000   0.00000  Uiso   1.00
Zn162  Zn    0.83333   0.11563   0.25000   0.00000  Uiso   1.00
C163   C     0.08675   0.49999   0.25021   0.00000  Uiso   1.00
C164   C     0.31205   0.54072   0.24958   0.00000  Uiso   1.00
C165   C     0.31204   0.45916   0.24971   0.00000  Uiso   1.00
C166   C     0.02129   0.54072   0.25042   0.00000  Uiso   1.00
C167   C     0.15368   0.53701   0.04619   0.00000  Uiso   1.00
C168   C     0.15336   0.46071   0.45185   0.00000  Uiso   1.00
C169   C     0.17965   0.53701   0.45381   0.00000  Uiso   1.00
C170   C     0.17997   0.46071   0.04815   0.00000  Uiso   1.00
C171   C     0.15469   0.53773   0.09207   0.00000  Uiso   1.00
C172   C     0.15343   0.46105   0.40588   0.00000  Uiso   1.00
C173   C     0.17864   0.53773   0.40793   0.00000  Uiso   1.00
C174   C     0.24658   0.49999   0.24979   0.00000  Uiso   1.00
C175   C     0.17990   0.46105   0.09411   0.00000  Uiso   1.00
C176   C     0.16727   0.49963   0.11613   0.00000  Uiso   1.00
C177   C     0.16606   0.49963   0.38387   0.00000  Uiso   1.00
C178   C     0.16664   0.49865   0.02409   0.00000  Uiso   1.00
C179   C     0.16669   0.49865   0.47591   0.00000  Uiso   1.00
C180   C     0.29080   0.49996   0.24956   0.00000  Uiso   1.00
C181   C     0.04254   0.49996   0.25044   0.00000  Uiso   1.00
C182   C     0.16690   0.49995   0.16406   0.00000  Uiso   1.00
C183   C     0.16643   0.49995   0.33594   0.00000  Uiso   1.00
C184   C     0.19336   0.35727   0.27843   0.00000  Uiso   1.00
C185   C     0.13963   0.64283   0.22196   0.00000  Uiso   1.00
C186   C     0.13998   0.35727   0.22157   0.00000  Uiso   1.00
C187   C     0.19371   0.64283   0.27805   0.00000  Uiso   1.00
C188   C     0.02130   0.45916   0.25029   0.00000  Uiso   1.00
H189   H     0.14260   0.56635   0.02804   0.00000  Uiso   1.00
H190   H     0.29600   0.57256   0.24899   0.00000  Uiso   1.00
H191   H     0.29596   0.42733   0.24938   0.00000  Uiso   1.00
H192   H     0.03734   0.57256   0.25101   0.00000  Uiso   1.00
H193   H     0.14252   0.43111   0.46850   0.00000  Uiso   1.00
H194   H     0.19073   0.56636   0.47196   0.00000  Uiso   1.00
H195   H     0.19080   0.43111   0.03150   0.00000  Uiso   1.00
H196   H     0.14516   0.56787   0.10848   0.00000  Uiso   1.00
H197   H     0.14311   0.43147   0.38763   0.00000  Uiso   1.00
H198   H     0.18817   0.56787   0.39152   0.00000  Uiso   1.00
H199   H     0.19021   0.43147   0.11237   0.00000  Uiso   1.00
H200   H     0.03738   0.42733   0.25062   0.00000  Uiso   1.00
I201   I     0.23490   0.39186   0.32443   0.00000  Uiso   1.00
I202   I     0.09583   0.60868   0.17830   0.00000  Uiso   1.00
I203   I     0.09844   0.39186   0.17557   0.00000  Uiso   1.00
I204   I     0.23751   0.60868   0.32170   0.00000  Uiso   1.00
N205   N     0.16667   0.61907   0.25000   0.00000  Uiso   1.00
N206   N     0.16667   0.38093   0.25000   0.00000  Uiso   1.00
O207   O     0.10559   0.53821   0.25000   0.00000  Uiso   1.00
O208   O     0.22774   0.46179   0.25001   0.00000  Uiso   1.00
O209   O     0.22774   0.53821   0.25001   0.00000  Uiso   1.00
O210   O     0.10559   0.46179   0.25000   0.00000  Uiso   1.00
O211   O     0.16666   0.53822   0.18453   0.00000  Uiso   1.00
O212   O     0.16667   0.46178   0.31547   0.00000  Uiso   1.00
O213   O     0.16667   0.53822   0.31547   0.00000  Uiso   1.00
O214   O     0.16666   0.46178   0.18453   0.00000  Uiso   1.00
Zn215  Zn    0.16667   0.55104   0.25000   0.00000  Uiso   1.00
Zn216  Zn    0.16667   0.44896   0.25000   0.00000  Uiso   1.00
C217   C     0.42008   0.49999   0.25021   0.00000  Uiso   1.00
C218   C     0.64538   0.54072   0.24958   0.00000  Uiso   1.00
C219   C     0.64537   0.45916   0.24971   0.00000  Uiso   1.00
C220   C     0.35462   0.54072   0.25042   0.00000  Uiso   1.00
C221   C     0.48701   0.53701   0.04619   0.00000  Uiso   1.00
C222   C     0.48669   0.46071   0.45185   0.00000  Uiso   1.00
C223   C     0.51298   0.53701   0.45381   0.00000  Uiso   1.00
C224   C     0.51330   0.46071   0.04815   0.00000  Uiso   1.00
C225   C     0.48802   0.53773   0.09207   0.00000  Uiso   1.00
C226   C     0.48676   0.46105   0.40588   0.00000  Uiso   1.00
C227   C     0.51198   0.53773   0.40793   0.00000  Uiso   1.00
C228   C     0.57992   0.49999   0.24979   0.00000  Uiso   1.00
C229   C     0.51323   0.46105   0.09411   0.00000  Uiso   1.00
C230   C     0.50060   0.49963   0.11613   0.00000  Uiso   1.00
C231   C     0.49939   0.49963   0.38387   0.00000  Uiso   1.00
C232   C     0.49997   0.49865   0.02409   0.00000  Uiso   1.00
C233   C     0.50002   0.49865   0.47591   0.00000  Uiso   1.00
C234   C     0.62413   0.49996   0.24956   0.00000  Uiso   1.00
C235   C     0.37587   0.49996   0.25044   0.00000  Uiso   1.00
C236   C     0.50023   0.49995   0.16406   0.00000  Uiso   1.00
C237   C     0.49977   0.49995   0.33594   0.00000  Uiso   1.00
C238   C     0.52669   0.35727   0.27843   0.00000  Uiso   1.00
C239   C     0.47296   0.64283   0.22196   0.00000  Uiso   1.00
C240   C     0.47331   0.35727   0.22157   0.00000  Uiso   1.00
C241   C     0.52704   0.64283   0.27805   0.00000  Uiso   1.00
C242   C     0.35463   0.45916   0.25029   0.00000  Uiso   1.00
H243   H     0.47594   0.56635   0.02804   0.00000  Uiso   1.00
H244   H     0.62933   0.57256   0.24899   0.00000  Uiso   1.00
H245   H     0.62929   0.42733   0.24938   0.00000  Uiso   1.00
H246   H     0.37067   0.57256   0.25101   0.00000  Uiso   1.00
H247   H     0.47585   0.43111   0.46850   0.00000  Uiso   1.00
H248   H     0.52406   0.56636   0.47196   0.00000  Uiso   1.00
H249   H     0.52414   0.43111   0.03150   0.00000  Uiso   1.00
H250   H     0.47849   0.56787   0.10848   0.00000  Uiso   1.00
H251   H     0.47644   0.43147   0.38763   0.00000  Uiso   1.00
H252   H     0.52151   0.56787   0.39152   0.00000  Uiso   1.00
H253   H     0.52355   0.43147   0.11237   0.00000  Uiso   1.00
H254   H     0.37071   0.42733   0.25062   0.00000  Uiso   1.00
I255   I     0.56823   0.39186   0.32443   0.00000  Uiso   1.00
I256   I     0.42916   0.60868   0.17830   0.00000  Uiso   1.00
I257   I     0.43177   0.39186   0.17557   0.00000  Uiso   1.00
I258   I     0.57084   0.60868   0.32170   0.00000  Uiso   1.00
N259   N     0.50000   0.61907   0.25000   0.00000  Uiso   1.00
N260   N     0.50000   0.38093   0.25000   0.00000  Uiso   1.00
O261   O     0.43892   0.53821   0.25000   0.00000  Uiso   1.00
O262   O     0.56108   0.46179   0.25001   0.00000  Uiso   1.00
O263   O     0.56108   0.53821   0.25001   0.00000  Uiso   1.00
O264   O     0.43892   0.46179   0.25000   0.00000  Uiso   1.00
O265   O     0.50000   0.53822   0.18453   0.00000  Uiso   1.00
O266   O     0.50000   0.46178   0.31547   0.00000  Uiso   1.00
O267   O     0.50000   0.53822   0.31547   0.00000  Uiso   1.00
O268   O     0.50000   0.46178   0.18453   0.00000  Uiso   1.00
Zn269  Zn    0.50000   0.55104   0.25000   0.00000  Uiso   1.00
Zn270  Zn    0.50000   0.44896   0.25000   0.00000  Uiso   1.00
C271   C     0.75342   0.49999   0.25021   0.00000  Uiso   1.00
C272   C     0.97871   0.54072   0.24958   0.00000  Uiso   1.00
C273   C     0.97870   0.45916   0.24971   0.00000  Uiso   1.00
C274   C     0.68795   0.54072   0.25042   0.00000  Uiso   1.00
C275   C     0.82034   0.53701   0.04619   0.00000  Uiso   1.00
C276   C     0.82002   0.46071   0.45185   0.00000  Uiso   1.00
C277   C     0.84632   0.53701   0.45381   0.00000  Uiso   1.00
C278   C     0.84663   0.46071   0.04815   0.00000  Uiso   1.00
C279   C     0.82135   0.53773   0.09207   0.00000  Uiso   1.00
C280   C     0.82009   0.46105   0.40588   0.00000  Uiso   1.00
C281   C     0.84531   0.53773   0.40793   0.00000  Uiso   1.00
C282   C     0.91325   0.49999   0.24979   0.00000  Uiso   1.00
C283   C     0.84656   0.46105   0.09411   0.00000  Uiso   1.00
C284   C     0.83394   0.49963   0.11613   0.00000  Uiso   1.00
C285   C     0.83272   0.49963   0.38387   0.00000  Uiso   1.00
C286   C     0.83330   0.49865   0.02409   0.00000  Uiso   1.00
C287   C     0.83335   0.49865   0.47591   0.00000  Uiso   1.00
C288   C     0.95746   0.49996   0.24956   0.00000  Uiso   1.00
C289   C     0.70920   0.49996   0.25044   0.00000  Uiso   1.00
C290   C     0.83357   0.49995   0.16406   0.00000  Uiso   1.00
C291   C     0.83310   0.49995   0.33594   0.00000  Uiso   1.00
C292   C     0.86002   0.35727   0.27843   0.00000  Uiso   1.00
C293   C     0.80629   0.64283   0.22196   0.00000  Uiso   1.00
C294   C     0.80664   0.35727   0.22157   0.00000  Uiso   1.00
C295   C     0.86037   0.64283   0.27805   0.00000  Uiso   1.00
C296   C     0.68796   0.45916   0.25029   0.00000  Uiso   1.00
H297   H     0.80927   0.56635   0.02804   0.00000  Uiso   1.00
H298   H     0.96266   0.57256   0.24899   0.00000  Uiso   1.00
H299   H     0.96262   0.42733   0.24938   0.00000  Uiso   1.00
H300   H     0.70400   0.57256   0.25101   0.00000  Uiso   1.00
H301   H     0.80918   0.43111   0.46850   0.00000  Uiso   1.00
H302   H     0.85739   0.56636   0.47196   0.00000  Uiso   1.00
H303   H     0.85747   0.43111   0.03150   0.00000  Uiso   1.00
H304   H     0.81183   0.56787   0.10848   0.00000  Uiso   1.00
H305   H     0.80978   0.43147   0.38763   0.00000  Uiso   1.00
H306   H     0.85484   0.56787   0.39152   0.00000  Uiso   1.00
H307   H     0.85688   0.43147   0.11237   0.00000  Uiso   1.00
H308   H     0.70404   0.42733   0.25062   0.00000  Uiso   1.00
I309   I     0.90156   0.39186   0.32443   0.00000  Uiso   1.00
I310   I     0.76249   0.60868   0.17830   0.00000  Uiso   1.00
I311   I     0.76510   0.39186   0.17557   0.00000  Uiso   1.00
I312   I     0.90417   0.60868   0.32170   0.00000  Uiso   1.00
N313   N     0.83333   0.61907   0.25000   0.00000  Uiso   1.00
N314   N     0.83333   0.38093   0.25000   0.00000  Uiso   1.00
O315   O     0.77226   0.53821   0.25000   0.00000  Uiso   1.00
O316   O     0.89441   0.46179   0.25001   0.00000  Uiso   1.00
O317   O     0.89441   0.53821   0.25001   0.00000  Uiso   1.00
O318   O     0.77226   0.46179   0.25000   0.00000  Uiso   1.00
O319   O     0.83333   0.53822   0.18453   0.00000  Uiso   1.00
O320   O     0.83334   0.46178   0.31547   0.00000  Uiso   1.00
O321   O     0.83334   0.53822   0.31547   0.00000  Uiso   1.00
O322   O     0.83333   0.46178   0.18453   0.00000  Uiso   1.00
Zn323  Zn    0.83333   0.55104   0.25000   0.00000  Uiso   1.00
Zn324  Zn    0.83333   0.44896   0.25000   0.00000  Uiso   1.00
C325   C     0.08675   0.83332   0.25021   0.00000  Uiso   1.00
C326   C     0.31205   0.87405   0.24958   0.00000  Uiso   1.00
C327   C     0.31204   0.79250   0.24971   0.00000  Uiso   1.00
C328   C     0.02129   0.87405   0.25042   0.00000  Uiso   1.00
C329   C     0.15368   0.87034   0.04619   0.00000  Uiso   1.00
C330   C     0.15336   0.79405   0.45185   0.00000  Uiso   1.00
C331   C     0.17965   0.87034   0.45381   0.00000  Uiso   1.00
C332   C     0.17997   0.79405   0.04815   0.00000  Uiso   1.00
C333   C     0.15469   0.87106   0.09207   0.00000  Uiso   1.00
C334   C     0.15343   0.79439   0.40588   0.00000  Uiso   1.00
C335   C     0.17864   0.87106   0.40793   0.00000  Uiso   1.00
C336   C     0.24658   0.83332   0.24979   0.00000  Uiso   1.00
C337   C     0.17990   0.79439   0.09411   0.00000  Uiso   1.00
C338   C     0.16727   0.83297   0.11613   0.00000  Uiso   1.00
C339   C     0.16606   0.83297   0.38387   0.00000  Uiso   1.00
C340   C     0.16664   0.83199   0.02409   0.00000  Uiso   1.00
C341   C     0.16669   0.83199   0.47591   0.00000  Uiso   1.00
C342   C     0.29080   0.83329   0.24956   0.00000  Uiso   1.00
C343   C     0.04254   0.83329   0.25044   0.00000  Uiso   1.00
C344   C     0.16690   0.83328   0.16406   0.00000  Uiso   1.00
C345   C     0.16643   0.83328   0.33594   0.00000  Uiso   1.00
C346   C     0.19336   0.69060   0.27843   0.00000  Uiso   1.00
C347   C     0.13963   0.97616   0.22196   0.00000  Uiso   1.00
C348   C     0.13998   0.69060   0.22157   0.00000  Uiso   1.00
C349   C     0.19371   0.97616   0.27805   0.00000  Uiso   1.00
C350   C     0.02130   0.79250   0.25029   0.00000  Uiso   1.00
H351   H     0.14260   0.89969   0.02804   0.00000  Uiso   1.00
H352   H     0.29600   0.90590   0.24899   0.00000  Uiso   1.00
H353   H     0.29596   0.76066   0.24938   0.00000  Uiso   1.00
H354   H     0.03734   0.90590   0.25101   0.00000  Uiso   1.00
H355   H     0.14252   0.76444   0.46850   0.00000  Uiso   1.00
H356   H     0.19073   0.89969   0.47196   0.00000  Uiso   1.00
H357   H     0.19080   0.76444   0.03150   0.00000  Uiso   1.00
H358   H     0.14516   0.90121   0.10848   0.00000  Uiso   1.00
H359   H     0.14311   0.76480   0.38763   0.00000  Uiso   1.00
H360   H     0.18817   0.90121   0.39152   0.00000  Uiso   1.00
H361   H     0.19021   0.76480   0.11237   0.00000  Uiso   1.00
H362   H     0.03738   0.76066   0.25062   0.00000  Uiso   1.00
I363   I     0.23490   0.72519   0.32443   0.00000  Uiso   1.00
I364   I     0.09583   0.94201   0.17830   0.00000  Uiso   1.00
I365   I     0.09844   0.72519   0.17557   0.00000  Uiso   1.00
I366   I     0.23751   0.94201   0.32170   0.00000  Uiso   1.00
N367   N     0.16667   0.95240   0.25000   0.00000  Uiso   1.00
N368   N     0.16667   0.71427   0.25000   0.00000  Uiso   1.00
O369   O     0.10559   0.87154   0.25000   0.00000  Uiso   1.00
O370   O     0.22774   0.79513   0.25001   0.00000  Uiso   1.00
O371   O     0.22774   0.87154   0.25001   0.00000  Uiso   1.00
O372   O     0.10559   0.79513   0.25000   0.00000  Uiso   1.00
O373   O     0.16666   0.87155   0.18453   0.00000  Uiso   1.00
O374   O     0.16667   0.79511   0.31547   0.00000  Uiso   1.00
O375   O     0.16667   0.87155   0.31547   0.00000  Uiso   1.00
O376   O     0.16666   0.79511   0.18453   0.00000  Uiso   1.00
Zn377  Zn    0.16667   0.88437   0.25000   0.00000  Uiso   1.00
Zn378  Zn    0.16667   0.78229   0.25000   0.00000  Uiso   1.00
C379   C     0.42008   0.83332   0.25021   0.00000  Uiso   1.00
C380   C     0.64538   0.87405   0.24958   0.00000  Uiso   1.00
C381   C     0.64537   0.79250   0.24971   0.00000  Uiso   1.00
C382   C     0.35462   0.87405   0.25042   0.00000  Uiso   1.00
C383   C     0.48701   0.87034   0.04619   0.00000  Uiso   1.00
C384   C     0.48669   0.79405   0.45185   0.00000  Uiso   1.00
C385   C     0.51298   0.87034   0.45381   0.00000  Uiso   1.00
C386   C     0.51330   0.79405   0.04815   0.00000  Uiso   1.00
C387   C     0.48802   0.87106   0.09207   0.00000  Uiso   1.00
C388   C     0.48676   0.79439   0.40588   0.00000  Uiso   1.00
C389   C     0.51198   0.87106   0.40793   0.00000  Uiso   1.00
C390   C     0.57992   0.83332   0.24979   0.00000  Uiso   1.00
C391   C     0.51323   0.79439   0.09411   0.00000  Uiso   1.00
C392   C     0.50060   0.83297   0.11613   0.00000  Uiso   1.00
C393   C     0.49939   0.83297   0.38387   0.00000  Uiso   1.00
C394   C     0.49997   0.83199   0.02409   0.00000  Uiso   1.00
C395   C     0.50002   0.83199   0.47591   0.00000  Uiso   1.00
C396   C     0.62413   0.83329   0.24956   0.00000  Uiso   1.00
C397   C     0.37587   0.83329   0.25044   0.00000  Uiso   1.00
C398   C     0.50023   0.83328   0.16406   0.00000  Uiso   1.00
C399   C     0.49977   0.83328   0.33594   0.00000  Uiso   1.00
C400   C     0.52669   0.69060   0.27843   0.00000  Uiso   1.00
C401   C     0.47296   0.97616   0.22196   0.00000  Uiso   1.00
C402   C     0.47331   0.69060   0.22157   0.00000  Uiso   1.00
C403   C     0.52704   0.97616   0.27805   0.00000  Uiso   1.00
C404   C     0.35463   0.79250   0.25029   0.00000  Uiso   1.00
H405   H     0.47594   0.89969   0.02804   0.00000  Uiso   1.00
H406   H     0.62933   0.90590   0.24899   0.00000  Uiso   1.00
H407   H     0.62929   0.76066   0.24938   0.00000  Uiso   1.00
H408   H     0.37067   0.90590   0.25101   0.00000  Uiso   1.00
H409   H     0.47585   0.76444   0.46850   0.00000  Uiso   1.00
H410   H     0.52406   0.89969   0.47196   0.00000  Uiso   1.00
H411   H     0.52414   0.76444   0.03150   0.00000  Uiso   1.00
H412   H     0.47849   0.90121   0.10848   0.00000  Uiso   1.00
H413   H     0.47644   0.76480   0.38763   0.00000  Uiso   1.00
H414   H     0.52151   0.90121   0.39152   0.00000  Uiso   1.00
H415   H     0.52355   0.76480   0.11237   0.00000  Uiso   1.00
H416   H     0.37071   0.76066   0.25062   0.00000  Uiso   1.00
I417   I     0.56823   0.72519   0.32443   0.00000  Uiso   1.00
I418   I     0.42916   0.94201   0.17830   0.00000  Uiso   1.00
I419   I     0.43177   0.72519   0.17557   0.00000  Uiso   1.00
I420   I     0.57084   0.94201   0.32170   0.00000  Uiso   1.00
N421   N     0.50000   0.95240   0.25000   0.00000  Uiso   1.00
N422   N     0.50000   0.71427   0.25000   0.00000  Uiso   1.00
O423   O     0.43892   0.87154   0.25000   0.00000  Uiso   1.00
O424   O     0.56108   0.79513   0.25001   0.00000  Uiso   1.00
O425   O     0.56108   0.87154   0.25001   0.00000  Uiso   1.00
O426   O     0.43892   0.79513   0.25000   0.00000  Uiso   1.00
O427   O     0.50000   0.87155   0.18453   0.00000  Uiso   1.00
O428   O     0.50000   0.79511   0.31547   0.00000  Uiso   1.00
O429   O     0.50000   0.87155   0.31547   0.00000  Uiso   1.00
O430   O     0.50000   0.79511   0.18453   0.00000  Uiso   1.00
Zn431  Zn    0.50000   0.88437   0.25000   0.00000  Uiso   1.00
Zn432  Zn    0.50000   0.78229   0.25000   0.00000  Uiso   1.00
C433   C     0.75342   0.83332   0.25021   0.00000  Uiso   1.00
C434   C     0.97871   0.87405   0.24958   0.00000  Uiso   1.00
C435   C     0.97870   0.79250   0.24971   0.00000  Uiso   1.00
C436   C     0.68795   0.87405   0.25042   0.00000  Uiso   1.00
C437   C     0.82034   0.87034   0.04619   0.00000  Uiso   1.00
C438   C     0.82002   0.79405   0.45185   0.00000  Uiso   1.00
C439   C     0.84632   0.87034   0.45381   0.00000  Uiso   1.00
C440   C     0.84663   0.79405   0.04815   0.00000  Uiso   1.00
C441   C     0.82135   0.87106   0.09207   0.00000  Uiso   1.00
C442   C     0.82009   0.79439   0.40588   0.00000  Uiso   1.00
C443   C     0.84531   0.87106   0.40793   0.00000  Uiso   1.00
C444   C     0.91325   0.83332   0.24979   0.00000  Uiso   1.00
C445   C     0.84656   0.79439   0.09411   0.00000  Uiso   1.00
C446   C     0.83394   0.83297   0.11613   0.00000  Uiso   1.00
C447   C     0.83272   0.83297   0.38387   0.00000  Uiso   1.00
C448   C     0.83330   0.83199   0.02409   0.00000  Uiso   1.00
C449   C     0.83335   0.83199   0.47591   0.00000  Uiso   1.00
C450   C     0.95746   0.83329   0.24956   0.00000  Uiso   1.00
C451   C     0.70920   0.83329   0.25044   0.00000  Uiso   1.00
C452   C     0.83357   0.83328   0.16406   0.00000  Uiso   1.00
C453   C     0.83310   0.83328   0.33594   0.00000  Uiso   1.00
C454   C     0.86002   0.69060   0.27843   0.00000  Uiso   1.00
C455   C     0.80629   0.97616   0.22196   0.00000  Uiso   1.00
C456   C     0.80664   0.69060   0.22157   0.00000  Uiso   1.00
C457   C     0.86037   0.97616   0.27805   0.00000  Uiso   1.00
C458   C     0.68796   0.79250   0.25029   0.00000  Uiso   1.00
H459   H     0.80927   0.89969   0.02804   0.00000  Uiso   1.00
H460   H     0.96266   0.90590   0.24899   0.00000  Uiso   1.00
H461   H     0.96262   0.76066   0.24938   0.00000  Uiso   1.00
H462   H     0.70400   0.90590   0.25101   0.00000  Uiso   1.00
H463   H     0.80918   0.76444   0.46850   0.00000  Uiso   1.00
H464   H     0.85739   0.89969   0.47196   0.00000  Uiso   1.00
H465   H     0.85747   0.76444   0.03150   0.00000  Uiso   1.00
H466   H     0.81183   0.90121   0.10848   0.00000  Uiso   1.00
H467   H     0.80978   0.76480   0.38763   0.00000  Uiso   1.00
H468   H     0.85484   0.90121   0.39152   0.00000  Uiso   1.00
H469   H     0.85688   0.76480   0.11237   0.00000  Uiso   1.00
H470   H     0.70404   0.76066   0.25062   0.00000  Uiso   1.00
I471   I     0.90156   0.72519   0.32443   0.00000  Uiso   1.00
I472   I     0.76249   0.94201   0.17830   0.00000  Uiso   1.00
I473   I     0.76510   0.72519   0.17557   0.00000  Uiso   1.00
I474   I     0.90417   0.94201   0.32170   0.00000  Uiso   1.00
N475   N     0.83333   0.95240   0.25000   0.00000  Uiso   1.00
N476   N     0.83333   0.71427   0.25000   0.00000  Uiso   1.00
O477   O     0.77226   0.87154   0.25000   0.00000  Uiso   1.00
O478   O     0.89441   0.79513   0.25001   0.00000  Uiso   1.00
O479   O     0.89441   0.87154   0.25001   0.00000  Uiso   1.00
O480   O     0.77226   0.79513   0.25000   0.00000  Uiso   1.00
O481   O     0.83333   0.87155   0.18453   0.00000  Uiso   1.00
O482   O     0.83334   0.79511   0.31547   0.00000  Uiso   1.00
O483   O     0.83334   0.87155   0.31547   0.00000  Uiso   1.00
O484   O     0.83333   0.79511   0.18453   0.00000  Uiso   1.00
Zn485  Zn    0.83333   0.88437   0.25000   0.00000  Uiso   1.00
Zn486  Zn    0.83333   0.78229   0.25000   0.00000  Uiso   1.00
C487   C     0.08675   0.16666   0.75021   0.00000  Uiso   1.00
C488   C     0.31205   0.20739   0.74958   0.00000  Uiso   1.00
C489   C     0.31204   0.12583   0.74971   0.00000  Uiso   1.00
C490   C     0.02129   0.20739   0.75042   0.00000  Uiso   1.00
C491   C     0.15368   0.20368   0.54619   0.00000  Uiso   1.00
C492   C     0.15336   0.12738   0.95185   0.00000  Uiso   1.00
C493   C     0.17965   0.20368   0.95381   0.00000  Uiso   1.00
C494   C     0.17997   0.12738   0.54815   0.00000  Uiso   1.00
C495   C     0.15469   0.20440   0.59207   0.00000  Uiso   1.00
C496   C     0.15343   0.12772   0.90588   0.00000  Uiso   1.00
C497   C     0.17864   0.20440   0.90793   0.00000  Uiso   1.00
C498   C     0.24658   0.16666   0.74979   0.00000  Uiso   1.00
C499   C     0.17990   0.12772   0.59411   0.00000  Uiso   1.00
C500   C     0.16727   0.16630   0.61613   0.00000  Uiso   1.00
C501   C     0.16606   0.16630   0.88387   0.00000  Uiso   1.00
C502   C     0.16664   0.16532   0.52409   0.00000  Uiso   1.00
C503   C     0.16669   0.16532   0.97591   0.00000  Uiso   1.00
C504   C     0.29080   0.16662   0.74956   0.00000  Uiso   1.00
C505   C     0.04254   0.16662   0.75044   0.00000  Uiso   1.00
C506   C     0.16690   0.16662   0.66406   0.00000  Uiso   1.00
C507   C     0.16643   0.16662   0.83594   0.00000  Uiso   1.00
C508   C     0.19336   0.02394   0.77843   0.00000  Uiso   1.00
C509   C     0.13963   0.30949   0.72196   0.00000  Uiso   1.00
C510   C     0.13998   0.02394   0.72157   0.00000  Uiso   1.00
C511   C     0.19371   0.30949   0.77805   0.00000  Uiso   1.00
C512   C     0.02130   0.12583   0.75029   0.00000  Uiso   1.00
H513   H     0.14260   0.23302   0.52804   0.00000  Uiso   1.00
H514   H     0.29600   0.23923   0.74899   0.00000  Uiso   1.00
H515   H     0.29596   0.09399   0.74938   0.00000  Uiso   1.00
H516   H     0.03734   0.23923   0.75101   0.00000  Uiso   1.00
H517   H     0.14252   0.09777   0.96850   0.00000  Uiso   1.00
H518   H     0.19073   0.23302   0.97196   0.00000  Uiso   1.00
H519   H     0.19080   0.09777   0.53150   0.00000  Uiso   1.00
H520   H     0.14516   0.23454   0.60848   0.00000  Uiso   1.00
H521   H     0.14311   0.09813   0.88763   0.00000  Uiso   1.00
H522   H     0.18817   0.23454   0.89152   0.00000  Uiso   1.00
H523   H     0.19021   0.09813   0.61237   0.00000  Uiso   1.00
H524   H     0.03738   0.09399   0.75062   0.00000  Uiso   1.00
I525   I     0.23490   0.05852   0.82443   0.00000  Uiso   1.00
I526   I     0.09583   0.27535   0.67830   0.00000  Uiso   1.00
I527   I     0.09844   0.05852   0.67557   0.00000  Uiso   1.00
I528   I     0.23751   0.27535   0.82170   0.00000  Uiso   1.00
N529   N     0.16667   0.28573   0.75000   0.00000  Uiso   1.00
N530   N     0.16667   0.04760   0.75000   0.00000  Uiso   1.00
O531   O     0.10559   0.20487   0.75000   0.00000  Uiso   1.00
O532   O     0.22774   0.12846   0.75001   0.00000  Uiso   1.00
O533   O     0.22774   0.20487   0.75001   0.00000  Uiso   1.00
O534   O     0.10559   0.12846   0.75000   0.00000  Uiso   1.00
O535   O     0.16666   0.20489   0.68453   0.00000  Uiso   1.00
O536   O     0.16667   0.12845   0.81547   0.00000  Uiso   1.00
O537   O     0.16667   0.20489   0.81547   0.00000  Uiso   1.00
O538   O     0.16666   0.12845   0.68453   0.00000  Uiso   1.00
Zn539  Zn    0.16667   0.21771   0.75000   0.00000  Uiso   1.00
Zn540  Zn    0.16667   0.11563   0.75000   0.00000  Uiso   1.00
C541   C     0.42008   0.16666   0.75021   0.00000  Uiso   1.00
C542   C     0.64538   0.20739   0.74958   0.00000  Uiso   1.00
C543   C     0.64537   0.12583   0.74971   0.00000  Uiso   1.00
C544   C     0.35462   0.20739   0.75042   0.00000  Uiso   1.00
C545   C     0.48701   0.20368   0.54619   0.00000  Uiso   1.00
C546   C     0.48669   0.12738   0.95185   0.00000  Uiso   1.00
C547   C     0.51298   0.20368   0.95381   0.00000  Uiso   1.00
C548   C     0.51330   0.12738   0.54815   0.00000  Uiso   1.00
C549   C     0.48802   0.20440   0.59207   0.00000  Uiso   1.00
C550   C     0.48676   0.12772   0.90588   0.00000  Uiso   1.00
C551   C     0.51198   0.20440   0.90793   0.00000  Uiso   1.00
C552   C     0.57992   0.16666   0.74979   0.00000  Uiso   1.00
C553   C     0.51323   0.12772   0.59411   0.00000  Uiso   1.00
C554   C     0.50060   0.16630   0.61613   0.00000  Uiso   1.00
C555   C     0.49939   0.16630   0.88387   0.00000  Uiso   1.00
C556   C     0.49997   0.16532   0.52409   0.00000  Uiso   1.00
C557   C     0.50002   0.16532   0.97591   0.00000  Uiso   1.00
C558   C     0.62413   0.16662   0.74956   0.00000  Uiso   1.00
C559   C     0.37587   0.16662   0.75044   0.00000  Uiso   1.00
C560   C     0.50023   0.16662   0.66406   0.00000  Uiso   1.00
C561   C     0.49977   0.16662   0.83594   0.00000  Uiso   1.00
C562   C     0.52669   0.02394   0.77843   0.00000  Uiso   1.00
C563   C     0.47296   0.30949   0.72196   0.00000  Uiso   1.00
C564   C     0.47331   0.02394   0.72157   0.00000  Uiso   1.00
C565   C     0.52704   0.30949   0.77805   0.00000  Uiso   1.00
C566   C     0.35463   0.12583   0.75029   0.00000  Uiso   1.00
H567   H     0.47594   0.23302   0.52804   0.00000  Uiso   1.00
H568   H     0.62933   0.23923   0.74899   0.00000  Uiso   1.00
H569   H     0.62929   0.09399   0.74938   0.00000  Uiso   1.00
H570   H     0.37067   0.23923   0.75101   0.00000  Uiso   1.00
H571   H     0.47585   0.09777   0.96850   0.00000  Uiso   1.00
H572   H     0.52406   0.23302   0.97196   0.00000  Uiso   1.00
H573   H     0.52414   0.09777   0.53150   0.00000  Uiso   1.00
H574   H     0.47849   0.23454   0.60848   0.00000  Uiso   1.00
H575   H     0.47644   0.09813   0.88763   0.00000  Uiso   1.00
H576   H     0.52151   0.23454   0.89152   0.00000  Uiso   1.00
H577   H     0.52355   0.09813   0.61237   0.00000  Uiso   1.00
H578   H     0.37071   0.09399   0.75062   0.00000  Uiso   1.00
I579   I     0.56823   0.05852   0.82443   0.00000  Uiso   1.00
I580   I     0.42916   0.27535   0.67830   0.00000  Uiso   1.00
I581   I     0.43177   0.05852   0.67557   0.00000  Uiso   1.00
I582   I     0.57084   0.27535   0.82170   0.00000  Uiso   1.00
N583   N     0.50000   0.28573   0.75000   0.00000  Uiso   1.00
N584   N     0.50000   0.04760   0.75000   0.00000  Uiso   1.00
O585   O     0.43892   0.20487   0.75000   0.00000  Uiso   1.00
O586   O     0.56108   0.12846   0.75001   0.00000  Uiso   1.00
O587   O     0.56108   0.20487   0.75001   0.00000  Uiso   1.00
O588   O     0.43892   0.12846   0.75000   0.00000  Uiso   1.00
O589   O     0.50000   0.20489   0.68453   0.00000  Uiso   1.00
O590   O     0.50000   0.12845   0.81547   0.00000  Uiso   1.00
O591   O     0.50000   0.20489   0.81547   0.00000  Uiso   1.00
O592   O     0.50000   0.12845   0.68453   0.00000  Uiso   1.00
Zn593  Zn    0.50000   0.21771   0.75000   0.00000  Uiso   1.00
Zn594  Zn    0.50000   0.11563   0.75000   0.00000  Uiso   1.00
C595   C     0.75342   0.16666   0.75021   0.00000  Uiso   1.00
C596   C     0.97871   0.20739   0.74958   0.00000  Uiso   1.00
C597   C     0.97870   0.12583   0.74971   0.00000  Uiso   1.00
C598   C     0.68795   0.20739   0.75042   0.00000  Uiso   1.00
C599   C     0.82034   0.20368   0.54619   0.00000  Uiso   1.00
C600   C     0.82002   0.12738   0.95185   0.00000  Uiso   1.00
C601   C     0.84632   0.20368   0.95381   0.00000  Uiso   1.00
C602   C     0.84663   0.12738   0.54815   0.00000  Uiso   1.00
C603   C     0.82135   0.20440   0.59207   0.00000  Uiso   1.00
C604   C     0.82009   0.12772   0.90588   0.00000  Uiso   1.00
C605   C     0.84531   0.20440   0.90793   0.00000  Uiso   1.00
C606   C     0.91325   0.16666   0.74979   0.00000  Uiso   1.00
C607   C     0.84656   0.12772   0.59411   0.00000  Uiso   1.00
C608   C     0.83394   0.16630   0.61613   0.00000  Uiso   1.00
C609   C     0.83272   0.16630   0.88387   0.00000  Uiso   1.00
C610   C     0.83330   0.16532   0.52409   0.00000  Uiso   1.00
C611   C     0.83335   0.16532   0.97591   0.00000  Uiso   1.00
C612   C     0.95746   0.16662   0.74956   0.00000  Uiso   1.00
C613   C     0.70920   0.16662   0.75044   0.00000  Uiso   1.00
C614   C     0.83357   0.16662   0.66406   0.00000  Uiso   1.00
C615   C     0.83310   0.16662   0.83594   0.00000  Uiso   1.00
C616   C     0.86002   0.02394   0.77843   0.00000  Uiso   1.00
C617   C     0.80629   0.30949   0.72196   0.00000  Uiso   1.00
C618   C     0.80664   0.02394   0.72157   0.00000  Uiso   1.00
C619   C     0.86037   0.30949   0.77805   0.00000  Uiso   1.00
C620   C     0.68796   0.12583   0.75029   0.00000  Uiso   1.00
H621   H     0.80927   0.23302   0.52804   0.00000  Uiso   1.00
H622   H     0.96266   0.23923   0.74899   0.00000  Uiso   1.00
H623   H     0.96262   0.09399   0.74938   0.00000  Uiso   1.00
H624   H     0.70400   0.23923   0.75101   0.00000  Uiso   1.00
H625   H     0.80918   0.09777   0.96850   0.00000  Uiso   1.00
H626   H     0.85739   0.23302   0.97196   0.00000  Uiso   1.00
H627   H     0.85747   0.09777   0.53150   0.00000  Uiso   1.00
H628   H     0.81183   0.23454   0.60848   0.00000  Uiso   1.00
H629   H     0.80978   0.09813   0.88763   0.00000  Uiso   1.00
H630   H     0.85484   0.23454   0.89152   0.00000  Uiso   1.00
H631   H     0.85688   0.09813   0.61237   0.00000  Uiso   1.00
H632   H     0.70404   0.09399   0.75062   0.00000  Uiso   1.00
I633   I     0.90156   0.05852   0.82443   0.00000  Uiso   1.00
I634   I     0.76249   0.27535   0.67830   0.00000  Uiso   1.00
I635   I     0.76510   0.05852   0.67557   0.00000  Uiso   1.00
I636   I     0.90417   0.27535   0.82170   0.00000  Uiso   1.00
N637   N     0.83333   0.28573   0.75000   0.00000  Uiso   1.00
N638   N     0.83333   0.04760   0.75000   0.00000  Uiso   1.00
O639   O     0.77226   0.20487   0.75000   0.00000  Uiso   1.00
O640   O     0.89441   0.12846   0.75001   0.00000  Uiso   1.00
O641   O     0.89441   0.20487   0.75001   0.00000  Uiso   1.00
O642   O     0.77226   0.12846   0.75000   0.00000  Uiso   1.00
O643   O     0.83333   0.20489   0.68453   0.00000  Uiso   1.00
O644   O     0.83334   0.12845   0.81547   0.00000  Uiso   1.00
O645   O     0.83334   0.20489   0.81547   0.00000  Uiso   1.00
O646   O     0.83333   0.12845   0.68453   0.00000  Uiso   1.00
Zn647  Zn    0.83333   0.21771   0.75000   0.00000  Uiso   1.00
Zn648  Zn    0.83333   0.11563   0.75000   0.00000  Uiso   1.00
C649   C     0.08675   0.49999   0.75021   0.00000  Uiso   1.00
C650   C     0.31205   0.54072   0.74958   0.00000  Uiso   1.00
C651   C     0.31204   0.45916   0.74971   0.00000  Uiso   1.00
C652   C     0.02129   0.54072   0.75042   0.00000  Uiso   1.00
C653   C     0.15368   0.53701   0.54619   0.00000  Uiso   1.00
C654   C     0.15336   0.46071   0.95185   0.00000  Uiso   1.00
C655   C     0.17965   0.53701   0.95381   0.00000  Uiso   1.00
C656   C     0.17997   0.46071   0.54815   0.00000  Uiso   1.00
C657   C     0.15469   0.53773   0.59207   0.00000  Uiso   1.00
C658   C     0.15343   0.46105   0.90588   0.00000  Uiso   1.00
C659   C     0.17864   0.53773   0.90793   0.00000  Uiso   1.00
C660   C     0.24658   0.49999   0.74979   0.00000  Uiso   1.00
C661   C     0.17990   0.46105   0.59411   0.00000  Uiso   1.00
C662   C     0.16727   0.49963   0.61613   0.00000  Uiso   1.00
C663   C     0.16606   0.49963   0.88387   0.00000  Uiso   1.00
C664   C     0.16664   0.49865   0.52409   0.00000  Uiso   1.00
C665   C     0.16669   0.49865   0.97591   0.00000  Uiso   1.00
C666   C     0.29080   0.49996   0.74956   0.00000  Uiso   1.00
C667   C     0.04254   0.49996   0.75044   0.00000  Uiso   1.00
C668   C     0.16690   0.49995   0.66406   0.00000  Uiso   1.00
C669   C     0.16643   0.49995   0.83594   0.00000  Uiso   1.00
C670   C     0.19336   0.35727   0.77843   0.00000  Uiso   1.00
C671   C     0.13963   0.64283   0.72196   0.00000  Uiso   1.00
C672   C     0.13998   0.35727   0.72157   0.00000  Uiso   1.00
C673   C     0.19371   0.64283   0.77805   0.00000  Uiso   1.00
C674   C     0.02130   0.45916   0.75029   0.00000  Uiso   1.00
H675   H     0.14260   0.56635   0.52804   0.00000  Uiso   1.00
H676   H     0.29600   0.57256   0.74899   0.00000  Uiso   1.00
H677   H     0.29596   0.42733   0.74938   0.00000  Uiso   1.00
H678   H     0.03734   0.57256   0.75101   0.00000  Uiso   1.00
H679   H     0.14252   0.43111   0.96850   0.00000  Uiso   1.00
H680   H     0.19073   0.56636   0.97196   0.00000  Uiso   1.00
H681   H     0.19080   0.43111   0.53150   0.00000  Uiso   1.00
H682   H     0.14516   0.56787   0.60848   0.00000  Uiso   1.00
H683   H     0.14311   0.43147   0.88763   0.00000  Uiso   1.00
H684   H     0.18817   0.56787   0.89152   0.00000  Uiso   1.00
H685   H     0.19021   0.43147   0.61237   0.00000  Uiso   1.00
H686   H     0.03738   0.42733   0.75062   0.00000  Uiso   1.00
I687   I     0.23490   0.39186   0.82443   0.00000  Uiso   1.00
I688   I     0.09583   0.60868   0.67830   0.00000  Uiso   1.00
I689   I     0.09844   0.39186   0.67557   0.00000  Uiso   1.00
I690   I     0.23751   0.60868   0.82170   0.00000  Uiso   1.00
N691   N     0.16667   0.61907   0.75000   0.00000  Uiso   1.00
N692   N     0.16667   0.38093   0.75000   0.00000  Uiso   1.00
O693   O     0.10559   0.53821   0.75000   0.00000  Uiso   1.00
O694   O     0.22774   0.46179   0.75001   0.00000  Uiso   1.00
O695   O     0.22774   0.53821   0.75001   0.00000  Uiso   1.00
O696   O     0.10559   0.46179   0.75000   0.00000  Uiso   1.00
O697   O     0.16666   0.53822   0.68453   0.00000  Uiso   1.00
O698   O     0.16667   0.46178   0.81547   0.00000  Uiso   1.00
O699   O     0.16667   0.53822   0.81547   0.00000  Uiso   1.00
O700   O     0.16666   0.46178   0.68453   0.00000  Uiso   1.00
Zn701  Zn    0.16667   0.55104   0.75000   0.00000  Uiso   1.00
Zn702  Zn    0.16667   0.44896   0.75000   0.00000  Uiso   1.00
C703   C     0.42008   0.49999   0.75021   0.00000  Uiso   1.00
C704   C     0.64538   0.54072   0.74958   0.00000  Uiso   1.00
C705   C     0.64537   0.45916   0.74971   0.00000  Uiso   1.00
C706   C     0.35462   0.54072   0.75042   0.00000  Uiso   1.00
C707   C     0.48701   0.53701   0.54619   0.00000  Uiso   1.00
C708   C     0.48669   0.46071   0.95185   0.00000  Uiso   1.00
C709   C     0.51298   0.53701   0.95381   0.00000  Uiso   1.00
C710   C     0.51330   0.46071   0.54815   0.00000  Uiso   1.00
C711   C     0.48802   0.53773   0.59207   0.00000  Uiso   1.00
C712   C     0.48676   0.46105   0.90588   0.00000  Uiso   1.00
C713   C     0.51198   0.53773   0.90793   0.00000  Uiso   1.00
C714   C     0.57992   0.49999   0.74979   0.00000  Uiso   1.00
C715   C     0.51323   0.46105   0.59411   0.00000  Uiso   1.00
C716   C     0.50060   0.49963   0.61613   0.00000  Uiso   1.00
C717   C     0.49939   0.49963   0.88387   0.00000  Uiso   1.00
C718   C     0.49997   0.49865   0.52409   0.00000  Uiso   1.00
C719   C     0.50002   0.49865   0.97591   0.00000  Uiso   1.00
C720   C     0.62413   0.49996   0.74956   0.00000  Uiso   1.00
C721   C     0.37587   0.49996   0.75044   0.00000  Uiso   1.00
C722   C     0.50023   0.49995   0.66406   0.00000  Uiso   1.00
C723   C     0.49977   0.49995   0.83594   0.00000  Uiso   1.00
C724   C     0.52669   0.35727   0.77843   0.00000  Uiso   1.00
C725   C     0.47296   0.64283   0.72196   0.00000  Uiso   1.00
C726   C     0.47331   0.35727   0.72157   0.00000  Uiso   1.00
C727   C     0.52704   0.64283   0.77805   0.00000  Uiso   1.00
C728   C     0.35463   0.45916   0.75029   0.00000  Uiso   1.00
H729   H     0.47594   0.56635   0.52804   0.00000  Uiso   1.00
H730   H     0.62933   0.57256   0.74899   0.00000  Uiso   1.00
H731   H     0.62929   0.42733   0.74938   0.00000  Uiso   1.00
H732   H     0.37067   0.57256   0.75101   0.00000  Uiso   1.00
H733   H     0.47585   0.43111   0.96850   0.00000  Uiso   1.00
H734   H     0.52406   0.56636   0.97196   0.00000  Uiso   1.00
H735   H     0.52414   0.43111   0.53150   0.00000  Uiso   1.00
H736   H     0.47849   0.56787   0.60848   0.00000  Uiso   1.00
H737   H     0.47644   0.43147   0.88763   0.00000  Uiso   1.00
H738   H     0.52151   0.56787   0.89152   0.00000  Uiso   1.00
H739   H     0.52355   0.43147   0.61237   0.00000  Uiso   1.00
H740   H     0.37071   0.42733   0.75062   0.00000  Uiso   1.00
I741   I     0.56823   0.39186   0.82443   0.00000  Uiso   1.00
I742   I     0.42916   0.60868   0.67830   0.00000  Uiso   1.00
I743   I     0.43177   0.39186   0.67557   0.00000  Uiso   1.00
I744   I     0.57084   0.60868   0.82170   0.00000  Uiso   1.00
N745   N     0.50000   0.61907   0.75000   0.00000  Uiso   1.00
N746   N     0.50000   0.38093   0.75000   0.00000  Uiso   1.00
O747   O     0.43892   0.53821   0.75000   0.00000  Uiso   1.00
O748   O     0.56108   0.46179   0.75001   0.00000  Uiso   1.00
O749   O     0.56108   0.53821   0.75001   0.00000  Uiso   1.00
O750   O     0.43892   0.46179   0.75000   0.00000  Uiso   1.00
O751   O     0.50000   0.53822   0.68453   0.00000  Uiso   1.00
O752   O     0.50000   0.46178   0.81547   0.00000  Uiso   1.00
O753   O     0.50000   0.53822   0.81547   0.00000  Uiso   1.00
O754   O     0.50000   0.46178   0.68453   0.00000  Uiso   1.00
Zn755  Zn    0.50000   0.55104   0.75000   0.00000  Uiso   1.00
Zn756  Zn    0.50000   0.44896   0.75000   0.00000  Uiso   1.00
C757   C     0.75342   0.49999   0.75021   0.00000  Uiso   1.00
C758   C     0.97871   0.54072   0.74958   0.00000  Uiso   1.00
C759   C     0.97870   0.45916   0.74971   0.00000  Uiso   1.00
C760   C     0.68795   0.54072   0.75042   0.00000  Uiso   1.00
C761   C     0.82034   0.53701   0.54619   0.00000  Uiso   1.00
C762   C     0.82002   0.46071   0.95185   0.00000  Uiso   1.00
C763   C     0.84632   0.53701   0.95381   0.00000  Uiso   1.00
C764   C     0.84663   0.46071   0.54815   0.00000  Uiso   1.00
C765   C     0.82135   0.53773   0.59207   0.00000  Uiso   1.00
C766   C     0.82009   0.46105   0.90588   0.00000  Uiso   1.00
C767   C     0.84531   0.53773   0.90793   0.00000  Uiso   1.00
C768   C     0.91325   0.49999   0.74979   0.00000  Uiso   1.00
C769   C     0.84656   0.46105   0.59411   0.00000  Uiso   1.00
C770   C     0.83394   0.49963   0.61613   0.00000  Uiso   1.00
C771   C     0.83272   0.49963   0.88387   0.00000  Uiso   1.00
C772   C     0.83330   0.49865   0.52409   0.00000  Uiso   1.00
C773   C     0.83335   0.49865   0.97591   0.00000  Uiso   1.00
C774   C     0.95746   0.49996   0.74956   0.00000  Uiso   1.00
C775   C     0.70920   0.49996   0.75044   0.00000  Uiso   1.00
C776   C     0.83357   0.49995   0.66406   0.00000  Uiso   1.00
C777   C     0.83310   0.49995   0.83594   0.00000  Uiso   1.00
C778   C     0.86002   0.35727   0.77843   0.00000  Uiso   1.00
C779   C     0.80629   0.64283   0.72196   0.00000  Uiso   1.00
C780   C     0.80664   0.35727   0.72157   0.00000  Uiso   1.00
C781   C     0.86037   0.64283   0.77805   0.00000  Uiso   1.00
C782   C     0.68796   0.45916   0.75029   0.00000  Uiso   1.00
H783   H     0.80927   0.56635   0.52804   0.00000  Uiso   1.00
H784   H     0.96266   0.57256   0.74899   0.00000  Uiso   1.00
H785   H     0.96262   0.42733   0.74938   0.00000  Uiso   1.00
H786   H     0.70400   0.57256   0.75101   0.00000  Uiso   1.00
H787   H     0.80918   0.43111   0.96850   0.00000  Uiso   1.00
H788   H     0.85739   0.56636   0.97196   0.00000  Uiso   1.00
H789   H     0.85747   0.43111   0.53150   0.00000  Uiso   1.00
H790   H     0.81183   0.56787   0.60848   0.00000  Uiso   1.00
H791   H     0.80978   0.43147   0.88763   0.00000  Uiso   1.00
H792   H     0.85484   0.56787   0.89152   0.00000  Uiso   1.00
H793   H     0.85688   0.43147   0.61237   0.00000  Uiso   1.00
H794   H     0.70404   0.42733   0.75062   0.00000  Uiso   1.00
I795   I     0.90156   0.39186   0.82443   0.00000  Uiso   1.00
I796   I     0.76249   0.60868   0.67830   0.00000  Uiso   1.00
I797   I     0.76510   0.39186   0.67557   0.00000  Uiso   1.00
I798   I     0.90417   0.60868   0.82170   0.00000  Uiso   1.00
N799   N     0.83333   0.61907   0.75000   0.00000  Uiso   1.00
N800   N     0.83333   0.38093   0.75000   0.00000  Uiso   1.00
O801   O     0.77226   0.53821   0.75000   0.00000  Uiso   1.00
O802   O     0.89441   0.46179   0.75001   0.00000  Uiso   1.00
O803   O     0.89441   0.53821   0.75001   0.00000  Uiso   1.00
O804   O     0.77226   0.46179   0.75000   0.00000  Uiso   1.00
O805   O     0.83333   0.53822   0.68453   0.00000  Uiso   1.00
O806   O     0.83334   0.46178   0.81547   0.00000  Uiso   1.00
O807   O     0.83334   0.53822   0.81547   0.00000  Uiso   1.00
O808   O     0.83333   0.46178   0.68453   0.00000  Uiso   1.00
Zn809  Zn    0.83333   0.55104   0.75000   0.00000  Uiso   1.00
Zn810  Zn    0.83333   0.44896   0.75000   0.00000  Uiso   1.00
C811   C     0.08675   0.83332   0.75021   0.00000  Uiso   1.00
C812   C     0.31205   0.87405   0.74958   0.00000  Uiso   1.00
C813   C     0.31204   0.79250   0.74971   0.00000  Uiso   1.00
C814   C     0.02129   0.87405   0.75042   0.00000  Uiso   1.00
C815   C     0.15368   0.87034   0.54619   0.00000  Uiso   1.00
C816   C     0.15336   0.79405   0.95185   0.00000  Uiso   1.00
C817   C     0.17965   0.87034   0.95381   0.00000  Uiso   1.00
C818   C     0.17997   0.79405   0.54815   0.00000  Uiso   1.00
C819   C     0.15469   0.87106   0.59207   0.00000  Uiso   1.00
C820   C     0.15343   0.79439   0.90588   0.00000  Uiso   1.00
C821   C     0.17864   0.87106   0.90793   0.00000  Uiso   1.00
C822   C     0.24658   0.83332   0.74979   0.00000  Uiso   1.00
C823   C     0.17990   0.79439   0.59411   0.00000  Uiso   1.00
C824   C     0.16727   0.83297   0.61613   0.00000  Uiso   1.00
C825   C     0.16606   0.83297   0.88387   0.00000  Uiso   1.00
C826   C     0.16664   0.83199   0.52409   0.00000  Uiso   1.00
C827   C     0.16669   0.83199   0.97591   0.00000  Uiso   1.00
C828   C     0.29080   0.83329   0.74956   0.00000  Uiso   1.00
C829   C     0.04254   0.83329   0.75044   0.00000  Uiso   1.00
C830   C     0.16690   0.83328   0.66406   0.00000  Uiso   1.00
C831   C     0.16643   0.83328   0.83594   0.00000  Uiso   1.00
C832   C     0.19336   0.69060   0.77843   0.00000  Uiso   1.00
C833   C     0.13963   0.97616   0.72196   0.00000  Uiso   1.00
C834   C     0.13998   0.69060   0.72157   0.00000  Uiso   1.00
C835   C     0.19371   0.97616   0.77805   0.00000  Uiso   1.00
C836   C     0.02130   0.79250   0.75029   0.00000  Uiso   1.00
H837   H     0.14260   0.89969   0.52804   0.00000  Uiso   1.00
H838   H     0.29600   0.90590   0.74899   0.00000  Uiso   1.00
H839   H     0.29596   0.76066   0.74938   0.00000  Uiso   1.00
H840   H     0.03734   0.90590   0.75101   0.00000  Uiso   1.00
H841   H     0.14252   0.76444   0.96850   0.00000  Uiso   1.00
H842   H     0.19073   0.89969   0.97196   0.00000  Uiso   1.00
H843   H     0.19080   0.76444   0.53150   0.00000  Uiso   1.00
H844   H     0.14516   0.90121   0.60848   0.00000  Uiso   1.00
H845   H     0.14311   0.76480   0.88763   0.00000  Uiso   1.00
H846   H     0.18817   0.90121   0.89152   0.00000  Uiso   1.00
H847   H     0.19021   0.76480   0.61237   0.00000  Uiso   1.00
H848   H     0.03738   0.76066   0.75062   0.00000  Uiso   1.00
I849   I     0.23490   0.72519   0.82443   0.00000  Uiso   1.00
I850   I     0.09583   0.94201   0.67830   0.00000  Uiso   1.00
I851   I     0.09844   0.72519   0.67557   0.00000  Uiso   1.00
I852   I     0.23751   0.94201   0.82170   0.00000  Uiso   1.00
N853   N     0.16667   0.95240   0.75000   0.00000  Uiso   1.00
N854   N     0.16667   0.71427   0.75000   0.00000  Uiso   1.00
O855   O     0.10559   0.87154   0.75000   0.00000  Uiso   1.00
O856   O     0.22774   0.79513   0.75001   0.00000  Uiso   1.00
O857   O     0.22774   0.87154   0.75001   0.00000  Uiso   1.00
O858   O     0.10559   0.79513   0.75000   0.00000  Uiso   1.00
O859   O     0.16666   0.87155   0.68453   0.00000  Uiso   1.00
O860   O     0.16667   0.79511   0.81547   0.00000  Uiso   1.00
O861   O     0.16667   0.87155   0.81547   0.00000  Uiso   1.00
O862   O     0.16666   0.79511   0.68453   0.00000  Uiso   1.00
Zn863  Zn    0.16667   0.88437   0.75000   0.00000  Uiso   1.00
Zn864  Zn    0.16667   0.78229   0.75000   0.00000  Uiso   1.00
C865   C     0.42008   0.83332   0.75021   0.00000  Uiso   1.00
C866   C     0.64538   0.87405   0.74958   0.00000  Uiso   1.00
C867   C     0.64537   0.79250   0.74971   0.00000  Uiso   1.00
C868   C     0.35462   0.87405   0.75042   0.00000  Uiso   1.00
C869   C     0.48701   0.87034   0.54619   0.00000  Uiso   1.00
C870   C     0.48669   0.79405   0.95185   0.00000  Uiso   1.00
C871   C     0.51298   0.87034   0.95381   0.00000  Uiso   1.00
C872   C     0.51330   0.79405   0.54815   0.00000  Uiso   1.00
C873   C     0.48802   0.87106   0.59207   0.00000  Uiso   1.00
C874   C     0.48676   0.79439   0.90588   0.00000  Uiso   1.00
C875   C     0.51198   0.87106   0.90793   0.00000  Uiso   1.00
C876   C     0.57992   0.83332   0.74979   0.00000  Uiso   1.00
C877   C     0.51323   0.79439   0.59411   0.00000  Uiso   1.00
C878   C     0.50060   0.83297   0.61613   0.00000  Uiso   1.00
C879   C     0.49939   0.83297   0.88387   0.00000  Uiso   1.00
C880   C     0.49997   0.83199   0.52409   0.00000  Uiso   1.00
C881   C     0.50002   0.83199   0.97591   0.00000  Uiso   1.00
C882   C     0.62413   0.83329   0.74956   0.00000  Uiso   1.00
C883   C     0.37587   0.83329   0.75044   0.00000  Uiso   1.00
C884   C     0.50023   0.83328   0.66406   0.00000  Uiso   1.00
C885   C     0.49977   0.83328   0.83594   0.00000  Uiso   1.00
C886   C     0.52669   0.69060   0.77843   0.00000  Uiso   1.00
C887   C     0.47296   0.97616   0.72196   0.00000  Uiso   1.00
C888   C     0.47331   0.69060   0.72157   0.00000  Uiso   1.00
C889   C     0.52704   0.97616   0.77805   0.00000  Uiso   1.00
C890   C     0.35463   0.79250   0.75029   0.00000  Uiso   1.00
H891   H     0.47594   0.89969   0.52804   0.00000  Uiso   1.00
H892   H     0.62933   0.90590   0.74899   0.00000  Uiso   1.00
H893   H     0.62929   0.76066   0.74938   0.00000  Uiso   1.00
H894   H     0.37067   0.90590   0.75101   0.00000  Uiso   1.00
H895   H     0.47585   0.76444   0.96850   0.00000  Uiso   1.00
H896   H     0.52406   0.89969   0.97196   0.00000  Uiso   1.00
H897   H     0.52414   0.76444   0.53150   0.00000  Uiso   1.00
H898   H     0.47849   0.90121   0.60848   0.00000  Uiso   1.00
H899   H     0.47644   0.76480   0.88763   0.00000  Uiso   1.00
H900   H     0.52151   0.90121   0.89152   0.00000  Uiso   1.00
H901   H     0.52355   0.76480   0.61237   0.00000  Uiso   1.00
H902   H     0.37071   0.76066   0.75062   0.00000  Uiso   1.00
I903   I     0.56823   0.72519   0.82443   0.00000  Uiso   1.00
I904   I     0.42916   0.94201   0.67830   0.00000  Uiso   1.00
I905   I     0.43177   0.72519   0.67557   0.00000  Uiso   1.00
I906   I     0.57084   0.94201   0.82170   0.00000  Uiso   1.00
N907   N     0.50000   0.95240   0.75000   0.00000  Uiso   1.00
N908   N     0.50000   0.71427   0.75000   0.00000  Uiso   1.00
O909   O     0.43892   0.87154   0.75000   0.00000  Uiso   1.00
O910   O     0.56108   0.79513   0.75001   0.00000  Uiso   1.00
O911   O     0.56108   0.87154   0.75001   0.00000  Uiso   1.00
O912   O     0.43892   0.79513   0.75000   0.00000  Uiso   1.00
O913   O     0.50000   0.87155   0.68453   0.00000  Uiso   1.00
O914   O     0.50000   0.79511   0.81547   0.00000  Uiso   1.00
O915   O     0.50000   0.87155   0.81547   0.00000  Uiso   1.00
O916   O     0.50000   0.79511   0.68453   0.00000  Uiso   1.00
Zn917  Zn    0.50000   0.88437   0.75000   0.00000  Uiso   1.00
Zn918  Zn    0.50000   0.78229   0.75000   0.00000  Uiso   1.00
C919   C     0.75342   0.83332   0.75021   0.00000  Uiso   1.00
C920   C     0.97871   0.87405   0.74958   0.00000  Uiso   1.00
C921   C     0.97870   0.79250   0.74971   0.00000  Uiso   1.00
C922   C     0.68795   0.87405   0.75042   0.00000  Uiso   1.00
C923   C     0.82034   0.87034   0.54619   0.00000  Uiso   1.00
C924   C     0.82002   0.79405   0.95185   0.00000  Uiso   1.00
C925   C     0.84632   0.87034   0.95381   0.00000  Uiso   1.00
C926   C     0.84663   0.79405   0.54815   0.00000  Uiso   1.00
C927   C     0.82135   0.87106   0.59207   0.00000  Uiso   1.00
C928   C     0.82009   0.79439   0.90588   0.00000  Uiso   1.00
C929   C     0.84531   0.87106   0.90793   0.00000  Uiso   1.00
C930   C     0.91325   0.83332   0.74979   0.00000  Uiso   1.00
C931   C     0.84656   0.79439   0.59411   0.00000  Uiso   1.00
C932   C     0.83394   0.83297   0.61613   0.00000  Uiso   1.00
C933   C     0.83272   0.83297   0.88387   0.00000  Uiso   1.00
C934   C     0.83330   0.83199   0.52409   0.00000  Uiso   1.00
C935   C     0.83335   0.83199   0.97591   0.00000  Uiso   1.00
C936   C     0.95746   0.83329   0.74956   0.00000  Uiso   1.00
C937   C     0.70920   0.83329   0.75044   0.00000  Uiso   1.00
C938   C     0.83357   0.83328   0.66406   0.00000  Uiso   1.00
C939   C     0.83310   0.83328   0.83594   0.00000  Uiso   1.00
C940   C     0.86002   0.69060   0.77843   0.00000  Uiso   1.00
C941   C     0.80629   0.97616   0.72196   0.00000  Uiso   1.00
C942   C     0.80664   0.69060   0.72157   0.00000  Uiso   1.00
C943   C     0.86037   0.97616   0.77805   0.00000  Uiso   1.00
C944   C     0.68796   0.79250   0.75029   0.00000  Uiso   1.00
H945   H     0.80927   0.89969   0.52804   0.00000  Uiso   1.00
H946   H     0.96266   0.90590   0.74899   0.00000  Uiso   1.00
H947   H     0.96262   0.76066   0.74938   0.00000  Uiso   1.00
H948   H     0.70400   0.90590   0.75101   0.00000  Uiso   1.00
H949   H     0.80918   0.76444   0.96850   0.00000  Uiso   1.00
H950   H     0.85739   0.89969   0.97196   0.00000  Uiso   1.00
H951   H     0.85747   0.76444   0.53150   0.00000  Uiso   1.00
H952   H     0.81183   0.90121   0.60848   0.00000  Uiso   1.00
H953   H     0.80978   0.76480   0.88763   0.00000  Uiso   1.00
H954   H     0.85484   0.90121   0.89152   0.00000  Uiso   1.00
H955   H     0.85688   0.76480   0.61237   0.00000  Uiso   1.00
H956   H     0.70404   0.76066   0.75062   0.00000  Uiso   1.00
I957   I     0.90156   0.72519   0.82443   0.00000  Uiso   1.00
I958   I     0.76249   0.94201   0.67830   0.00000  Uiso   1.00
I959   I     0.76510   0.72519   0.67557   0.00000  Uiso   1.00
I960   I     0.90417   0.94201   0.82170   0.00000  Uiso   1.00
N961   N     0.83333   0.95240   0.75000   0.00000  Uiso   1.00
N962   N     0.83333   0.71427   0.75000   0.00000  Uiso   1.00
O963   O     0.77226   0.87154   0.75000   0.00000  Uiso   1.00
O964   O     0.89441   0.79513   0.75001   0.00000  Uiso   1.00
O965   O     0.89441   0.87154   0.75001   0.00000  Uiso   1.00
O966   O     0.77226   0.79513   0.75000   0.00000  Uiso   1.00
O967   O     0.83333   0.87155   0.68453   0.00000  Uiso   1.00
O968   O     0.83334   0.79511   0.81547   0.00000  Uiso   1.00
O969   O     0.83334   0.87155   0.81547   0.00000  Uiso   1.00
O970   O     0.83333   0.79511   0.68453   0.00000  Uiso   1.00
Zn971  Zn    0.83333   0.88437   0.75000   0.00000  Uiso   1.00
Zn972  Zn    0.83333   0.78229   0.75000   0.00000  Uiso   1.00
loop_
_geom_bond_atom_site_label_1
_geom_bond_atom_site_label_2
_geom_bond_distance
_geom_bond_site_symmetry_2
_ccdc_geom_bond_type
C1     O48     1.293   .     A
C1     O45     1.293   .     A
C1     C19     1.423   .     S
C2     C18     1.397   .     A
C2     H28     1.082   .     S
C2     C58     1.369   .     S
C3     H29     1.083   .     S
C3     C18     1.397   .     A
C3     C80     1.369   .     S
C4     H30     1.082   .     S
C4     C19     1.397   .     A
C4     C110    1.369   1_455 S
C5     C9      1.378   .     A
C5     C16     1.400   .     A
C5     H27     1.083   .     S
C6     C10     1.382   .     A
C6     H31     1.083   .     S
C6     C17     1.400   .     A
C7     C11     1.378   .     A
C7     H32     1.083   .     S
C7     C17     1.400   .     A
C8     C13     1.382   .     A
C8     C16     1.400   .     A
C8     H33     1.083   .     S
C9     C14     1.397   .     A
C9     H34     1.079   .     S
C10    H35     1.084   .     S
C10    C15     1.400   .     A
C11    C15     1.397   .     A
C11    H36     1.079   .     S
C12    O47     1.293   .     A
C12    O46     1.293   .     A
C12    C18     1.423   .     S
C13    H37     1.083   .     S
C13    C14     1.400   .     A
C14    C20     1.441   .     S
C15    C21     1.441   .     S
C16    C503    1.448   1_554 S
C17    C502    1.448   .     S
C19    C26     1.397   .     A
C20    O49     1.299   .     A
C20    O52     1.296   .     A
C21    O50     1.296   .     A
C21    O51     1.299   .     A
C22    I39     2.138   .     S
C22    N44     1.375   .     A
C22    C349    1.428   1_545 S
C23    I40     2.134   .     S
C23    N43     1.376   .     A
C23    C186    1.428   .     S
C24    I41     2.138   .     S
C24    N44     1.375   .     A
C24    C347    1.428   1_545 S
C25    I42     2.134   .     S
C25    N43     1.376   .     A
C25    C184    1.428   .     S
C26    H38     1.083   .     S
C26    C111    1.369   1_455 S
N43    Zn53    2.033   .     S
N44    Zn54    2.033   .     S
O45    Zn53    2.002   .     S
O46    Zn54    2.002   .     S
O47    Zn53    2.002   .     S
O48    Zn54    2.002   .     S
O49    Zn53    2.005   .     S
O50    Zn54    2.005   .     S
O51    Zn53    2.005   .     S
O52    Zn54    2.005   .     S
C55    O102    1.293   .     A
C55    O99     1.293   .     A
C55    C73     1.423   .     S
C56    C72     1.397   .     A
C56    H82     1.082   .     S
C56    C112    1.369   .     S
C57    H83     1.083   .     S
C57    C72     1.397   .     A
C57    C134    1.369   .     S
C58    H84     1.082   .     S
C58    C73     1.397   .     A
C59    C63     1.378   .     A
C59    C70     1.400   .     A
C59    H81     1.083   .     S
C60    C64     1.382   .     A
C60    H85     1.083   .     S
C60    C71     1.400   .     A
C61    C65     1.378   .     A
C61    H86     1.083   .     S
C61    C71     1.400   .     A
C62    C67     1.382   .     A
C62    C70     1.400   .     A
C62    H87     1.083   .     S
C63    C68     1.397   .     A
C63    H88     1.079   .     S
C64    H89     1.084   .     S
C64    C69     1.400   .     A
C65    C69     1.397   .     A
C65    H90     1.079   .     S
C66    O101    1.293   .     A
C66    O100    1.293   .     A
C66    C72     1.423   .     S
C67    H91     1.083   .     S
C67    C68     1.400   .     A
C68    C74     1.441   .     S
C69    C75     1.441   .     S
C70    C557    1.448   1_554 S
C71    C556    1.448   .     S
C73    C80     1.397   .     A
C74    O103    1.299   .     A
C74    O106    1.296   .     A
C75    O104    1.296   .     A
C75    O105    1.299   .     A
C76    I93     2.138   .     S
C76    N98     1.375   .     A
C76    C403    1.428   1_545 S
C77    I94     2.134   .     S
C77    N97     1.376   .     A
C77    C240    1.428   .     S
C78    I95     2.138   .     S
C78    N98     1.375   .     A
C78    C401    1.428   1_545 S
C79    I96     2.134   .     S
C79    N97     1.376   .     A
C79    C238    1.428   .     S
C80    H92     1.083   .     S
N97    Zn107   2.033   .     S
N98    Zn108   2.033   .     S
O99    Zn107   2.002   .     S
O100   Zn108   2.002   .     S
O101   Zn107   2.002   .     S
O102   Zn108   2.002   .     S
O103   Zn107   2.005   .     S
O104   Zn108   2.005   .     S
O105   Zn107   2.005   .     S
O106   Zn108   2.005   .     S
C109   O156    1.293   .     A
C109   O153    1.293   .     A
C109   C127    1.423   .     S
C110   C126    1.397   .     A
C110   H136    1.082   .     S
C110   C4      1.369   1_655 S
C111   H137    1.083   .     S
C111   C126    1.397   .     A
C111   C26     1.369   1_655 S
C112   H138    1.082   .     S
C112   C127    1.397   .     A
C113   C117    1.378   .     A
C113   C124    1.400   .     A
C113   H135    1.083   .     S
C114   C118    1.382   .     A
C114   H139    1.083   .     S
C114   C125    1.400   .     A
C115   C119    1.378   .     A
C115   H140    1.083   .     S
C115   C125    1.400   .     A
C116   C121    1.382   .     A
C116   C124    1.400   .     A
C116   H141    1.083   .     S
C117   C122    1.397   .     A
C117   H142    1.079   .     S
C118   H143    1.084   .     S
C118   C123    1.400   .     A
C119   C123    1.397   .     A
C119   H144    1.079   .     S
C120   O155    1.293   .     A
C120   O154    1.293   .     A
C120   C126    1.423   .     S
C121   H145    1.083   .     S
C121   C122    1.400   .     A
C122   C128    1.441   .     S
C123   C129    1.441   .     S
C124   C611    1.448   1_554 S
C125   C610    1.448   .     S
C127   C134    1.397   .     A
C128   O157    1.299   .     A
C128   O160    1.296   .     A
C129   O158    1.296   .     A
C129   O159    1.299   .     A
C130   I147    2.138   .     S
C130   N152    1.375   .     A
C130   C457    1.428   1_545 S
C131   I148    2.134   .     S
C131   N151    1.376   .     A
C131   C294    1.428   .     S
C132   I149    2.138   .     S
C132   N152    1.375   .     A
C132   C455    1.428   1_545 S
C133   I150    2.134   .     S
C133   N151    1.376   .     A
C133   C292    1.428   .     S
C134   H146    1.083   .     S
N151   Zn161   2.033   .     S
N152   Zn162   2.033   .     S
O153   Zn161   2.002   .     S
O154   Zn162   2.002   .     S
O155   Zn161   2.002   .     S
O156   Zn162   2.002   .     S
O157   Zn161   2.005   .     S
O158   Zn162   2.005   .     S
O159   Zn161   2.005   .     S
O160   Zn162   2.005   .     S
C163   O210    1.293   .     A
C163   O207    1.293   .     A
C163   C181    1.423   .     S
C164   C180    1.397   .     A
C164   H190    1.082   .     S
C164   C220    1.369   .     S
C165   H191    1.083   .     S
C165   C180    1.397   .     A
C165   C242    1.369   .     S
C166   H192    1.082   .     S
C166   C181    1.397   .     A
C166   C272    1.369   1_455 S
C167   C171    1.378   .     A
C167   C178    1.400   .     A
C167   H189    1.083   .     S
C168   C172    1.382   .     A
C168   H193    1.083   .     S
C168   C179    1.400   .     A
C169   C173    1.378   .     A
C169   H194    1.083   .     S
C169   C179    1.400   .     A
C170   C175    1.382   .     A
C170   C178    1.400   .     A
C170   H195    1.083   .     S
C171   C176    1.397   .     A
C171   H196    1.079   .     S
C172   H197    1.084   .     S
C172   C177    1.400   .     A
C173   C177    1.397   .     A
C173   H198    1.079   .     S
C174   O209    1.293   .     A
C174   O208    1.293   .     A
C174   C180    1.423   .     S
C175   H199    1.083   .     S
C175   C176    1.400   .     A
C176   C182    1.441   .     S
C177   C183    1.441   .     S
C178   C665    1.448   1_554 S
C179   C664    1.448   .     S
C181   C188    1.397   .     A
C182   O211    1.299   .     A
C182   O214    1.296   .     A
C183   O212    1.296   .     A
C183   O213    1.299   .     A
C184   I201    2.138   .     S
C184   N206    1.375   .     A
C185   I202    2.134   .     S
C185   N205    1.376   .     A
C185   C348    1.428   .     S
C186   I203    2.138   .     S
C186   N206    1.375   .     A
C187   I204    2.134   .     S
C187   N205    1.376   .     A
C187   C346    1.428   .     S
C188   H200    1.083   .     S
C188   C273    1.369   1_455 S
N205   Zn215   2.033   .     S
N206   Zn216   2.033   .     S
O207   Zn215   2.002   .     S
O208   Zn216   2.002   .     S
O209   Zn215   2.002   .     S
O210   Zn216   2.002   .     S
O211   Zn215   2.005   .     S
O212   Zn216   2.005   .     S
O213   Zn215   2.005   .     S
O214   Zn216   2.005   .     S
C217   O264    1.293   .     A
C217   O261    1.293   .     A
C217   C235    1.423   .     S
C218   C234    1.397   .     A
C218   H244    1.082   .     S
C218   C274    1.369   .     S
C219   H245    1.083   .     S
C219   C234    1.397   .     A
C219   C296    1.369   .     S
C220   H246    1.082   .     S
C220   C235    1.397   .     A
C221   C225    1.378   .     A
C221   C232    1.400   .     A
C221   H243    1.083   .     S
C222   C226    1.382   .     A
C222   H247    1.083   .     S
C222   C233    1.400   .     A
C223   C227    1.378   .     A
C223   H248    1.083   .     S
C223   C233    1.400   .     A
C224   C229    1.382   .     A
C224   C232    1.400   .     A
C224   H249    1.083   .     S
C225   C230    1.397   .     A
C225   H250    1.079   .     S
C226   H251    1.084   .     S
C226   C231    1.400   .     A
C227   C231    1.397   .     A
C227   H252    1.079   .     S
C228   O263    1.293   .     A
C228   O262    1.293   .     A
C228   C234    1.423   .     S
C229   H253    1.083   .     S
C229   C230    1.400   .     A
C230   C236    1.441   .     S
C231   C237    1.441   .     S
C232   C719    1.448   1_554 S
C233   C718    1.448   .     S
C235   C242    1.397   .     A
C236   O265    1.299   .     A
C236   O268    1.296   .     A
C237   O266    1.296   .     A
C237   O267    1.299   .     A
C238   I255    2.138   .     S
C238   N260    1.375   .     A
C239   I256    2.134   .     S
C239   N259    1.376   .     A
C239   C402    1.428   .     S
C240   I257    2.138   .     S
C240   N260    1.375   .     A
C241   I258    2.134   .     S
C241   N259    1.376   .     A
C241   C400    1.428   .     S
C242   H254    1.083   .     S
N259   Zn269   2.033   .     S
N260   Zn270   2.033   .     S
O261   Zn269   2.002   .     S
O262   Zn270   2.002   .     S
O263   Zn269   2.002   .     S
O264   Zn270   2.002   .     S
O265   Zn269   2.005   .     S
O266   Zn270   2.005   .     S
O267   Zn269   2.005   .     S
O268   Zn270   2.005   .     S
C271   O318    1.293   .     A
C271   O315    1.293   .     A
C271   C289    1.423   .     S
C272   C288    1.397   .     A
C272   H298    1.082   .     S
C272   C166    1.369   1_655 S
C273   H299    1.083   .     S
C273   C288    1.397   .     A
C273   C188    1.369   1_655 S
C274   H300    1.082   .     S
C274   C289    1.397   .     A
C275   C279    1.378   .     A
C275   C286    1.400   .     A
C275   H297    1.083   .     S
C276   C280    1.382   .     A
C276   H301    1.083   .     S
C276   C287    1.400   .     A
C277   C281    1.378   .     A
C277   H302    1.083   .     S
C277   C287    1.400   .     A
C278   C283    1.382   .     A
C278   C286    1.400   .     A
C278   H303    1.083   .     S
C279   C284    1.397   .     A
C279   H304    1.079   .     S
C280   H305    1.084   .     S
C280   C285    1.400   .     A
C281   C285    1.397   .     A
C281   H306    1.079   .     S
C282   O317    1.293   .     A
C282   O316    1.293   .     A
C282   C288    1.423   .     S
C283   H307    1.083   .     S
C283   C284    1.400   .     A
C284   C290    1.441   .     S
C285   C291    1.441   .     S
C286   C773    1.448   1_554 S
C287   C772    1.448   .     S
C289   C296    1.397   .     A
C290   O319    1.299   .     A
C290   O322    1.296   .     A
C291   O320    1.296   .     A
C291   O321    1.299   .     A
C292   I309    2.138   .     S
C292   N314    1.375   .     A
C293   I310    2.134   .     S
C293   N313    1.376   .     A
C293   C456    1.428   .     S
C294   I311    2.138   .     S
C294   N314    1.375   .     A
C295   I312    2.134   .     S
C295   N313    1.376   .     A
C295   C454    1.428   .     S
C296   H308    1.083   .     S
N313   Zn323   2.033   .     S
N314   Zn324   2.033   .     S
O315   Zn323   2.002   .     S
O316   Zn324   2.002   .     S
O317   Zn323   2.002   .     S
O318   Zn324   2.002   .     S
O319   Zn323   2.005   .     S
O320   Zn324   2.005   .     S
O321   Zn323   2.005   .     S
O322   Zn324   2.005   .     S
C325   O372    1.293   .     A
C325   O369    1.293   .     A
C325   C343    1.423   .     S
C326   C342    1.397   .     A
C326   H352    1.082   .     S
C326   C382    1.369   .     S
C327   H353    1.083   .     S
C327   C342    1.397   .     A
C327   C404    1.369   .     S
C328   H354    1.082   .     S
C328   C343    1.397   .     A
C328   C434    1.369   1_455 S
C329   C333    1.378   .     A
C329   C340    1.400   .     A
C329   H351    1.083   .     S
C330   C334    1.382   .     A
C330   H355    1.083   .     S
C330   C341    1.400   .     A
C331   C335    1.378   .     A
C331   H356    1.083   .     S
C331   C341    1.400   .     A
C332   C337    1.382   .     A
C332   C340    1.400   .     A
C332   H357    1.083   .     S
C333   C338    1.397   .     A
C333   H358    1.079   .     S
C334   H359    1.084   .     S
C334   C339    1.400   .     A
C335   C339    1.397   .     A
C335   H360    1.079   .     S
C336   O371    1.293   .     A
C336   O370    1.293   .     A
C336   C342    1.423   .     S
C337   H361    1.083   .     S
C337   C338    1.400   .     A
C338   C344    1.441   .     S
C339   C345    1.441   .     S
C340   C827    1.448   1_554 S
C341   C826    1.448   .     S
C343   C350    1.397   .     A
C344   O373    1.299   .     A
C344   O376    1.296   .     A
C345   O374    1.296   .     A
C345   O375    1.299   .     A
C346   I363    2.138   .     S
C346   N368    1.375   .     A
C347   I364    2.134   .     S
C347   N367    1.376   .     A
C347   C24     1.428   1_565 S
C348   I365    2.138   .     S
C348   N368    1.375   .     A
C349   I366    2.134   .     S
C349   N367    1.376   .     A
C349   C22     1.428   1_565 S
C350   H362    1.083   .     S
C350   C435    1.369   1_455 S
N367   Zn377   2.033   .     S
N368   Zn378   2.033   .     S
O369   Zn377   2.002   .     S
O370   Zn378   2.002   .     S
O371   Zn377   2.002   .     S
O372   Zn378   2.002   .     S
O373   Zn377   2.005   .     S
O374   Zn378   2.005   .     S
O375   Zn377   2.005   .     S
O376   Zn378   2.005   .     S
C379   O426    1.293   .     A
C379   O423    1.293   .     A
C379   C397    1.423   .     S
C380   C396    1.397   .     A
C380   H406    1.082   .     S
C380   C436    1.369   .     S
C381   H407    1.083   .     S
C381   C396    1.397   .     A
C381   C458    1.369   .     S
C382   H408    1.082   .     S
C382   C397    1.397   .     A
C383   C387    1.378   .     A
C383   C394    1.400   .     A
C383   H405    1.083   .     S
C384   C388    1.382   .     A
C384   H409    1.083   .     S
C384   C395    1.400   .     A
C385   C389    1.378   .     A
C385   H410    1.083   .     S
C385   C395    1.400   .     A
C386   C391    1.382   .     A
C386   C394    1.400   .     A
C386   H411    1.083   .     S
C387   C392    1.397   .     A
C387   H412    1.079   .     S
C388   H413    1.084   .     S
C388   C393    1.400   .     A
C389   C393    1.397   .     A
C389   H414    1.079   .     S
C390   O425    1.293   .     A
C390   O424    1.293   .     A
C390   C396    1.423   .     S
C391   H415    1.083   .     S
C391   C392    1.400   .     A
C392   C398    1.441   .     S
C393   C399    1.441   .     S
C394   C881    1.448   1_554 S
C395   C880    1.448   .     S
C397   C404    1.397   .     A
C398   O427    1.299   .     A
C398   O430    1.296   .     A
C399   O428    1.296   .     A
C399   O429    1.299   .     A
C400   I417    2.138   .     S
C400   N422    1.375   .     A
C401   I418    2.134   .     S
C401   N421    1.376   .     A
C401   C78     1.428   1_565 S
C402   I419    2.138   .     S
C402   N422    1.375   .     A
C403   I420    2.134   .     S
C403   N421    1.376   .     A
C403   C76     1.428   1_565 S
C404   H416    1.083   .     S
N421   Zn431   2.033   .     S
N422   Zn432   2.033   .     S
O423   Zn431   2.002   .     S
O424   Zn432   2.002   .     S
O425   Zn431   2.002   .     S
O426   Zn432   2.002   .     S
O427   Zn431   2.005   .     S
O428   Zn432   2.005   .     S
O429   Zn431   2.005   .     S
O430   Zn432   2.005   .     S
C433   O480    1.293   .     A
C433   O477    1.293   .     A
C433   C451    1.423   .     S
C434   C450    1.397   .     A
C434   H460    1.082   .     S
C434   C328    1.369   1_655 S
C435   H461    1.083   .     S
C435   C450    1.397   .     A
C435   C350    1.369   1_655 S
C436   H462    1.082   .     S
C436   C451    1.397   .     A
C437   C441    1.378   .     A
C437   C448    1.400   .     A
C437   H459    1.083   .     S
C438   C442    1.382   .     A
C438   H463    1.083   .     S
C438   C449    1.400   .     A
C439   C443    1.378   .     A
C439   H464    1.083   .     S
C439   C449    1.400   .     A
C440   C445    1.382   .     A
C440   C448    1.400   .     A
C440   H465    1.083   .     S
C441   C446    1.397   .     A
C441   H466    1.079   .     S
C442   H467    1.084   .     S
C442   C447    1.400   .     A
C443   C447    1.397   .     A
C443   H468    1.079   .     S
C444   O479    1.293   .     A
C444   O478    1.293   .     A
C444   C450    1.423   .     S
C445   H469    1.083   .     S
C445   C446    1.400   .     A
C446   C452    1.441   .     S
C447   C453    1.441   .     S
C448   C935    1.448   1_554 S
C449   C934    1.448   .     S
C451   C458    1.397   .     A
C452   O481    1.299   .     A
C452   O484    1.296   .     A
C453   O482    1.296   .     A
C453   O483    1.299   .     A
C454   I471    2.138   .     S
C454   N476    1.375   .     A
C455   I472    2.134   .     S
C455   N475    1.376   .     A
C455   C132    1.428   1_565 S
C456   I473    2.138   .     S
C456   N476    1.375   .     A
C457   I474    2.134   .     S
C457   N475    1.376   .     A
C457   C130    1.428   1_565 S
C458   H470    1.083   .     S
N475   Zn485   2.033   .     S
N476   Zn486   2.033   .     S
O477   Zn485   2.002   .     S
O478   Zn486   2.002   .     S
O479   Zn485   2.002   .     S
O480   Zn486   2.002   .     S
O481   Zn485   2.005   .     S
O482   Zn486   2.005   .     S
O483   Zn485   2.005   .     S
O484   Zn486   2.005   .     S
C487   O534    1.293   .     A
C487   O531    1.293   .     A
C487   C505    1.423   .     S
C488   C504    1.397   .     A
C488   H514    1.082   .     S
C488   C544    1.369   .     S
C489   H515    1.083   .     S
C489   C504    1.397   .     A
C489   C566    1.369   .     S
C490   H516    1.082   .     S
C490   C505    1.397   .     A
C490   C596    1.369   1_455 S
C491   C495    1.378   .     A
C491   C502    1.400   .     A
C491   H513    1.083   .     S
C492   C496    1.382   .     A
C492   H517    1.083   .     S
C492   C503    1.400   .     A
C493   C497    1.378   .     A
C493   H518    1.083   .     S
C493   C503    1.400   .     A
C494   C499    1.382   .     A
C494   C502    1.400   .     A
C494   H519    1.083   .     S
C495   C500    1.397   .     A
C495   H520    1.079   .     S
C496   H521    1.084   .     S
C496   C501    1.400   .     A
C497   C501    1.397   .     A
C497   H522    1.079   .     S
C498   O533    1.293   .     A
C498   O532    1.293   .     A
C498   C504    1.423   .     S
C499   H523    1.083   .     S
C499   C500    1.400   .     A
C500   C506    1.441   .     S
C501   C507    1.441   .     S
C503   C16     1.448   1_556 S
C505   C512    1.397   .     A
C506   O535    1.299   .     A
C506   O538    1.296   .     A
C507   O536    1.296   .     A
C507   O537    1.299   .     A
C508   I525    2.138   .     S
C508   N530    1.375   .     A
C508   C835    1.428   1_545 S
C509   I526    2.134   .     S
C509   N529    1.376   .     A
C509   C672    1.428   .     S
C510   I527    2.138   .     S
C510   N530    1.375   .     A
C510   C833    1.428   1_545 S
C511   I528    2.134   .     S
C511   N529    1.376   .     A
C511   C670    1.428   .     S
C512   H524    1.083   .     S
C512   C597    1.369   1_455 S
N529   Zn539   2.033   .     S
N530   Zn540   2.033   .     S
O531   Zn539   2.002   .     S
O532   Zn540   2.002   .     S
O533   Zn539   2.002   .     S
O534   Zn540   2.002   .     S
O535   Zn539   2.005   .     S
O536   Zn540   2.005   .     S
O537   Zn539   2.005   .     S
O538   Zn540   2.005   .     S
C541   O588    1.293   .     A
C541   O585    1.293   .     A
C541   C559    1.423   .     S
C542   C558    1.397   .     A
C542   H568    1.082   .     S
C542   C598    1.369   .     S
C543   H569    1.083   .     S
C543   C558    1.397   .     A
C543   C620    1.369   .     S
C544   H570    1.082   .     S
C544   C559    1.397   .     A
C545   C549    1.378   .     A
C545   C556    1.400   .     A
C545   H567    1.083   .     S
C546   C550    1.382   .     A
C546   H571    1.083   .     S
C546   C557    1.400   .     A
C547   C551    1.378   .     A
C547   H572    1.083   .     S
C547   C557    1.400   .     A
C548   C553    1.382   .     A
C548   C556    1.400   .     A
C548   H573    1.083   .     S
C549   C554    1.397   .     A
C549   H574    1.079   .     S
C550   H575    1.084   .     S
C550   C555    1.400   .     A
C551   C555    1.397   .     A
C551   H576    1.079   .     S
C552   O587    1.293   .     A
C552   O586    1.293   .     A
C552   C558    1.423   .     S
C553   H577    1.083   .     S
C553   C554    1.400   .     A
C554   C560    1.441   .     S
C555   C561    1.441   .     S
C557   C70     1.448   1_556 S
C559   C566    1.397   .     A
C560   O589    1.299   .     A
C560   O592    1.296   .     A
C561   O590    1.296   .     A
C561   O591    1.299   .     A
C562   I579    2.138   .     S
C562   N584    1.375   .     A
C562   C889    1.428   1_545 S
C563   I580    2.134   .     S
C563   N583    1.376   .     A
C563   C726    1.428   .     S
C564   I581    2.138   .     S
C564   N584    1.375   .     A
C564   C887    1.428   1_545 S
C565   I582    2.134   .     S
C565   N583    1.376   .     A
C565   C724    1.428   .     S
C566   H578    1.083   .     S
N583   Zn593   2.033   .     S
N584   Zn594   2.033   .     S
O585   Zn593   2.002   .     S
O586   Zn594   2.002   .     S
O587   Zn593   2.002   .     S
O588   Zn594   2.002   .     S
O589   Zn593   2.005   .     S
O590   Zn594   2.005   .     S
O591   Zn593   2.005   .     S
O592   Zn594   2.005   .     S
C595   O642    1.293   .     A
C595   O639    1.293   .     A
C595   C613    1.423   .     S
C596   C612    1.397   .     A
C596   H622    1.082   .     S
C596   C490    1.369   1_655 S
C597   H623    1.083   .     S
C597   C612    1.397   .     A
C597   C512    1.369   1_655 S
C598   H624    1.082   .     S
C598   C613    1.397   .     A
C599   C603    1.378   .     A
C599   C610    1.400   .     A
C599   H621    1.083   .     S
C600   C604    1.382   .     A
C600   H625    1.083   .     S
C600   C611    1.400   .     A
C601   C605    1.378   .     A
C601   H626    1.083   .     S
C601   C611    1.400   .     A
C602   C607    1.382   .     A
C602   C610    1.400   .     A
C602   H627    1.083   .     S
C603   C608    1.397   .     A
C603   H628    1.079   .     S
C604   H629    1.084   .     S
C604   C609    1.400   .     A
C605   C609    1.397   .     A
C605   H630    1.079   .     S
C606   O641    1.293   .     A
C606   O640    1.293   .     A
C606   C612    1.423   .     S
C607   H631    1.083   .     S
C607   C608    1.400   .     A
C608   C614    1.441   .     S
C609   C615    1.441   .     S
C611   C124    1.448   1_556 S
C613   C620    1.397   .     A
C614   O643    1.299   .     A
C614   O646    1.296   .     A
C615   O644    1.296   .     A
C615   O645    1.299   .     A
C616   I633    2.138   .     S
C616   N638    1.375   .     A
C616   C943    1.428   1_545 S
C617   I634    2.134   .     S
C617   N637    1.376   .     A
C617   C780    1.428   .     S
C618   I635    2.138   .     S
C618   N638    1.375   .     A
C618   C941    1.428   1_545 S
C619   I636    2.134   .     S
C619   N637    1.376   .     A
C619   C778    1.428   .     S
C620   H632    1.083   .     S
N637   Zn647   2.033   .     S
N638   Zn648   2.033   .     S
O639   Zn647   2.002   .     S
O640   Zn648   2.002   .     S
O641   Zn647   2.002   .     S
O642   Zn648   2.002   .     S
O643   Zn647   2.005   .     S
O644   Zn648   2.005   .     S
O645   Zn647   2.005   .     S
O646   Zn648   2.005   .     S
C649   O696    1.293   .     A
C649   O693    1.293   .     A
C649   C667    1.423   .     S
C650   C666    1.397   .     A
C650   H676    1.082   .     S
C650   C706    1.369   .     S
C651   H677    1.083   .     S
C651   C666    1.397   .     A
C651   C728    1.369   .     S
C652   H678    1.082   .     S
C652   C667    1.397   .     A
C652   C758    1.369   1_455 S
C653   C657    1.378   .     A
C653   C664    1.400   .     A
C653   H675    1.083   .     S
C654   C658    1.382   .     A
C654   H679    1.083   .     S
C654   C665    1.400   .     A
C655   C659    1.378   .     A
C655   H680    1.083   .     S
C655   C665    1.400   .     A
C656   C661    1.382   .     A
C656   C664    1.400   .     A
C656   H681    1.083   .     S
C657   C662    1.397   .     A
C657   H682    1.079   .     S
C658   H683    1.084   .     S
C658   C663    1.400   .     A
C659   C663    1.397   .     A
C659   H684    1.079   .     S
C660   O695    1.293   .     A
C660   O694    1.293   .     A
C660   C666    1.423   .     S
C661   H685    1.083   .     S
C661   C662    1.400   .     A
C662   C668    1.441   .     S
C663   C669    1.441   .     S
C665   C178    1.448   1_556 S
C667   C674    1.397   .     A
C668   O697    1.299   .     A
C668   O700    1.296   .     A
C669   O698    1.296   .     A
C669   O699    1.299   .     A
C670   I687    2.138   .     S
C670   N692    1.375   .     A
C671   I688    2.134   .     S
C671   N691    1.376   .     A
C671   C834    1.428   .     S
C672   I689    2.138   .     S
C672   N692    1.375   .     A
C673   I690    2.134   .     S
C673   N691    1.376   .     A
C673   C832    1.428   .     S
C674   H686    1.083   .     S
C674   C759    1.369   1_455 S
N691   Zn701   2.033   .     S
N692   Zn702   2.033   .     S
O693   Zn701   2.002   .     S
O694   Zn702   2.002   .     S
O695   Zn701   2.002   .     S
O696   Zn702   2.002   .     S
O697   Zn701   2.005   .     S
O698   Zn702   2.005   .     S
O699   Zn701   2.005   .     S
O700   Zn702   2.005   .     S
C703   O750    1.293   .     A
C703   O747    1.293   .     A
C703   C721    1.423   .     S
C704   C720    1.397   .     A
C704   H730    1.082   .     S
C704   C760    1.369   .     S
C705   H731    1.083   .     S
C705   C720    1.397   .     A
C705   C782    1.369   .     S
C706   H732    1.082   .     S
C706   C721    1.397   .     A
C707   C711    1.378   .     A
C707   C718    1.400   .     A
C707   H729    1.083   .     S
C708   C712    1.382   .     A
C708   H733    1.083   .     S
C708   C719    1.400   .     A
C709   C713    1.378   .     A
C709   H734    1.083   .     S
C709   C719    1.400   .     A
C710   C715    1.382   .     A
C710   C718    1.400   .     A
C710   H735    1.083   .     S
C711   C716    1.397   .     A
C711   H736    1.079   .     S
C712   H737    1.084   .     S
C712   C717    1.400   .     A
C713   C717    1.397   .     A
C713   H738    1.079   .     S
C714   O749    1.293   .     A
C714   O748    1.293   .     A
C714   C720    1.423   .     S
C715   H739    1.083   .     S
C715   C716    1.400   .     A
C716   C722    1.441   .     S
C717   C723    1.441   .     S
C719   C232    1.448   1_556 S
C721   C728    1.397   .     A
C722   O751    1.299   .     A
C722   O754    1.296   .     A
C723   O752    1.296   .     A
C723   O753    1.299   .     A
C724   I741    2.138   .     S
C724   N746    1.375   .     A
C725   I742    2.134   .     S
C725   N745    1.376   .     A
C725   C888    1.428   .     S
C726   I743    2.138   .     S
C726   N746    1.375   .     A
C727   I744    2.134   .     S
C727   N745    1.376   .     A
C727   C886    1.428   .     S
C728   H740    1.083   .     S
N745   Zn755   2.033   .     S
N746   Zn756   2.033   .     S
O747   Zn755   2.002   .     S
O748   Zn756   2.002   .     S
O749   Zn755   2.002   .     S
O750   Zn756   2.002   .     S
O751   Zn755   2.005   .     S
O752   Zn756   2.005   .     S
O753   Zn755   2.005   .     S
O754   Zn756   2.005   .     S
C757   O804    1.293   .     A
C757   O801    1.293   .     A
C757   C775    1.423   .     S
C758   C774    1.397   .     A
C758   H784    1.082   .     S
C758   C652    1.369   1_655 S
C759   H785    1.083   .     S
C759   C774    1.397   .     A
C759   C674    1.369   1_655 S
C760   H786    1.082   .     S
C760   C775    1.397   .     A
C761   C765    1.378   .     A
C761   C772    1.400   .     A
C761   H783    1.083   .     S
C762   C766    1.382   .     A
C762   H787    1.083   .     S
C762   C773    1.400   .     A
C763   C767    1.378   .     A
C763   H788    1.083   .     S
C763   C773    1.400   .     A
C764   C769    1.382   .     A
C764   C772    1.400   .     A
C764   H789    1.083   .     S
C765   C770    1.397   .     A
C765   H790    1.079   .     S
C766   H791    1.084   .     S
C766   C771    1.400   .     A
C767   C771    1.397   .     A
C767   H792    1.079   .     S
C768   O803    1.293   .     A
C768   O802    1.293   .     A
C768   C774    1.423   .     S
C769   H793    1.083   .     S
C769   C770    1.400   .     A
C770   C776    1.441   .     S
C771   C777    1.441   .     S
C773   C286    1.448   1_556 S
C775   C782    1.397   .     A
C776   O805    1.299   .     A
C776   O808    1.296   .     A
C777   O806    1.296   .     A
C777   O807    1.299   .     A
C778   I795    2.138   .     S
C778   N800    1.375   .     A
C779   I796    2.134   .     S
C779   N799    1.376   .     A
C779   C942    1.428   .     S
C780   I797    2.138   .     S
C780   N800    1.375   .     A
C781   I798    2.134   .     S
C781   N799    1.376   .     A
C781   C940    1.428   .     S
C782   H794    1.083   .     S
N799   Zn809   2.033   .     S
N800   Zn810   2.033   .     S
O801   Zn809   2.002   .     S
O802   Zn810   2.002   .     S
O803   Zn809   2.002   .     S
O804   Zn810   2.002   .     S
O805   Zn809   2.005   .     S
O806   Zn810   2.005   .     S
O807   Zn809   2.005   .     S
O808   Zn810   2.005   .     S
C811   O858    1.293   .     A
C811   O855    1.293   .     A
C811   C829    1.423   .     S
C812   C828    1.397   .     A
C812   H838    1.082   .     S
C812   C868    1.369   .     S
C813   H839    1.083   .     S
C813   C828    1.397   .     A
C813   C890    1.369   .     S
C814   H840    1.082   .     S
C814   C829    1.397   .     A
C814   C920    1.369   1_455 S
C815   C819    1.378   .     A
C815   C826    1.400   .     A
C815   H837    1.083   .     S
C816   C820    1.382   .     A
C816   H841    1.083   .     S
C816   C827    1.400   .     A
C817   C821    1.378   .     A
C817   H842    1.083   .     S
C817   C827    1.400   .     A
C818   C823    1.382   .     A
C818   C826    1.400   .     A
C818   H843    1.083   .     S
C819   C824    1.397   .     A
C819   H844    1.079   .     S
C820   H845    1.084   .     S
C820   C825    1.400   .     A
C821   C825    1.397   .     A
C821   H846    1.079   .     S
C822   O857    1.293   .     A
C822   O856    1.293   .     A
C822   C828    1.423   .     S
C823   H847    1.083   .     S
C823   C824    1.400   .     A
C824   C830    1.441   .     S
C825   C831    1.441   .     S
C827   C340    1.448   1_556 S
C829   C836    1.397   .     A
C830   O859    1.299   .     A
C830   O862    1.296   .     A
C831   O860    1.296   .     A
C831   O861    1.299   .     A
C832   I849    2.138   .     S
C832   N854    1.375   .     A
C833   I850    2.134   .     S
C833   N853    1.376   .     A
C833   C510    1.428   1_565 S
C834   I851    2.138   .     S
C834   N854    1.375   .     A
C835   I852    2.134   .     S
C835   N853    1.376   .     A
C835   C508    1.428   1_565 S
C836   H848    1.083   .     S
C836   C921    1.369   1_455 S
N853   Zn863   2.033   .     S
N854   Zn864   2.033   .     S
O855   Zn863   2.002   .     S
O856   Zn864   2.002   .     S
O857   Zn863   2.002   .     S
O858   Zn864   2.002   .     S
O859   Zn863   2.005   .     S
O860   Zn864   2.005   .     S
O861   Zn863   2.005   .     S
O862   Zn864   2.005   .     S
C865   O912    1.293   .     A
C865   O909    1.293   .     A
C865   C883    1.423   .     S
C866   C882    1.397   .     A
C866   H892    1.082   .     S
C866   C922    1.369   .     S
C867   H893    1.083   .     S
C867   C882    1.397   .     A
C867   C944    1.369   .     S
C868   H894    1.082   .     S
C868   C883    1.397   .     A
C869   C873    1.378   .     A
C869   C880    1.400   .     A
C869   H891    1.083   .     S
C870   C874    1.382   .     A
C870   H895    1.083   .     S
C870   C881    1.400   .     A
C871   C875    1.378   .     A
C871   H896    1.083   .     S
C871   C881    1.400   .     A
C872   C877    1.382   .     A
C872   C880    1.400   .     A
C872   H897    1.083   .     S
C873   C878    1.397   .     A
C873   H898    1.079   .     S
C874   H899    1.084   .     S
C874   C879    1.400   .     A
C875   C879    1.397   .     A
C875   H900    1.079   .     S
C876   O911    1.293   .     A
C876   O910    1.293   .     A
C876   C882    1.423   .     S
C877   H901    1.083   .     S
C877   C878    1.400   .     A
C878   C884    1.441   .     S
C879   C885    1.441   .     S
C881   C394    1.448   1_556 S
C883   C890    1.397   .     A
C884   O913    1.299   .     A
C884   O916    1.296   .     A
C885   O914    1.296   .     A
C885   O915    1.299   .     A
C886   I903    2.138   .     S
C886   N908    1.375   .     A
C887   I904    2.134   .     S
C887   N907    1.376   .     A
C887   C564    1.428   1_565 S
C888   I905    2.138   .     S
C888   N908    1.375   .     A
C889   I906    2.134   .     S
C889   N907    1.376   .     A
C889   C562    1.428   1_565 S
C890   H902    1.083   .     S
N907   Zn917   2.033   .     S
N908   Zn918   2.033   .     S
O909   Zn917   2.002   .     S
O910   Zn918   2.002   .     S
O911   Zn917   2.002   .     S
O912   Zn918   2.002   .     S
O913   Zn917   2.005   .     S
O914   Zn918   2.005   .     S
O915   Zn917   2.005   .     S
O916   Zn918   2.005   .     S
C919   O966    1.293   .     A
C919   O963    1.293   .     A
C919   C937    1.423   .     S
C920   C936    1.397   .     A
C920   H946    1.082   .     S
C920   C814    1.369   1_655 S
C921   H947    1.083   .     S
C921   C936    1.397   .     A
C921   C836    1.369   1_655 S
C922   H948    1.082   .     S
C922   C937    1.397   .     A
C923   C927    1.378   .     A
C923   C934    1.400   .     A
C923   H945    1.083   .     S
C924   C928    1.382   .     A
C924   H949    1.083   .     S
C924   C935    1.400   .     A
C925   C929    1.378   .     A
C925   H950    1.083   .     S
C925   C935    1.400   .     A
C926   C931    1.382   .     A
C926   C934    1.400   .     A
C926   H951    1.083   .     S
C927   C932    1.397   .     A
C927   H952    1.079   .     S
C928   H953    1.084   .     S
C928   C933    1.400   .     A
C929   C933    1.397   .     A
C929   H954    1.079   .     S
C930   O965    1.293   .     A
C930   O964    1.293   .     A
C930   C936    1.423   .     S
C931   H955    1.083   .     S
C931   C932    1.400   .     A
C932   C938    1.441   .     S
C933   C939    1.441   .     S
C935   C448    1.448   1_556 S
C937   C944    1.397   .     A
C938   O967    1.299   .     A
C938   O970    1.296   .     A
C939   O968    1.296   .     A
C939   O969    1.299   .     A
C940   I957    2.138   .     S
C940   N962    1.375   .     A
C941   I958    2.134   .     S
C941   N961    1.376   .     A
C941   C618    1.428   1_565 S
C942   I959    2.138   .     S
C942   N962    1.375   .     A
C943   I960    2.134   .     S
C943   N961    1.376   .     A
C943   C616    1.428   1_565 S
C944   H956    1.083   .     S
N961   Zn971   2.033   .     S
N962   Zn972   2.033   .     S
O963   Zn971   2.002   .     S
O964   Zn972   2.002   .     S
O965   Zn971   2.002   .     S
O966   Zn972   2.002   .     S
O967   Zn971   2.005   .     S
O968   Zn972   2.005   .     S
O969   Zn971   2.005   .     S
O970   Zn972   2.005   .     S
