data_str_m3_o2_o5_pcu_sym.29
_audit_creation_date              2020-01-03
_audit_creation_method            'Materials Studio'
_symmetry_space_group_name_H-M    'P1'
_symmetry_Int_Tables_number       1
_symmetry_cell_setting            triclinic
loop_
_symmetry_equiv_pos_as_xyz
  x,y,z
_cell_length_a                    30.0449
_cell_length_b                    28.3536
_cell_length_c                    26.7577
_cell_angle_alpha                 89.9993
_cell_angle_beta                  90.0303
_cell_angle_gamma                 89.9991
loop_
_atom_site_label
_atom_site_type_symbol
_atom_site_fract_x
_atom_site_fract_y
_atom_site_fract_z
_atom_site_U_iso_or_equiv
_atom_site_adp_type
_atom_site_occupancy
C1     C     0.16385   0.25000   0.16668   0.00000  Uiso   1.00
C2     C     0.21398   0.44740   0.14696   0.00000  Uiso   1.00
C3     C     0.24999   0.25000   0.07284   0.00000  Uiso   1.00
C4     C     0.25001   0.25000   0.26049   0.00000  Uiso   1.00
C5     C     0.25000   0.02670   0.16667   0.00000  Uiso   1.00
C6     C     0.25000   0.47333   0.16667   0.00000  Uiso   1.00
C7     C     0.24999   0.24999   0.02178   0.00000  Uiso   1.00
C8     C     0.25001   0.24999   0.31155   0.00000  Uiso   1.00
C9     C     0.04684   0.28848   0.18734   0.00000  Uiso   1.00
C10    C     0.45320   0.21155   0.18736   0.00000  Uiso   1.00
C11    C     0.45331   0.28860   0.14742   0.00000  Uiso   1.00
C12    C     0.33615   0.25000   0.16672   0.00000  Uiso   1.00
C13    C     0.04666   0.21150   0.14727   0.00000  Uiso   1.00
C14    C     0.09279   0.28861   0.18720   0.00000  Uiso   1.00
C15    C     0.40725   0.21142   0.18726   0.00000  Uiso   1.00
C16    C     0.40736   0.28869   0.14704   0.00000  Uiso   1.00
C17    C     0.09261   0.21141   0.14685   0.00000  Uiso   1.00
C18    C     0.11586   0.25002   0.16688   0.00000  Uiso   1.00
C19    C     0.38414   0.25002   0.16698   0.00000  Uiso   1.00
C20    C     0.02394   0.24998   0.16743   0.00000  Uiso   1.00
C21    C     0.47606   0.25007   0.16747   0.00000  Uiso   1.00
C22    C     0.22863   0.10225   0.12961   0.00000  Uiso   1.00
C23    C     0.28528   0.39778   0.18614   0.00000  Uiso   1.00
C24    C     0.27137   0.10225   0.20372   0.00000  Uiso   1.00
C25    C     0.21472   0.39778   0.14719   0.00000  Uiso   1.00
C26    C     0.22834   0.05264   0.12881   0.00000  Uiso   1.00
C27    C     0.28602   0.44740   0.18637   0.00000  Uiso   1.00
C28    C     0.27166   0.05263   0.20452   0.00000  Uiso   1.00
F29    F     0.11447   0.32585   0.20789   0.00000  Uiso   1.00
F30    F     0.38559   0.17417   0.20793   0.00000  Uiso   1.00
F31    F     0.38583   0.32595   0.12619   0.00000  Uiso   1.00
F32    F     0.11412   0.17421   0.12588   0.00000  Uiso   1.00
H33    H     0.21180   0.12162   0.10035   0.00000  Uiso   1.00
H34    H     0.31500   0.46514   0.20129   0.00000  Uiso   1.00
H35    H     0.28825   0.03489   0.23510   0.00000  Uiso   1.00
H36    H     0.18500   0.46514   0.13205   0.00000  Uiso   1.00
H37    H     0.31315   0.37847   0.20149   0.00000  Uiso   1.00
H38    H     0.28820   0.12162   0.23299   0.00000  Uiso   1.00
H39    H     0.18685   0.37847   0.13184   0.00000  Uiso   1.00
H40    H     0.02906   0.31805   0.20345   0.00000  Uiso   1.00
H41    H     0.47101   0.18195   0.20341   0.00000  Uiso   1.00
H42    H     0.47120   0.31819   0.13150   0.00000  Uiso   1.00
H43    H     0.02874   0.18194   0.13130   0.00000  Uiso   1.00
H44    H     0.21175   0.03489   0.09824   0.00000  Uiso   1.00
N45    N     0.25000   0.12624   0.16667   0.00000  Uiso   1.00
N46    N     0.25000   0.37377   0.16667   0.00000  Uiso   1.00
O47    O     0.18453   0.28974   0.16667   0.00000  Uiso   1.00
O48    O     0.31547   0.21026   0.16666   0.00000  Uiso   1.00
O49    O     0.31547   0.28974   0.16666   0.00000  Uiso   1.00
O50    O     0.18453   0.21026   0.16667   0.00000  Uiso   1.00
O51    O     0.25000   0.28973   0.09511   0.00000  Uiso   1.00
O52    O     0.25000   0.21027   0.23822   0.00000  Uiso   1.00
O53    O     0.25000   0.28973   0.23822   0.00000  Uiso   1.00
O54    O     0.25000   0.21027   0.09511   0.00000  Uiso   1.00
Zn55   Zn    0.25000   0.30307   0.16667   0.00000  Uiso   1.00
Zn56   Zn    0.25000   0.19693   0.16667   0.00000  Uiso   1.00
C57    C     0.66385   0.25000   0.16668   0.00000  Uiso   1.00
C58    C     0.71398   0.44740   0.14696   0.00000  Uiso   1.00
C59    C     0.74999   0.25000   0.07284   0.00000  Uiso   1.00
C60    C     0.75001   0.25000   0.26049   0.00000  Uiso   1.00
C61    C     0.75000   0.02670   0.16667   0.00000  Uiso   1.00
C62    C     0.75000   0.47333   0.16667   0.00000  Uiso   1.00
C63    C     0.74999   0.24999   0.02178   0.00000  Uiso   1.00
C64    C     0.75001   0.24999   0.31155   0.00000  Uiso   1.00
C65    C     0.54684   0.28848   0.18734   0.00000  Uiso   1.00
C66    C     0.95320   0.21155   0.18736   0.00000  Uiso   1.00
C67    C     0.95331   0.28860   0.14742   0.00000  Uiso   1.00
C68    C     0.83615   0.25000   0.16672   0.00000  Uiso   1.00
C69    C     0.54666   0.21150   0.14727   0.00000  Uiso   1.00
C70    C     0.59279   0.28861   0.18720   0.00000  Uiso   1.00
C71    C     0.90725   0.21142   0.18726   0.00000  Uiso   1.00
C72    C     0.90736   0.28869   0.14704   0.00000  Uiso   1.00
C73    C     0.59261   0.21141   0.14685   0.00000  Uiso   1.00
C74    C     0.61586   0.25002   0.16688   0.00000  Uiso   1.00
C75    C     0.88414   0.25002   0.16698   0.00000  Uiso   1.00
C76    C     0.52394   0.24998   0.16743   0.00000  Uiso   1.00
C77    C     0.97606   0.25007   0.16747   0.00000  Uiso   1.00
C78    C     0.72863   0.10225   0.12961   0.00000  Uiso   1.00
C79    C     0.78528   0.39778   0.18614   0.00000  Uiso   1.00
C80    C     0.77137   0.10225   0.20372   0.00000  Uiso   1.00
C81    C     0.71472   0.39778   0.14719   0.00000  Uiso   1.00
C82    C     0.72834   0.05264   0.12881   0.00000  Uiso   1.00
C83    C     0.78602   0.44740   0.18637   0.00000  Uiso   1.00
C84    C     0.77166   0.05263   0.20452   0.00000  Uiso   1.00
F85    F     0.61447   0.32585   0.20789   0.00000  Uiso   1.00
F86    F     0.88559   0.17417   0.20793   0.00000  Uiso   1.00
F87    F     0.88583   0.32595   0.12619   0.00000  Uiso   1.00
F88    F     0.61412   0.17421   0.12588   0.00000  Uiso   1.00
H89    H     0.71180   0.12162   0.10035   0.00000  Uiso   1.00
H90    H     0.81500   0.46514   0.20129   0.00000  Uiso   1.00
H91    H     0.78825   0.03489   0.23510   0.00000  Uiso   1.00
H92    H     0.68500   0.46514   0.13205   0.00000  Uiso   1.00
H93    H     0.81315   0.37847   0.20149   0.00000  Uiso   1.00
H94    H     0.78820   0.12162   0.23299   0.00000  Uiso   1.00
H95    H     0.68685   0.37847   0.13184   0.00000  Uiso   1.00
H96    H     0.52906   0.31805   0.20345   0.00000  Uiso   1.00
H97    H     0.97101   0.18195   0.20341   0.00000  Uiso   1.00
H98    H     0.97120   0.31819   0.13150   0.00000  Uiso   1.00
H99    H     0.52874   0.18194   0.13130   0.00000  Uiso   1.00
H100   H     0.71175   0.03489   0.09824   0.00000  Uiso   1.00
N101   N     0.75000   0.12624   0.16667   0.00000  Uiso   1.00
N102   N     0.75000   0.37377   0.16667   0.00000  Uiso   1.00
O103   O     0.68453   0.28974   0.16667   0.00000  Uiso   1.00
O104   O     0.81547   0.21026   0.16666   0.00000  Uiso   1.00
O105   O     0.81547   0.28974   0.16666   0.00000  Uiso   1.00
O106   O     0.68453   0.21026   0.16667   0.00000  Uiso   1.00
O107   O     0.75000   0.28973   0.09511   0.00000  Uiso   1.00
O108   O     0.75000   0.21027   0.23822   0.00000  Uiso   1.00
O109   O     0.75000   0.28973   0.23822   0.00000  Uiso   1.00
O110   O     0.75000   0.21027   0.09511   0.00000  Uiso   1.00
Zn111  Zn    0.75000   0.30307   0.16667   0.00000  Uiso   1.00
Zn112  Zn    0.75000   0.19693   0.16667   0.00000  Uiso   1.00
C113   C     0.16385   0.75000   0.16668   0.00000  Uiso   1.00
C114   C     0.21398   0.94740   0.14696   0.00000  Uiso   1.00
C115   C     0.24999   0.75000   0.07284   0.00000  Uiso   1.00
C116   C     0.25001   0.75000   0.26049   0.00000  Uiso   1.00
C117   C     0.25000   0.52670   0.16667   0.00000  Uiso   1.00
C118   C     0.25000   0.97333   0.16667   0.00000  Uiso   1.00
C119   C     0.24999   0.74999   0.02178   0.00000  Uiso   1.00
C120   C     0.25001   0.74999   0.31155   0.00000  Uiso   1.00
C121   C     0.04684   0.78848   0.18734   0.00000  Uiso   1.00
C122   C     0.45320   0.71155   0.18736   0.00000  Uiso   1.00
C123   C     0.45331   0.78860   0.14742   0.00000  Uiso   1.00
C124   C     0.33615   0.75000   0.16672   0.00000  Uiso   1.00
C125   C     0.04666   0.71150   0.14727   0.00000  Uiso   1.00
C126   C     0.09279   0.78861   0.18720   0.00000  Uiso   1.00
C127   C     0.40725   0.71142   0.18726   0.00000  Uiso   1.00
C128   C     0.40736   0.78869   0.14704   0.00000  Uiso   1.00
C129   C     0.09261   0.71141   0.14685   0.00000  Uiso   1.00
C130   C     0.11586   0.75002   0.16688   0.00000  Uiso   1.00
C131   C     0.38414   0.75002   0.16698   0.00000  Uiso   1.00
C132   C     0.02394   0.74998   0.16743   0.00000  Uiso   1.00
C133   C     0.47606   0.75007   0.16747   0.00000  Uiso   1.00
C134   C     0.22863   0.60225   0.12961   0.00000  Uiso   1.00
C135   C     0.28528   0.89778   0.18614   0.00000  Uiso   1.00
C136   C     0.27137   0.60225   0.20372   0.00000  Uiso   1.00
C137   C     0.21472   0.89778   0.14719   0.00000  Uiso   1.00
C138   C     0.22834   0.55264   0.12881   0.00000  Uiso   1.00
C139   C     0.28602   0.94740   0.18637   0.00000  Uiso   1.00
C140   C     0.27166   0.55263   0.20452   0.00000  Uiso   1.00
F141   F     0.11447   0.82585   0.20789   0.00000  Uiso   1.00
F142   F     0.38559   0.67417   0.20793   0.00000  Uiso   1.00
F143   F     0.38583   0.82595   0.12619   0.00000  Uiso   1.00
F144   F     0.11412   0.67421   0.12588   0.00000  Uiso   1.00
H145   H     0.21180   0.62162   0.10035   0.00000  Uiso   1.00
H146   H     0.31500   0.96514   0.20129   0.00000  Uiso   1.00
H147   H     0.28825   0.53489   0.23510   0.00000  Uiso   1.00
H148   H     0.18500   0.96514   0.13205   0.00000  Uiso   1.00
H149   H     0.31315   0.87847   0.20149   0.00000  Uiso   1.00
H150   H     0.28820   0.62162   0.23299   0.00000  Uiso   1.00
H151   H     0.18685   0.87847   0.13184   0.00000  Uiso   1.00
H152   H     0.02906   0.81805   0.20345   0.00000  Uiso   1.00
H153   H     0.47101   0.68195   0.20341   0.00000  Uiso   1.00
H154   H     0.47120   0.81819   0.13150   0.00000  Uiso   1.00
H155   H     0.02874   0.68194   0.13130   0.00000  Uiso   1.00
H156   H     0.21175   0.53489   0.09824   0.00000  Uiso   1.00
N157   N     0.25000   0.62624   0.16667   0.00000  Uiso   1.00
N158   N     0.25000   0.87377   0.16667   0.00000  Uiso   1.00
O159   O     0.18453   0.78974   0.16667   0.00000  Uiso   1.00
O160   O     0.31547   0.71026   0.16666   0.00000  Uiso   1.00
O161   O     0.31547   0.78974   0.16666   0.00000  Uiso   1.00
O162   O     0.18453   0.71026   0.16667   0.00000  Uiso   1.00
O163   O     0.25000   0.78973   0.09511   0.00000  Uiso   1.00
O164   O     0.25000   0.71027   0.23822   0.00000  Uiso   1.00
O165   O     0.25000   0.78973   0.23822   0.00000  Uiso   1.00
O166   O     0.25000   0.71027   0.09511   0.00000  Uiso   1.00
Zn167  Zn    0.25000   0.80307   0.16667   0.00000  Uiso   1.00
Zn168  Zn    0.25000   0.69693   0.16667   0.00000  Uiso   1.00
C169   C     0.66385   0.75000   0.16668   0.00000  Uiso   1.00
C170   C     0.71398   0.94740   0.14696   0.00000  Uiso   1.00
C171   C     0.74999   0.75000   0.07284   0.00000  Uiso   1.00
C172   C     0.75001   0.75000   0.26049   0.00000  Uiso   1.00
C173   C     0.75000   0.52670   0.16667   0.00000  Uiso   1.00
C174   C     0.75000   0.97333   0.16667   0.00000  Uiso   1.00
C175   C     0.74999   0.74999   0.02178   0.00000  Uiso   1.00
C176   C     0.75001   0.74999   0.31155   0.00000  Uiso   1.00
C177   C     0.54684   0.78848   0.18734   0.00000  Uiso   1.00
C178   C     0.95320   0.71155   0.18736   0.00000  Uiso   1.00
C179   C     0.95331   0.78860   0.14742   0.00000  Uiso   1.00
C180   C     0.83615   0.75000   0.16672   0.00000  Uiso   1.00
C181   C     0.54666   0.71150   0.14727   0.00000  Uiso   1.00
C182   C     0.59279   0.78861   0.18720   0.00000  Uiso   1.00
C183   C     0.90725   0.71142   0.18726   0.00000  Uiso   1.00
C184   C     0.90736   0.78869   0.14704   0.00000  Uiso   1.00
C185   C     0.59261   0.71141   0.14685   0.00000  Uiso   1.00
C186   C     0.61586   0.75002   0.16688   0.00000  Uiso   1.00
C187   C     0.88414   0.75002   0.16698   0.00000  Uiso   1.00
C188   C     0.52394   0.74998   0.16743   0.00000  Uiso   1.00
C189   C     0.97606   0.75007   0.16747   0.00000  Uiso   1.00
C190   C     0.72863   0.60225   0.12961   0.00000  Uiso   1.00
C191   C     0.78528   0.89778   0.18614   0.00000  Uiso   1.00
C192   C     0.77137   0.60225   0.20372   0.00000  Uiso   1.00
C193   C     0.71472   0.89778   0.14719   0.00000  Uiso   1.00
C194   C     0.72834   0.55264   0.12881   0.00000  Uiso   1.00
C195   C     0.78602   0.94740   0.18637   0.00000  Uiso   1.00
C196   C     0.77166   0.55263   0.20452   0.00000  Uiso   1.00
F197   F     0.61447   0.82585   0.20789   0.00000  Uiso   1.00
F198   F     0.88559   0.67417   0.20793   0.00000  Uiso   1.00
F199   F     0.88583   0.82595   0.12619   0.00000  Uiso   1.00
F200   F     0.61412   0.67421   0.12588   0.00000  Uiso   1.00
H201   H     0.71180   0.62162   0.10035   0.00000  Uiso   1.00
H202   H     0.81500   0.96514   0.20129   0.00000  Uiso   1.00
H203   H     0.78825   0.53489   0.23510   0.00000  Uiso   1.00
H204   H     0.68500   0.96514   0.13205   0.00000  Uiso   1.00
H205   H     0.81315   0.87847   0.20149   0.00000  Uiso   1.00
H206   H     0.78820   0.62162   0.23299   0.00000  Uiso   1.00
H207   H     0.68685   0.87847   0.13184   0.00000  Uiso   1.00
H208   H     0.52906   0.81805   0.20345   0.00000  Uiso   1.00
H209   H     0.97101   0.68195   0.20341   0.00000  Uiso   1.00
H210   H     0.97120   0.81819   0.13150   0.00000  Uiso   1.00
H211   H     0.52874   0.68194   0.13130   0.00000  Uiso   1.00
H212   H     0.71175   0.53489   0.09824   0.00000  Uiso   1.00
N213   N     0.75000   0.62624   0.16667   0.00000  Uiso   1.00
N214   N     0.75000   0.87377   0.16667   0.00000  Uiso   1.00
O215   O     0.68453   0.78974   0.16667   0.00000  Uiso   1.00
O216   O     0.81547   0.71026   0.16666   0.00000  Uiso   1.00
O217   O     0.81547   0.78974   0.16666   0.00000  Uiso   1.00
O218   O     0.68453   0.71026   0.16667   0.00000  Uiso   1.00
O219   O     0.75000   0.78973   0.09511   0.00000  Uiso   1.00
O220   O     0.75000   0.71027   0.23822   0.00000  Uiso   1.00
O221   O     0.75000   0.78973   0.23822   0.00000  Uiso   1.00
O222   O     0.75000   0.71027   0.09511   0.00000  Uiso   1.00
Zn223  Zn    0.75000   0.80307   0.16667   0.00000  Uiso   1.00
Zn224  Zn    0.75000   0.69693   0.16667   0.00000  Uiso   1.00
C225   C     0.16385   0.25000   0.50002   0.00000  Uiso   1.00
C226   C     0.21398   0.44740   0.48030   0.00000  Uiso   1.00
C227   C     0.24999   0.25000   0.40618   0.00000  Uiso   1.00
C228   C     0.25001   0.25000   0.59382   0.00000  Uiso   1.00
C229   C     0.25000   0.02670   0.50000   0.00000  Uiso   1.00
C230   C     0.25000   0.47333   0.50000   0.00000  Uiso   1.00
C231   C     0.24999   0.24999   0.35511   0.00000  Uiso   1.00
C232   C     0.25001   0.24999   0.64489   0.00000  Uiso   1.00
C233   C     0.04684   0.28848   0.52067   0.00000  Uiso   1.00
C234   C     0.45320   0.21155   0.52069   0.00000  Uiso   1.00
C235   C     0.45331   0.28860   0.48076   0.00000  Uiso   1.00
C236   C     0.33615   0.25000   0.50006   0.00000  Uiso   1.00
C237   C     0.04666   0.21150   0.48060   0.00000  Uiso   1.00
C238   C     0.09279   0.28861   0.52054   0.00000  Uiso   1.00
C239   C     0.40725   0.21142   0.52059   0.00000  Uiso   1.00
C240   C     0.40736   0.28869   0.48037   0.00000  Uiso   1.00
C241   C     0.09261   0.21141   0.48018   0.00000  Uiso   1.00
C242   C     0.11586   0.25002   0.50022   0.00000  Uiso   1.00
C243   C     0.38414   0.25002   0.50032   0.00000  Uiso   1.00
C244   C     0.02394   0.24998   0.50077   0.00000  Uiso   1.00
C245   C     0.47606   0.25007   0.50081   0.00000  Uiso   1.00
C246   C     0.22863   0.10225   0.46295   0.00000  Uiso   1.00
C247   C     0.28528   0.39778   0.51947   0.00000  Uiso   1.00
C248   C     0.27137   0.10225   0.53705   0.00000  Uiso   1.00
C249   C     0.21472   0.39778   0.48053   0.00000  Uiso   1.00
C250   C     0.22834   0.05264   0.46214   0.00000  Uiso   1.00
C251   C     0.28602   0.44740   0.51970   0.00000  Uiso   1.00
C252   C     0.27166   0.05263   0.53786   0.00000  Uiso   1.00
F253   F     0.11447   0.32585   0.54122   0.00000  Uiso   1.00
F254   F     0.38559   0.17417   0.54126   0.00000  Uiso   1.00
F255   F     0.38583   0.32595   0.45953   0.00000  Uiso   1.00
F256   F     0.11412   0.17421   0.45922   0.00000  Uiso   1.00
H257   H     0.21180   0.12162   0.43368   0.00000  Uiso   1.00
H258   H     0.31500   0.46514   0.53462   0.00000  Uiso   1.00
H259   H     0.28825   0.03489   0.56843   0.00000  Uiso   1.00
H260   H     0.18500   0.46514   0.46538   0.00000  Uiso   1.00
H261   H     0.31315   0.37847   0.53482   0.00000  Uiso   1.00
H262   H     0.28820   0.12162   0.56632   0.00000  Uiso   1.00
H263   H     0.18685   0.37847   0.46518   0.00000  Uiso   1.00
H264   H     0.02906   0.31805   0.53678   0.00000  Uiso   1.00
H265   H     0.47101   0.18195   0.53674   0.00000  Uiso   1.00
H266   H     0.47120   0.31819   0.46484   0.00000  Uiso   1.00
H267   H     0.02874   0.18194   0.46463   0.00000  Uiso   1.00
H268   H     0.21175   0.03489   0.43157   0.00000  Uiso   1.00
N269   N     0.25000   0.12624   0.50000   0.00000  Uiso   1.00
N270   N     0.25000   0.37377   0.50000   0.00000  Uiso   1.00
O271   O     0.18453   0.28974   0.50000   0.00000  Uiso   1.00
O272   O     0.31547   0.21026   0.50000   0.00000  Uiso   1.00
O273   O     0.31547   0.28974   0.50000   0.00000  Uiso   1.00
O274   O     0.18453   0.21026   0.50000   0.00000  Uiso   1.00
O275   O     0.25000   0.28973   0.42845   0.00000  Uiso   1.00
O276   O     0.25000   0.21027   0.57155   0.00000  Uiso   1.00
O277   O     0.25000   0.28973   0.57155   0.00000  Uiso   1.00
O278   O     0.25000   0.21027   0.42845   0.00000  Uiso   1.00
Zn279  Zn    0.25000   0.30307   0.50000   0.00000  Uiso   1.00
Zn280  Zn    0.25000   0.19693   0.50000   0.00000  Uiso   1.00
C281   C     0.66385   0.25000   0.50002   0.00000  Uiso   1.00
C282   C     0.71398   0.44740   0.48030   0.00000  Uiso   1.00
C283   C     0.74999   0.25000   0.40618   0.00000  Uiso   1.00
C284   C     0.75001   0.25000   0.59382   0.00000  Uiso   1.00
C285   C     0.75000   0.02670   0.50000   0.00000  Uiso   1.00
C286   C     0.75000   0.47333   0.50000   0.00000  Uiso   1.00
C287   C     0.74999   0.24999   0.35511   0.00000  Uiso   1.00
C288   C     0.75001   0.24999   0.64489   0.00000  Uiso   1.00
C289   C     0.54684   0.28848   0.52067   0.00000  Uiso   1.00
C290   C     0.95320   0.21155   0.52069   0.00000  Uiso   1.00
C291   C     0.95331   0.28860   0.48076   0.00000  Uiso   1.00
C292   C     0.83615   0.25000   0.50006   0.00000  Uiso   1.00
C293   C     0.54666   0.21150   0.48060   0.00000  Uiso   1.00
C294   C     0.59279   0.28861   0.52054   0.00000  Uiso   1.00
C295   C     0.90725   0.21142   0.52059   0.00000  Uiso   1.00
C296   C     0.90736   0.28869   0.48037   0.00000  Uiso   1.00
C297   C     0.59261   0.21141   0.48018   0.00000  Uiso   1.00
C298   C     0.61586   0.25002   0.50022   0.00000  Uiso   1.00
C299   C     0.88414   0.25002   0.50032   0.00000  Uiso   1.00
C300   C     0.52394   0.24998   0.50077   0.00000  Uiso   1.00
C301   C     0.97606   0.25007   0.50081   0.00000  Uiso   1.00
C302   C     0.72863   0.10225   0.46295   0.00000  Uiso   1.00
C303   C     0.78528   0.39778   0.51947   0.00000  Uiso   1.00
C304   C     0.77137   0.10225   0.53705   0.00000  Uiso   1.00
C305   C     0.71472   0.39778   0.48053   0.00000  Uiso   1.00
C306   C     0.72834   0.05264   0.46214   0.00000  Uiso   1.00
C307   C     0.78602   0.44740   0.51970   0.00000  Uiso   1.00
C308   C     0.77166   0.05263   0.53786   0.00000  Uiso   1.00
F309   F     0.61447   0.32585   0.54122   0.00000  Uiso   1.00
F310   F     0.88559   0.17417   0.54126   0.00000  Uiso   1.00
F311   F     0.88583   0.32595   0.45953   0.00000  Uiso   1.00
F312   F     0.61412   0.17421   0.45922   0.00000  Uiso   1.00
H313   H     0.71180   0.12162   0.43368   0.00000  Uiso   1.00
H314   H     0.81500   0.46514   0.53462   0.00000  Uiso   1.00
H315   H     0.78825   0.03489   0.56843   0.00000  Uiso   1.00
H316   H     0.68500   0.46514   0.46538   0.00000  Uiso   1.00
H317   H     0.81315   0.37847   0.53482   0.00000  Uiso   1.00
H318   H     0.78820   0.12162   0.56632   0.00000  Uiso   1.00
H319   H     0.68685   0.37847   0.46518   0.00000  Uiso   1.00
H320   H     0.52906   0.31805   0.53678   0.00000  Uiso   1.00
H321   H     0.97101   0.18195   0.53674   0.00000  Uiso   1.00
H322   H     0.97120   0.31819   0.46484   0.00000  Uiso   1.00
H323   H     0.52874   0.18194   0.46463   0.00000  Uiso   1.00
H324   H     0.71175   0.03489   0.43157   0.00000  Uiso   1.00
N325   N     0.75000   0.12624   0.50000   0.00000  Uiso   1.00
N326   N     0.75000   0.37377   0.50000   0.00000  Uiso   1.00
O327   O     0.68453   0.28974   0.50000   0.00000  Uiso   1.00
O328   O     0.81547   0.21026   0.50000   0.00000  Uiso   1.00
O329   O     0.81547   0.28974   0.50000   0.00000  Uiso   1.00
O330   O     0.68453   0.21026   0.50000   0.00000  Uiso   1.00
O331   O     0.75000   0.28973   0.42845   0.00000  Uiso   1.00
O332   O     0.75000   0.21027   0.57155   0.00000  Uiso   1.00
O333   O     0.75000   0.28973   0.57155   0.00000  Uiso   1.00
O334   O     0.75000   0.21027   0.42845   0.00000  Uiso   1.00
Zn335  Zn    0.75000   0.30307   0.50000   0.00000  Uiso   1.00
Zn336  Zn    0.75000   0.19693   0.50000   0.00000  Uiso   1.00
C337   C     0.16385   0.75000   0.50002   0.00000  Uiso   1.00
C338   C     0.21398   0.94740   0.48030   0.00000  Uiso   1.00
C339   C     0.24999   0.75000   0.40618   0.00000  Uiso   1.00
C340   C     0.25001   0.75000   0.59382   0.00000  Uiso   1.00
C341   C     0.25000   0.52670   0.50000   0.00000  Uiso   1.00
C342   C     0.25000   0.97333   0.50000   0.00000  Uiso   1.00
C343   C     0.24999   0.74999   0.35511   0.00000  Uiso   1.00
C344   C     0.25001   0.74999   0.64489   0.00000  Uiso   1.00
C345   C     0.04684   0.78848   0.52067   0.00000  Uiso   1.00
C346   C     0.45320   0.71155   0.52069   0.00000  Uiso   1.00
C347   C     0.45331   0.78860   0.48076   0.00000  Uiso   1.00
C348   C     0.33615   0.75000   0.50006   0.00000  Uiso   1.00
C349   C     0.04666   0.71150   0.48060   0.00000  Uiso   1.00
C350   C     0.09279   0.78861   0.52054   0.00000  Uiso   1.00
C351   C     0.40725   0.71142   0.52059   0.00000  Uiso   1.00
C352   C     0.40736   0.78869   0.48037   0.00000  Uiso   1.00
C353   C     0.09261   0.71141   0.48018   0.00000  Uiso   1.00
C354   C     0.11586   0.75002   0.50022   0.00000  Uiso   1.00
C355   C     0.38414   0.75002   0.50032   0.00000  Uiso   1.00
C356   C     0.02394   0.74998   0.50077   0.00000  Uiso   1.00
C357   C     0.47606   0.75007   0.50081   0.00000  Uiso   1.00
C358   C     0.22863   0.60225   0.46295   0.00000  Uiso   1.00
C359   C     0.28528   0.89778   0.51947   0.00000  Uiso   1.00
C360   C     0.27137   0.60225   0.53705   0.00000  Uiso   1.00
C361   C     0.21472   0.89778   0.48053   0.00000  Uiso   1.00
C362   C     0.22834   0.55264   0.46214   0.00000  Uiso   1.00
C363   C     0.28602   0.94740   0.51970   0.00000  Uiso   1.00
C364   C     0.27166   0.55263   0.53786   0.00000  Uiso   1.00
F365   F     0.11447   0.82585   0.54122   0.00000  Uiso   1.00
F366   F     0.38559   0.67417   0.54126   0.00000  Uiso   1.00
F367   F     0.38583   0.82595   0.45953   0.00000  Uiso   1.00
F368   F     0.11412   0.67421   0.45922   0.00000  Uiso   1.00
H369   H     0.21180   0.62162   0.43368   0.00000  Uiso   1.00
H370   H     0.31500   0.96514   0.53462   0.00000  Uiso   1.00
H371   H     0.28825   0.53489   0.56843   0.00000  Uiso   1.00
H372   H     0.18500   0.96514   0.46538   0.00000  Uiso   1.00
H373   H     0.31315   0.87847   0.53482   0.00000  Uiso   1.00
H374   H     0.28820   0.62162   0.56632   0.00000  Uiso   1.00
H375   H     0.18685   0.87847   0.46518   0.00000  Uiso   1.00
H376   H     0.02906   0.81805   0.53678   0.00000  Uiso   1.00
H377   H     0.47101   0.68195   0.53674   0.00000  Uiso   1.00
H378   H     0.47120   0.81819   0.46484   0.00000  Uiso   1.00
H379   H     0.02874   0.68194   0.46463   0.00000  Uiso   1.00
H380   H     0.21175   0.53489   0.43157   0.00000  Uiso   1.00
N381   N     0.25000   0.62624   0.50000   0.00000  Uiso   1.00
N382   N     0.25000   0.87377   0.50000   0.00000  Uiso   1.00
O383   O     0.18453   0.78974   0.50000   0.00000  Uiso   1.00
O384   O     0.31547   0.71026   0.50000   0.00000  Uiso   1.00
O385   O     0.31547   0.78974   0.50000   0.00000  Uiso   1.00
O386   O     0.18453   0.71026   0.50000   0.00000  Uiso   1.00
O387   O     0.25000   0.78973   0.42845   0.00000  Uiso   1.00
O388   O     0.25000   0.71027   0.57155   0.00000  Uiso   1.00
O389   O     0.25000   0.78973   0.57155   0.00000  Uiso   1.00
O390   O     0.25000   0.71027   0.42845   0.00000  Uiso   1.00
Zn391  Zn    0.25000   0.80307   0.50000   0.00000  Uiso   1.00
Zn392  Zn    0.25000   0.69693   0.50000   0.00000  Uiso   1.00
C393   C     0.66385   0.75000   0.50002   0.00000  Uiso   1.00
C394   C     0.71398   0.94740   0.48030   0.00000  Uiso   1.00
C395   C     0.74999   0.75000   0.40618   0.00000  Uiso   1.00
C396   C     0.75001   0.75000   0.59382   0.00000  Uiso   1.00
C397   C     0.75000   0.52670   0.50000   0.00000  Uiso   1.00
C398   C     0.75000   0.97333   0.50000   0.00000  Uiso   1.00
C399   C     0.74999   0.74999   0.35511   0.00000  Uiso   1.00
C400   C     0.75001   0.74999   0.64489   0.00000  Uiso   1.00
C401   C     0.54684   0.78848   0.52067   0.00000  Uiso   1.00
C402   C     0.95320   0.71155   0.52069   0.00000  Uiso   1.00
C403   C     0.95331   0.78860   0.48076   0.00000  Uiso   1.00
C404   C     0.83615   0.75000   0.50006   0.00000  Uiso   1.00
C405   C     0.54666   0.71150   0.48060   0.00000  Uiso   1.00
C406   C     0.59279   0.78861   0.52054   0.00000  Uiso   1.00
C407   C     0.90725   0.71142   0.52059   0.00000  Uiso   1.00
C408   C     0.90736   0.78869   0.48037   0.00000  Uiso   1.00
C409   C     0.59261   0.71141   0.48018   0.00000  Uiso   1.00
C410   C     0.61586   0.75002   0.50022   0.00000  Uiso   1.00
C411   C     0.88414   0.75002   0.50032   0.00000  Uiso   1.00
C412   C     0.52394   0.74998   0.50077   0.00000  Uiso   1.00
C413   C     0.97606   0.75007   0.50081   0.00000  Uiso   1.00
C414   C     0.72863   0.60225   0.46295   0.00000  Uiso   1.00
C415   C     0.78528   0.89778   0.51947   0.00000  Uiso   1.00
C416   C     0.77137   0.60225   0.53705   0.00000  Uiso   1.00
C417   C     0.71472   0.89778   0.48053   0.00000  Uiso   1.00
C418   C     0.72834   0.55264   0.46214   0.00000  Uiso   1.00
C419   C     0.78602   0.94740   0.51970   0.00000  Uiso   1.00
C420   C     0.77166   0.55263   0.53786   0.00000  Uiso   1.00
F421   F     0.61447   0.82585   0.54122   0.00000  Uiso   1.00
F422   F     0.88559   0.67417   0.54126   0.00000  Uiso   1.00
F423   F     0.88583   0.82595   0.45953   0.00000  Uiso   1.00
F424   F     0.61412   0.67421   0.45922   0.00000  Uiso   1.00
H425   H     0.71180   0.62162   0.43368   0.00000  Uiso   1.00
H426   H     0.81500   0.96514   0.53462   0.00000  Uiso   1.00
H427   H     0.78825   0.53489   0.56843   0.00000  Uiso   1.00
H428   H     0.68500   0.96514   0.46538   0.00000  Uiso   1.00
H429   H     0.81315   0.87847   0.53482   0.00000  Uiso   1.00
H430   H     0.78820   0.62162   0.56632   0.00000  Uiso   1.00
H431   H     0.68685   0.87847   0.46518   0.00000  Uiso   1.00
H432   H     0.52906   0.81805   0.53678   0.00000  Uiso   1.00
H433   H     0.97101   0.68195   0.53674   0.00000  Uiso   1.00
H434   H     0.97120   0.81819   0.46484   0.00000  Uiso   1.00
H435   H     0.52874   0.68194   0.46463   0.00000  Uiso   1.00
H436   H     0.71175   0.53489   0.43157   0.00000  Uiso   1.00
N437   N     0.75000   0.62624   0.50000   0.00000  Uiso   1.00
N438   N     0.75000   0.87377   0.50000   0.00000  Uiso   1.00
O439   O     0.68453   0.78974   0.50000   0.00000  Uiso   1.00
O440   O     0.81547   0.71026   0.50000   0.00000  Uiso   1.00
O441   O     0.81547   0.78974   0.50000   0.00000  Uiso   1.00
O442   O     0.68453   0.71026   0.50000   0.00000  Uiso   1.00
O443   O     0.75000   0.78973   0.42845   0.00000  Uiso   1.00
O444   O     0.75000   0.71027   0.57155   0.00000  Uiso   1.00
O445   O     0.75000   0.78973   0.57155   0.00000  Uiso   1.00
O446   O     0.75000   0.71027   0.42845   0.00000  Uiso   1.00
Zn447  Zn    0.75000   0.80307   0.50000   0.00000  Uiso   1.00
Zn448  Zn    0.75000   0.69693   0.50000   0.00000  Uiso   1.00
C449   C     0.16385   0.25000   0.83335   0.00000  Uiso   1.00
C450   C     0.21398   0.44740   0.81363   0.00000  Uiso   1.00
C451   C     0.24999   0.25000   0.73951   0.00000  Uiso   1.00
C452   C     0.25001   0.25000   0.92716   0.00000  Uiso   1.00
C453   C     0.25000   0.02670   0.83333   0.00000  Uiso   1.00
C454   C     0.25000   0.47333   0.83333   0.00000  Uiso   1.00
C455   C     0.24999   0.24999   0.68845   0.00000  Uiso   1.00
C456   C     0.25001   0.24999   0.97822   0.00000  Uiso   1.00
C457   C     0.04684   0.28848   0.85401   0.00000  Uiso   1.00
C458   C     0.45320   0.21155   0.85402   0.00000  Uiso   1.00
C459   C     0.45331   0.28860   0.81409   0.00000  Uiso   1.00
C460   C     0.33615   0.25000   0.83339   0.00000  Uiso   1.00
C461   C     0.04666   0.21150   0.81394   0.00000  Uiso   1.00
C462   C     0.09279   0.28861   0.85387   0.00000  Uiso   1.00
C463   C     0.40725   0.21142   0.85393   0.00000  Uiso   1.00
C464   C     0.40736   0.28869   0.81371   0.00000  Uiso   1.00
C465   C     0.09261   0.21141   0.81351   0.00000  Uiso   1.00
C466   C     0.11586   0.25002   0.83355   0.00000  Uiso   1.00
C467   C     0.38414   0.25002   0.83365   0.00000  Uiso   1.00
C468   C     0.02394   0.24998   0.83410   0.00000  Uiso   1.00
C469   C     0.47606   0.25007   0.83414   0.00000  Uiso   1.00
C470   C     0.22863   0.10225   0.79628   0.00000  Uiso   1.00
C471   C     0.28528   0.39778   0.85281   0.00000  Uiso   1.00
C472   C     0.27137   0.10225   0.87039   0.00000  Uiso   1.00
C473   C     0.21472   0.39778   0.81386   0.00000  Uiso   1.00
C474   C     0.22834   0.05264   0.79548   0.00000  Uiso   1.00
C475   C     0.28602   0.44740   0.85304   0.00000  Uiso   1.00
C476   C     0.27166   0.05263   0.87119   0.00000  Uiso   1.00
F477   F     0.11447   0.32585   0.87455   0.00000  Uiso   1.00
F478   F     0.38559   0.17417   0.87459   0.00000  Uiso   1.00
F479   F     0.38583   0.32595   0.79286   0.00000  Uiso   1.00
F480   F     0.11412   0.17421   0.79255   0.00000  Uiso   1.00
H481   H     0.21180   0.12162   0.76701   0.00000  Uiso   1.00
H482   H     0.31500   0.46514   0.86796   0.00000  Uiso   1.00
H483   H     0.28825   0.03489   0.90176   0.00000  Uiso   1.00
H484   H     0.18500   0.46514   0.79871   0.00000  Uiso   1.00
H485   H     0.31315   0.37847   0.86816   0.00000  Uiso   1.00
H486   H     0.28820   0.12162   0.89965   0.00000  Uiso   1.00
H487   H     0.18685   0.37847   0.79851   0.00000  Uiso   1.00
H488   H     0.02906   0.31805   0.87012   0.00000  Uiso   1.00
H489   H     0.47101   0.18195   0.87007   0.00000  Uiso   1.00
H490   H     0.47120   0.31819   0.79817   0.00000  Uiso   1.00
H491   H     0.02874   0.18194   0.79797   0.00000  Uiso   1.00
H492   H     0.21175   0.03489   0.76490   0.00000  Uiso   1.00
N493   N     0.25000   0.12624   0.83333   0.00000  Uiso   1.00
N494   N     0.25000   0.37377   0.83333   0.00000  Uiso   1.00
O495   O     0.18453   0.28974   0.83334   0.00000  Uiso   1.00
O496   O     0.31547   0.21026   0.83333   0.00000  Uiso   1.00
O497   O     0.31547   0.28974   0.83333   0.00000  Uiso   1.00
O498   O     0.18453   0.21026   0.83334   0.00000  Uiso   1.00
O499   O     0.25000   0.28973   0.76178   0.00000  Uiso   1.00
O500   O     0.25000   0.21027   0.90489   0.00000  Uiso   1.00
O501   O     0.25000   0.28973   0.90489   0.00000  Uiso   1.00
O502   O     0.25000   0.21027   0.76178   0.00000  Uiso   1.00
Zn503  Zn    0.25000   0.30307   0.83333   0.00000  Uiso   1.00
Zn504  Zn    0.25000   0.19693   0.83333   0.00000  Uiso   1.00
C505   C     0.66385   0.25000   0.83335   0.00000  Uiso   1.00
C506   C     0.71398   0.44740   0.81363   0.00000  Uiso   1.00
C507   C     0.74999   0.25000   0.73951   0.00000  Uiso   1.00
C508   C     0.75001   0.25000   0.92716   0.00000  Uiso   1.00
C509   C     0.75000   0.02670   0.83333   0.00000  Uiso   1.00
C510   C     0.75000   0.47333   0.83333   0.00000  Uiso   1.00
C511   C     0.74999   0.24999   0.68845   0.00000  Uiso   1.00
C512   C     0.75001   0.24999   0.97822   0.00000  Uiso   1.00
C513   C     0.54684   0.28848   0.85401   0.00000  Uiso   1.00
C514   C     0.95320   0.21155   0.85402   0.00000  Uiso   1.00
C515   C     0.95331   0.28860   0.81409   0.00000  Uiso   1.00
C516   C     0.83615   0.25000   0.83339   0.00000  Uiso   1.00
C517   C     0.54666   0.21150   0.81394   0.00000  Uiso   1.00
C518   C     0.59279   0.28861   0.85387   0.00000  Uiso   1.00
C519   C     0.90725   0.21142   0.85393   0.00000  Uiso   1.00
C520   C     0.90736   0.28869   0.81371   0.00000  Uiso   1.00
C521   C     0.59261   0.21141   0.81351   0.00000  Uiso   1.00
C522   C     0.61586   0.25002   0.83355   0.00000  Uiso   1.00
C523   C     0.88414   0.25002   0.83365   0.00000  Uiso   1.00
C524   C     0.52394   0.24998   0.83410   0.00000  Uiso   1.00
C525   C     0.97606   0.25007   0.83414   0.00000  Uiso   1.00
C526   C     0.72863   0.10225   0.79628   0.00000  Uiso   1.00
C527   C     0.78528   0.39778   0.85281   0.00000  Uiso   1.00
C528   C     0.77137   0.10225   0.87039   0.00000  Uiso   1.00
C529   C     0.71472   0.39778   0.81386   0.00000  Uiso   1.00
C530   C     0.72834   0.05264   0.79548   0.00000  Uiso   1.00
C531   C     0.78602   0.44740   0.85304   0.00000  Uiso   1.00
C532   C     0.77166   0.05263   0.87119   0.00000  Uiso   1.00
F533   F     0.61447   0.32585   0.87455   0.00000  Uiso   1.00
F534   F     0.88559   0.17417   0.87459   0.00000  Uiso   1.00
F535   F     0.88583   0.32595   0.79286   0.00000  Uiso   1.00
F536   F     0.61412   0.17421   0.79255   0.00000  Uiso   1.00
H537   H     0.71180   0.12162   0.76701   0.00000  Uiso   1.00
H538   H     0.81500   0.46514   0.86796   0.00000  Uiso   1.00
H539   H     0.78825   0.03489   0.90176   0.00000  Uiso   1.00
H540   H     0.68500   0.46514   0.79871   0.00000  Uiso   1.00
H541   H     0.81315   0.37847   0.86816   0.00000  Uiso   1.00
H542   H     0.78820   0.12162   0.89965   0.00000  Uiso   1.00
H543   H     0.68685   0.37847   0.79851   0.00000  Uiso   1.00
H544   H     0.52906   0.31805   0.87012   0.00000  Uiso   1.00
H545   H     0.97101   0.18195   0.87007   0.00000  Uiso   1.00
H546   H     0.97120   0.31819   0.79817   0.00000  Uiso   1.00
H547   H     0.52874   0.18194   0.79797   0.00000  Uiso   1.00
H548   H     0.71175   0.03489   0.76490   0.00000  Uiso   1.00
N549   N     0.75000   0.12624   0.83333   0.00000  Uiso   1.00
N550   N     0.75000   0.37377   0.83333   0.00000  Uiso   1.00
O551   O     0.68453   0.28974   0.83334   0.00000  Uiso   1.00
O552   O     0.81547   0.21026   0.83333   0.00000  Uiso   1.00
O553   O     0.81547   0.28974   0.83333   0.00000  Uiso   1.00
O554   O     0.68453   0.21026   0.83334   0.00000  Uiso   1.00
O555   O     0.75000   0.28973   0.76178   0.00000  Uiso   1.00
O556   O     0.75000   0.21027   0.90489   0.00000  Uiso   1.00
O557   O     0.75000   0.28973   0.90489   0.00000  Uiso   1.00
O558   O     0.75000   0.21027   0.76178   0.00000  Uiso   1.00
Zn559  Zn    0.75000   0.30307   0.83333   0.00000  Uiso   1.00
Zn560  Zn    0.75000   0.19693   0.83333   0.00000  Uiso   1.00
C561   C     0.16385   0.75000   0.83335   0.00000  Uiso   1.00
C562   C     0.21398   0.94740   0.81363   0.00000  Uiso   1.00
C563   C     0.24999   0.75000   0.73951   0.00000  Uiso   1.00
C564   C     0.25001   0.75000   0.92716   0.00000  Uiso   1.00
C565   C     0.25000   0.52670   0.83333   0.00000  Uiso   1.00
C566   C     0.25000   0.97333   0.83333   0.00000  Uiso   1.00
C567   C     0.24999   0.74999   0.68845   0.00000  Uiso   1.00
C568   C     0.25001   0.74999   0.97822   0.00000  Uiso   1.00
C569   C     0.04684   0.78848   0.85401   0.00000  Uiso   1.00
C570   C     0.45320   0.71155   0.85402   0.00000  Uiso   1.00
C571   C     0.45331   0.78860   0.81409   0.00000  Uiso   1.00
C572   C     0.33615   0.75000   0.83339   0.00000  Uiso   1.00
C573   C     0.04666   0.71150   0.81394   0.00000  Uiso   1.00
C574   C     0.09279   0.78861   0.85387   0.00000  Uiso   1.00
C575   C     0.40725   0.71142   0.85393   0.00000  Uiso   1.00
C576   C     0.40736   0.78869   0.81371   0.00000  Uiso   1.00
C577   C     0.09261   0.71141   0.81351   0.00000  Uiso   1.00
C578   C     0.11586   0.75002   0.83355   0.00000  Uiso   1.00
C579   C     0.38414   0.75002   0.83365   0.00000  Uiso   1.00
C580   C     0.02394   0.74998   0.83410   0.00000  Uiso   1.00
C581   C     0.47606   0.75007   0.83414   0.00000  Uiso   1.00
C582   C     0.22863   0.60225   0.79628   0.00000  Uiso   1.00
C583   C     0.28528   0.89778   0.85281   0.00000  Uiso   1.00
C584   C     0.27137   0.60225   0.87039   0.00000  Uiso   1.00
C585   C     0.21472   0.89778   0.81386   0.00000  Uiso   1.00
C586   C     0.22834   0.55264   0.79548   0.00000  Uiso   1.00
C587   C     0.28602   0.94740   0.85304   0.00000  Uiso   1.00
C588   C     0.27166   0.55263   0.87119   0.00000  Uiso   1.00
F589   F     0.11447   0.82585   0.87455   0.00000  Uiso   1.00
F590   F     0.38559   0.67417   0.87459   0.00000  Uiso   1.00
F591   F     0.38583   0.82595   0.79286   0.00000  Uiso   1.00
F592   F     0.11412   0.67421   0.79255   0.00000  Uiso   1.00
H593   H     0.21180   0.62162   0.76701   0.00000  Uiso   1.00
H594   H     0.31500   0.96514   0.86796   0.00000  Uiso   1.00
H595   H     0.28825   0.53489   0.90176   0.00000  Uiso   1.00
H596   H     0.18500   0.96514   0.79871   0.00000  Uiso   1.00
H597   H     0.31315   0.87847   0.86816   0.00000  Uiso   1.00
H598   H     0.28820   0.62162   0.89965   0.00000  Uiso   1.00
H599   H     0.18685   0.87847   0.79851   0.00000  Uiso   1.00
H600   H     0.02906   0.81805   0.87012   0.00000  Uiso   1.00
H601   H     0.47101   0.68195   0.87007   0.00000  Uiso   1.00
H602   H     0.47120   0.81819   0.79817   0.00000  Uiso   1.00
H603   H     0.02874   0.68194   0.79797   0.00000  Uiso   1.00
H604   H     0.21175   0.53489   0.76490   0.00000  Uiso   1.00
N605   N     0.25000   0.62624   0.83333   0.00000  Uiso   1.00
N606   N     0.25000   0.87377   0.83333   0.00000  Uiso   1.00
O607   O     0.18453   0.78974   0.83334   0.00000  Uiso   1.00
O608   O     0.31547   0.71026   0.83333   0.00000  Uiso   1.00
O609   O     0.31547   0.78974   0.83333   0.00000  Uiso   1.00
O610   O     0.18453   0.71026   0.83334   0.00000  Uiso   1.00
O611   O     0.25000   0.78973   0.76178   0.00000  Uiso   1.00
O612   O     0.25000   0.71027   0.90489   0.00000  Uiso   1.00
O613   O     0.25000   0.78973   0.90489   0.00000  Uiso   1.00
O614   O     0.25000   0.71027   0.76178   0.00000  Uiso   1.00
Zn615  Zn    0.25000   0.80307   0.83333   0.00000  Uiso   1.00
Zn616  Zn    0.25000   0.69693   0.83333   0.00000  Uiso   1.00
C617   C     0.66385   0.75000   0.83335   0.00000  Uiso   1.00
C618   C     0.71398   0.94740   0.81363   0.00000  Uiso   1.00
C619   C     0.74999   0.75000   0.73951   0.00000  Uiso   1.00
C620   C     0.75001   0.75000   0.92716   0.00000  Uiso   1.00
C621   C     0.75000   0.52670   0.83333   0.00000  Uiso   1.00
C622   C     0.75000   0.97333   0.83333   0.00000  Uiso   1.00
C623   C     0.74999   0.74999   0.68845   0.00000  Uiso   1.00
C624   C     0.75001   0.74999   0.97822   0.00000  Uiso   1.00
C625   C     0.54684   0.78848   0.85401   0.00000  Uiso   1.00
C626   C     0.95320   0.71155   0.85402   0.00000  Uiso   1.00
C627   C     0.95331   0.78860   0.81409   0.00000  Uiso   1.00
C628   C     0.83615   0.75000   0.83339   0.00000  Uiso   1.00
C629   C     0.54666   0.71150   0.81394   0.00000  Uiso   1.00
C630   C     0.59279   0.78861   0.85387   0.00000  Uiso   1.00
C631   C     0.90725   0.71142   0.85393   0.00000  Uiso   1.00
C632   C     0.90736   0.78869   0.81371   0.00000  Uiso   1.00
C633   C     0.59261   0.71141   0.81351   0.00000  Uiso   1.00
C634   C     0.61586   0.75002   0.83355   0.00000  Uiso   1.00
C635   C     0.88414   0.75002   0.83365   0.00000  Uiso   1.00
C636   C     0.52394   0.74998   0.83410   0.00000  Uiso   1.00
C637   C     0.97606   0.75007   0.83414   0.00000  Uiso   1.00
C638   C     0.72863   0.60225   0.79628   0.00000  Uiso   1.00
C639   C     0.78528   0.89778   0.85281   0.00000  Uiso   1.00
C640   C     0.77137   0.60225   0.87039   0.00000  Uiso   1.00
C641   C     0.71472   0.89778   0.81386   0.00000  Uiso   1.00
C642   C     0.72834   0.55264   0.79548   0.00000  Uiso   1.00
C643   C     0.78602   0.94740   0.85304   0.00000  Uiso   1.00
C644   C     0.77166   0.55263   0.87119   0.00000  Uiso   1.00
F645   F     0.61447   0.82585   0.87455   0.00000  Uiso   1.00
F646   F     0.88559   0.67417   0.87459   0.00000  Uiso   1.00
F647   F     0.88583   0.82595   0.79286   0.00000  Uiso   1.00
F648   F     0.61412   0.67421   0.79255   0.00000  Uiso   1.00
H649   H     0.71180   0.62162   0.76701   0.00000  Uiso   1.00
H650   H     0.81500   0.96514   0.86796   0.00000  Uiso   1.00
H651   H     0.78825   0.53489   0.90176   0.00000  Uiso   1.00
H652   H     0.68500   0.96514   0.79871   0.00000  Uiso   1.00
H653   H     0.81315   0.87847   0.86816   0.00000  Uiso   1.00
H654   H     0.78820   0.62162   0.89965   0.00000  Uiso   1.00
H655   H     0.68685   0.87847   0.79851   0.00000  Uiso   1.00
H656   H     0.52906   0.81805   0.87012   0.00000  Uiso   1.00
H657   H     0.97101   0.68195   0.87007   0.00000  Uiso   1.00
H658   H     0.97120   0.81819   0.79817   0.00000  Uiso   1.00
H659   H     0.52874   0.68194   0.79797   0.00000  Uiso   1.00
H660   H     0.71175   0.53489   0.76490   0.00000  Uiso   1.00
N661   N     0.75000   0.62624   0.83333   0.00000  Uiso   1.00
N662   N     0.75000   0.87377   0.83333   0.00000  Uiso   1.00
O663   O     0.68453   0.78974   0.83334   0.00000  Uiso   1.00
O664   O     0.81547   0.71026   0.83333   0.00000  Uiso   1.00
O665   O     0.81547   0.78974   0.83333   0.00000  Uiso   1.00
O666   O     0.68453   0.71026   0.83334   0.00000  Uiso   1.00
O667   O     0.75000   0.78973   0.76178   0.00000  Uiso   1.00
O668   O     0.75000   0.71027   0.90489   0.00000  Uiso   1.00
O669   O     0.75000   0.78973   0.90489   0.00000  Uiso   1.00
O670   O     0.75000   0.71027   0.76178   0.00000  Uiso   1.00
Zn671  Zn    0.75000   0.80307   0.83333   0.00000  Uiso   1.00
Zn672  Zn    0.75000   0.69693   0.83333   0.00000  Uiso   1.00
loop_
_geom_bond_atom_site_label_1
_geom_bond_atom_site_label_2
_geom_bond_distance
_geom_bond_site_symmetry_2
_ccdc_geom_bond_type
C1     O50     1.287   .     A
C1     C18     1.442   .     S
C1     O47     1.287   .     A
C2     C6      1.410   .     A
C2     C25     1.407   .     A
C2     H36     1.082   .     S
C3     C7      1.366   .     S
C3     O54     1.274   .     A
C3     O51     1.274   .     A
C4     O53     1.274   .     A
C4     C8      1.366   .     S
C4     O52     1.274   .     A
C5     C28     1.411   .     A
C5     C26     1.411   .     A
C5     C118    1.513   1_545 S
C6     C27     1.410   .     A
C6     C117    1.513   .     S
C7     C456    1.166   1_554 S
C8     C231    1.166   .     S
C9     C14     1.381   .     A
C9     C20     1.396   .     A
C9     H40     1.084   .     S
C10    H41     1.084   .     S
C10    C15     1.381   .     A
C10    C21     1.396   .     A
C11    C16     1.381   .     A
C11    H42     1.084   .     S
C11    C21     1.396   .     A
C12    C19     1.442   .     S
C12    O48     1.287   .     A
C12    O49     1.287   .     A
C13    C17     1.381   .     A
C13    H43     1.084   .     S
C13    C20     1.396   .     A
C14    C18     1.405   .     A
C14    F29     1.358   .     S
C15    C19     1.405   .     A
C15    F30     1.358   .     S
C16    C19     1.405   .     A
C16    F31     1.358   .     S
C17    C18     1.405   .     A
C17    F32     1.358   .     S
C20    C77     1.439   1_455 S
C21    C76     1.439   .     S
C22    C26     1.407   .     A
C22    N45     1.363   .     A
C22    H33     1.082   .     S
C23    C27     1.407   .     A
C23    N46     1.363   .     A
C23    H37     1.081   .     S
C24    H38     1.082   .     S
C24    N45     1.363   .     A
C24    C28     1.407   .     A
C25    H39     1.081   .     S
C25    N46     1.363   .     A
C26    H44     1.082   .     S
C27    H34     1.082   .     S
C28    H35     1.082   .     S
N45    Zn56    2.004   .     S
N46    Zn55    2.004   .     S
O47    Zn55    2.003   .     S
O48    Zn56    2.003   .     S
O49    Zn55    2.003   .     S
O50    Zn56    2.003   .     S
O51    Zn55    1.952   .     S
O52    Zn56    1.952   .     S
O53    Zn55    1.952   .     S
O54    Zn56    1.952   .     S
C57    O106    1.287   .     A
C57    C74     1.442   .     S
C57    O103    1.287   .     A
C58    C62     1.410   .     A
C58    C81     1.407   .     A
C58    H92     1.082   .     S
C59    C63     1.366   .     S
C59    O110    1.274   .     A
C59    O107    1.274   .     A
C60    O109    1.274   .     A
C60    C64     1.366   .     S
C60    O108    1.274   .     A
C61    C84     1.411   .     A
C61    C82     1.411   .     A
C61    C174    1.513   1_545 S
C62    C83     1.410   .     A
C62    C173    1.513   .     S
C63    C512    1.166   1_554 S
C64    C287    1.166   .     S
C65    C70     1.381   .     A
C65    C76     1.396   .     A
C65    H96     1.084   .     S
C66    H97     1.084   .     S
C66    C71     1.381   .     A
C66    C77     1.396   .     A
C67    C72     1.381   .     A
C67    H98     1.084   .     S
C67    C77     1.396   .     A
C68    C75     1.442   .     S
C68    O104    1.287   .     A
C68    O105    1.287   .     A
C69    C73     1.381   .     A
C69    H99     1.084   .     S
C69    C76     1.396   .     A
C70    C74     1.405   .     A
C70    F85     1.358   .     S
C71    C75     1.405   .     A
C71    F86     1.358   .     S
C72    C75     1.405   .     A
C72    F87     1.358   .     S
C73    C74     1.405   .     A
C73    F88     1.358   .     S
C77    C20     1.439   1_655 S
C78    C82     1.407   .     A
C78    N101    1.363   .     A
C78    H89     1.082   .     S
C79    C83     1.407   .     A
C79    N102    1.363   .     A
C79    H93     1.081   .     S
C80    H94     1.082   .     S
C80    N101    1.363   .     A
C80    C84     1.407   .     A
C81    H95     1.081   .     S
C81    N102    1.363   .     A
C82    H100    1.082   .     S
C83    H90     1.082   .     S
C84    H91     1.082   .     S
N101   Zn112   2.004   .     S
N102   Zn111   2.004   .     S
O103   Zn111   2.003   .     S
O104   Zn112   2.003   .     S
O105   Zn111   2.003   .     S
O106   Zn112   2.003   .     S
O107   Zn111   1.952   .     S
O108   Zn112   1.952   .     S
O109   Zn111   1.952   .     S
O110   Zn112   1.952   .     S
C113   O162    1.287   .     A
C113   C130    1.442   .     S
C113   O159    1.287   .     A
C114   C118    1.410   .     A
C114   C137    1.407   .     A
C114   H148    1.082   .     S
C115   C119    1.366   .     S
C115   O166    1.274   .     A
C115   O163    1.274   .     A
C116   O165    1.274   .     A
C116   C120    1.366   .     S
C116   O164    1.274   .     A
C117   C140    1.411   .     A
C117   C138    1.411   .     A
C118   C139    1.410   .     A
C118   C5      1.513   1_565 S
C119   C568    1.166   1_554 S
C120   C343    1.166   .     S
C121   C126    1.381   .     A
C121   C132    1.396   .     A
C121   H152    1.084   .     S
C122   H153    1.084   .     S
C122   C127    1.381   .     A
C122   C133    1.396   .     A
C123   C128    1.381   .     A
C123   H154    1.084   .     S
C123   C133    1.396   .     A
C124   C131    1.442   .     S
C124   O160    1.287   .     A
C124   O161    1.287   .     A
C125   C129    1.381   .     A
C125   H155    1.084   .     S
C125   C132    1.396   .     A
C126   C130    1.405   .     A
C126   F141    1.358   .     S
C127   C131    1.405   .     A
C127   F142    1.358   .     S
C128   C131    1.405   .     A
C128   F143    1.358   .     S
C129   C130    1.405   .     A
C129   F144    1.358   .     S
C132   C189    1.439   1_455 S
C133   C188    1.439   .     S
C134   C138    1.407   .     A
C134   N157    1.363   .     A
C134   H145    1.082   .     S
C135   C139    1.407   .     A
C135   N158    1.363   .     A
C135   H149    1.081   .     S
C136   H150    1.082   .     S
C136   N157    1.363   .     A
C136   C140    1.407   .     A
C137   H151    1.081   .     S
C137   N158    1.363   .     A
C138   H156    1.082   .     S
C139   H146    1.082   .     S
C140   H147    1.082   .     S
N157   Zn168   2.004   .     S
N158   Zn167   2.004   .     S
O159   Zn167   2.003   .     S
O160   Zn168   2.003   .     S
O161   Zn167   2.003   .     S
O162   Zn168   2.003   .     S
O163   Zn167   1.952   .     S
O164   Zn168   1.952   .     S
O165   Zn167   1.952   .     S
O166   Zn168   1.952   .     S
C169   O218    1.287   .     A
C169   C186    1.442   .     S
C169   O215    1.287   .     A
C170   C174    1.410   .     A
C170   C193    1.407   .     A
C170   H204    1.082   .     S
C171   C175    1.366   .     S
C171   O222    1.274   .     A
C171   O219    1.274   .     A
C172   O221    1.274   .     A
C172   C176    1.366   .     S
C172   O220    1.274   .     A
C173   C196    1.411   .     A
C173   C194    1.411   .     A
C174   C195    1.410   .     A
C174   C61     1.513   1_565 S
C175   C624    1.166   1_554 S
C176   C399    1.166   .     S
C177   C182    1.381   .     A
C177   C188    1.396   .     A
C177   H208    1.084   .     S
C178   H209    1.084   .     S
C178   C183    1.381   .     A
C178   C189    1.396   .     A
C179   C184    1.381   .     A
C179   H210    1.084   .     S
C179   C189    1.396   .     A
C180   C187    1.442   .     S
C180   O216    1.287   .     A
C180   O217    1.287   .     A
C181   C185    1.381   .     A
C181   H211    1.084   .     S
C181   C188    1.396   .     A
C182   C186    1.405   .     A
C182   F197    1.358   .     S
C183   C187    1.405   .     A
C183   F198    1.358   .     S
C184   C187    1.405   .     A
C184   F199    1.358   .     S
C185   C186    1.405   .     A
C185   F200    1.358   .     S
C189   C132    1.439   1_655 S
C190   C194    1.407   .     A
C190   N213    1.363   .     A
C190   H201    1.082   .     S
C191   C195    1.407   .     A
C191   N214    1.363   .     A
C191   H205    1.081   .     S
C192   H206    1.082   .     S
C192   N213    1.363   .     A
C192   C196    1.407   .     A
C193   H207    1.081   .     S
C193   N214    1.363   .     A
C194   H212    1.082   .     S
C195   H202    1.082   .     S
C196   H203    1.082   .     S
N213   Zn224   2.004   .     S
N214   Zn223   2.004   .     S
O215   Zn223   2.003   .     S
O216   Zn224   2.003   .     S
O217   Zn223   2.003   .     S
O218   Zn224   2.003   .     S
O219   Zn223   1.952   .     S
O220   Zn224   1.952   .     S
O221   Zn223   1.952   .     S
O222   Zn224   1.952   .     S
C225   O274    1.287   .     A
C225   C242    1.442   .     S
C225   O271    1.287   .     A
C226   C230    1.410   .     A
C226   C249    1.407   .     A
C226   H260    1.082   .     S
C227   C231    1.366   .     S
C227   O278    1.274   .     A
C227   O275    1.274   .     A
C228   O277    1.274   .     A
C228   C232    1.366   .     S
C228   O276    1.274   .     A
C229   C252    1.411   .     A
C229   C250    1.411   .     A
C229   C342    1.513   1_545 S
C230   C251    1.410   .     A
C230   C341    1.513   .     S
C232   C455    1.166   .     S
C233   C238    1.381   .     A
C233   C244    1.396   .     A
C233   H264    1.084   .     S
C234   H265    1.084   .     S
C234   C239    1.381   .     A
C234   C245    1.396   .     A
C235   C240    1.381   .     A
C235   H266    1.084   .     S
C235   C245    1.396   .     A
C236   C243    1.442   .     S
C236   O272    1.287   .     A
C236   O273    1.287   .     A
C237   C241    1.381   .     A
C237   H267    1.084   .     S
C237   C244    1.396   .     A
C238   C242    1.405   .     A
C238   F253    1.358   .     S
C239   C243    1.405   .     A
C239   F254    1.358   .     S
C240   C243    1.405   .     A
C240   F255    1.358   .     S
C241   C242    1.405   .     A
C241   F256    1.358   .     S
C244   C301    1.439   1_455 S
C245   C300    1.439   .     S
C246   C250    1.407   .     A
C246   N269    1.363   .     A
C246   H257    1.082   .     S
C247   C251    1.407   .     A
C247   N270    1.363   .     A
C247   H261    1.081   .     S
C248   H262    1.082   .     S
C248   N269    1.363   .     A
C248   C252    1.407   .     A
C249   H263    1.081   .     S
C249   N270    1.363   .     A
C250   H268    1.082   .     S
C251   H258    1.082   .     S
C252   H259    1.082   .     S
N269   Zn280   2.004   .     S
N270   Zn279   2.004   .     S
O271   Zn279   2.003   .     S
O272   Zn280   2.003   .     S
O273   Zn279   2.003   .     S
O274   Zn280   2.003   .     S
O275   Zn279   1.952   .     S
O276   Zn280   1.952   .     S
O277   Zn279   1.952   .     S
O278   Zn280   1.952   .     S
C281   O330    1.287   .     A
C281   C298    1.442   .     S
C281   O327    1.287   .     A
C282   C286    1.410   .     A
C282   C305    1.407   .     A
C282   H316    1.082   .     S
C283   C287    1.366   .     S
C283   O334    1.274   .     A
C283   O331    1.274   .     A
C284   O333    1.274   .     A
C284   C288    1.366   .     S
C284   O332    1.274   .     A
C285   C308    1.411   .     A
C285   C306    1.411   .     A
C285   C398    1.513   1_545 S
C286   C307    1.410   .     A
C286   C397    1.513   .     S
C288   C511    1.166   .     S
C289   C294    1.381   .     A
C289   C300    1.396   .     A
C289   H320    1.084   .     S
C290   H321    1.084   .     S
C290   C295    1.381   .     A
C290   C301    1.396   .     A
C291   C296    1.381   .     A
C291   H322    1.084   .     S
C291   C301    1.396   .     A
C292   C299    1.442   .     S
C292   O328    1.287   .     A
C292   O329    1.287   .     A
C293   C297    1.381   .     A
C293   H323    1.084   .     S
C293   C300    1.396   .     A
C294   C298    1.405   .     A
C294   F309    1.358   .     S
C295   C299    1.405   .     A
C295   F310    1.358   .     S
C296   C299    1.405   .     A
C296   F311    1.358   .     S
C297   C298    1.405   .     A
C297   F312    1.358   .     S
C301   C244    1.439   1_655 S
C302   C306    1.407   .     A
C302   N325    1.363   .     A
C302   H313    1.082   .     S
C303   C307    1.407   .     A
C303   N326    1.363   .     A
C303   H317    1.081   .     S
C304   H318    1.082   .     S
C304   N325    1.363   .     A
C304   C308    1.407   .     A
C305   H319    1.081   .     S
C305   N326    1.363   .     A
C306   H324    1.082   .     S
C307   H314    1.082   .     S
C308   H315    1.082   .     S
N325   Zn336   2.004   .     S
N326   Zn335   2.004   .     S
O327   Zn335   2.003   .     S
O328   Zn336   2.003   .     S
O329   Zn335   2.003   .     S
O330   Zn336   2.003   .     S
O331   Zn335   1.952   .     S
O332   Zn336   1.952   .     S
O333   Zn335   1.952   .     S
O334   Zn336   1.952   .     S
C337   O386    1.287   .     A
C337   C354    1.442   .     S
C337   O383    1.287   .     A
C338   C342    1.410   .     A
C338   C361    1.407   .     A
C338   H372    1.082   .     S
C339   C343    1.366   .     S
C339   O390    1.274   .     A
C339   O387    1.274   .     A
C340   O389    1.274   .     A
C340   C344    1.366   .     S
C340   O388    1.274   .     A
C341   C364    1.411   .     A
C341   C362    1.411   .     A
C342   C363    1.410   .     A
C342   C229    1.513   1_565 S
C344   C567    1.166   .     S
C345   C350    1.381   .     A
C345   C356    1.396   .     A
C345   H376    1.084   .     S
C346   H377    1.084   .     S
C346   C351    1.381   .     A
C346   C357    1.396   .     A
C347   C352    1.381   .     A
C347   H378    1.084   .     S
C347   C357    1.396   .     A
C348   C355    1.442   .     S
C348   O384    1.287   .     A
C348   O385    1.287   .     A
C349   C353    1.381   .     A
C349   H379    1.084   .     S
C349   C356    1.396   .     A
C350   C354    1.405   .     A
C350   F365    1.358   .     S
C351   C355    1.405   .     A
C351   F366    1.358   .     S
C352   C355    1.405   .     A
C352   F367    1.358   .     S
C353   C354    1.405   .     A
C353   F368    1.358   .     S
C356   C413    1.439   1_455 S
C357   C412    1.439   .     S
C358   C362    1.407   .     A
C358   N381    1.363   .     A
C358   H369    1.082   .     S
C359   C363    1.407   .     A
C359   N382    1.363   .     A
C359   H373    1.081   .     S
C360   H374    1.082   .     S
C360   N381    1.363   .     A
C360   C364    1.407   .     A
C361   H375    1.081   .     S
C361   N382    1.363   .     A
C362   H380    1.082   .     S
C363   H370    1.082   .     S
C364   H371    1.082   .     S
N381   Zn392   2.004   .     S
N382   Zn391   2.004   .     S
O383   Zn391   2.003   .     S
O384   Zn392   2.003   .     S
O385   Zn391   2.003   .     S
O386   Zn392   2.003   .     S
O387   Zn391   1.952   .     S
O388   Zn392   1.952   .     S
O389   Zn391   1.952   .     S
O390   Zn392   1.952   .     S
C393   O442    1.287   .     A
C393   C410    1.442   .     S
C393   O439    1.287   .     A
C394   C398    1.410   .     A
C394   C417    1.407   .     A
C394   H428    1.082   .     S
C395   C399    1.366   .     S
C395   O446    1.274   .     A
C395   O443    1.274   .     A
C396   O445    1.274   .     A
C396   C400    1.366   .     S
C396   O444    1.274   .     A
C397   C420    1.411   .     A
C397   C418    1.411   .     A
C398   C419    1.410   .     A
C398   C285    1.513   1_565 S
C400   C623    1.166   .     S
C401   C406    1.381   .     A
C401   C412    1.396   .     A
C401   H432    1.084   .     S
C402   H433    1.084   .     S
C402   C407    1.381   .     A
C402   C413    1.396   .     A
C403   C408    1.381   .     A
C403   H434    1.084   .     S
C403   C413    1.396   .     A
C404   C411    1.442   .     S
C404   O440    1.287   .     A
C404   O441    1.287   .     A
C405   C409    1.381   .     A
C405   H435    1.084   .     S
C405   C412    1.396   .     A
C406   C410    1.405   .     A
C406   F421    1.358   .     S
C407   C411    1.405   .     A
C407   F422    1.358   .     S
C408   C411    1.405   .     A
C408   F423    1.358   .     S
C409   C410    1.405   .     A
C409   F424    1.358   .     S
C413   C356    1.439   1_655 S
C414   C418    1.407   .     A
C414   N437    1.363   .     A
C414   H425    1.082   .     S
C415   C419    1.407   .     A
C415   N438    1.363   .     A
C415   H429    1.081   .     S
C416   H430    1.082   .     S
C416   N437    1.363   .     A
C416   C420    1.407   .     A
C417   H431    1.081   .     S
C417   N438    1.363   .     A
C418   H436    1.082   .     S
C419   H426    1.082   .     S
C420   H427    1.082   .     S
N437   Zn448   2.004   .     S
N438   Zn447   2.004   .     S
O439   Zn447   2.003   .     S
O440   Zn448   2.003   .     S
O441   Zn447   2.003   .     S
O442   Zn448   2.003   .     S
O443   Zn447   1.952   .     S
O444   Zn448   1.952   .     S
O445   Zn447   1.952   .     S
O446   Zn448   1.952   .     S
C449   O498    1.287   .     A
C449   C466    1.442   .     S
C449   O495    1.287   .     A
C450   C454    1.410   .     A
C450   C473    1.407   .     A
C450   H484    1.082   .     S
C451   C455    1.366   .     S
C451   O502    1.274   .     A
C451   O499    1.274   .     A
C452   O501    1.274   .     A
C452   C456    1.366   .     S
C452   O500    1.274   .     A
C453   C476    1.411   .     A
C453   C474    1.411   .     A
C453   C566    1.513   1_545 S
C454   C475    1.410   .     A
C454   C565    1.513   .     S
C456   C7      1.166   1_556 S
C457   C462    1.381   .     A
C457   C468    1.396   .     A
C457   H488    1.084   .     S
C458   H489    1.084   .     S
C458   C463    1.381   .     A
C458   C469    1.396   .     A
C459   C464    1.381   .     A
C459   H490    1.084   .     S
C459   C469    1.396   .     A
C460   C467    1.442   .     S
C460   O496    1.287   .     A
C460   O497    1.287   .     A
C461   C465    1.381   .     A
C461   H491    1.084   .     S
C461   C468    1.396   .     A
C462   C466    1.405   .     A
C462   F477    1.358   .     S
C463   C467    1.405   .     A
C463   F478    1.358   .     S
C464   C467    1.405   .     A
C464   F479    1.358   .     S
C465   C466    1.405   .     A
C465   F480    1.358   .     S
C468   C525    1.439   1_455 S
C469   C524    1.439   .     S
C470   C474    1.407   .     A
C470   N493    1.363   .     A
C470   H481    1.082   .     S
C471   C475    1.407   .     A
C471   N494    1.363   .     A
C471   H485    1.081   .     S
C472   H486    1.082   .     S
C472   N493    1.363   .     A
C472   C476    1.407   .     A
C473   H487    1.081   .     S
C473   N494    1.363   .     A
C474   H492    1.082   .     S
C475   H482    1.082   .     S
C476   H483    1.082   .     S
N493   Zn504   2.004   .     S
N494   Zn503   2.004   .     S
O495   Zn503   2.003   .     S
O496   Zn504   2.003   .     S
O497   Zn503   2.003   .     S
O498   Zn504   2.003   .     S
O499   Zn503   1.952   .     S
O500   Zn504   1.952   .     S
O501   Zn503   1.952   .     S
O502   Zn504   1.952   .     S
C505   O554    1.287   .     A
C505   C522    1.442   .     S
C505   O551    1.287   .     A
C506   C510    1.410   .     A
C506   C529    1.407   .     A
C506   H540    1.082   .     S
C507   C511    1.366   .     S
C507   O558    1.274   .     A
C507   O555    1.274   .     A
C508   O557    1.274   .     A
C508   C512    1.366   .     S
C508   O556    1.274   .     A
C509   C532    1.411   .     A
C509   C530    1.411   .     A
C509   C622    1.513   1_545 S
C510   C531    1.410   .     A
C510   C621    1.513   .     S
C512   C63     1.166   1_556 S
C513   C518    1.381   .     A
C513   C524    1.396   .     A
C513   H544    1.084   .     S
C514   H545    1.084   .     S
C514   C519    1.381   .     A
C514   C525    1.396   .     A
C515   C520    1.381   .     A
C515   H546    1.084   .     S
C515   C525    1.396   .     A
C516   C523    1.442   .     S
C516   O552    1.287   .     A
C516   O553    1.287   .     A
C517   C521    1.381   .     A
C517   H547    1.084   .     S
C517   C524    1.396   .     A
C518   C522    1.405   .     A
C518   F533    1.358   .     S
C519   C523    1.405   .     A
C519   F534    1.358   .     S
C520   C523    1.405   .     A
C520   F535    1.358   .     S
C521   C522    1.405   .     A
C521   F536    1.358   .     S
C525   C468    1.439   1_655 S
C526   C530    1.407   .     A
C526   N549    1.363   .     A
C526   H537    1.082   .     S
C527   C531    1.407   .     A
C527   N550    1.363   .     A
C527   H541    1.081   .     S
C528   H542    1.082   .     S
C528   N549    1.363   .     A
C528   C532    1.407   .     A
C529   H543    1.081   .     S
C529   N550    1.363   .     A
C530   H548    1.082   .     S
C531   H538    1.082   .     S
C532   H539    1.082   .     S
N549   Zn560   2.004   .     S
N550   Zn559   2.004   .     S
O551   Zn559   2.003   .     S
O552   Zn560   2.003   .     S
O553   Zn559   2.003   .     S
O554   Zn560   2.003   .     S
O555   Zn559   1.952   .     S
O556   Zn560   1.952   .     S
O557   Zn559   1.952   .     S
O558   Zn560   1.952   .     S
C561   O610    1.287   .     A
C561   C578    1.442   .     S
C561   O607    1.287   .     A
C562   C566    1.410   .     A
C562   C585    1.407   .     A
C562   H596    1.082   .     S
C563   C567    1.366   .     S
C563   O614    1.274   .     A
C563   O611    1.274   .     A
C564   O613    1.274   .     A
C564   C568    1.366   .     S
C564   O612    1.274   .     A
C565   C588    1.411   .     A
C565   C586    1.411   .     A
C566   C587    1.410   .     A
C566   C453    1.513   1_565 S
C568   C119    1.166   1_556 S
C569   C574    1.381   .     A
C569   C580    1.396   .     A
C569   H600    1.084   .     S
C570   H601    1.084   .     S
C570   C575    1.381   .     A
C570   C581    1.396   .     A
C571   C576    1.381   .     A
C571   H602    1.084   .     S
C571   C581    1.396   .     A
C572   C579    1.442   .     S
C572   O608    1.287   .     A
C572   O609    1.287   .     A
C573   C577    1.381   .     A
C573   H603    1.084   .     S
C573   C580    1.396   .     A
C574   C578    1.405   .     A
C574   F589    1.358   .     S
C575   C579    1.405   .     A
C575   F590    1.358   .     S
C576   C579    1.405   .     A
C576   F591    1.358   .     S
C577   C578    1.405   .     A
C577   F592    1.358   .     S
C580   C637    1.439   1_455 S
C581   C636    1.439   .     S
C582   C586    1.407   .     A
C582   N605    1.363   .     A
C582   H593    1.082   .     S
C583   C587    1.407   .     A
C583   N606    1.363   .     A
C583   H597    1.081   .     S
C584   H598    1.082   .     S
C584   N605    1.363   .     A
C584   C588    1.407   .     A
C585   H599    1.081   .     S
C585   N606    1.363   .     A
C586   H604    1.082   .     S
C587   H594    1.082   .     S
C588   H595    1.082   .     S
N605   Zn616   2.004   .     S
N606   Zn615   2.004   .     S
O607   Zn615   2.003   .     S
O608   Zn616   2.003   .     S
O609   Zn615   2.003   .     S
O610   Zn616   2.003   .     S
O611   Zn615   1.952   .     S
O612   Zn616   1.952   .     S
O613   Zn615   1.952   .     S
O614   Zn616   1.952   .     S
C617   O666    1.287   .     A
C617   C634    1.442   .     S
C617   O663    1.287   .     A
C618   C622    1.410   .     A
C618   C641    1.407   .     A
C618   H652    1.082   .     S
C619   C623    1.366   .     S
C619   O670    1.274   .     A
C619   O667    1.274   .     A
C620   O669    1.274   .     A
C620   C624    1.366   .     S
C620   O668    1.274   .     A
C621   C644    1.411   .     A
C621   C642    1.411   .     A
C622   C643    1.410   .     A
C622   C509    1.513   1_565 S
C624   C175    1.166   1_556 S
C625   C630    1.381   .     A
C625   C636    1.396   .     A
C625   H656    1.084   .     S
C626   H657    1.084   .     S
C626   C631    1.381   .     A
C626   C637    1.396   .     A
C627   C632    1.381   .     A
C627   H658    1.084   .     S
C627   C637    1.396   .     A
C628   C635    1.442   .     S
C628   O664    1.287   .     A
C628   O665    1.287   .     A
C629   C633    1.381   .     A
C629   H659    1.084   .     S
C629   C636    1.396   .     A
C630   C634    1.405   .     A
C630   F645    1.358   .     S
C631   C635    1.405   .     A
C631   F646    1.358   .     S
C632   C635    1.405   .     A
C632   F647    1.358   .     S
C633   C634    1.405   .     A
C633   F648    1.358   .     S
C637   C580    1.439   1_655 S
C638   C642    1.407   .     A
C638   N661    1.363   .     A
C638   H649    1.082   .     S
C639   C643    1.407   .     A
C639   N662    1.363   .     A
C639   H653    1.081   .     S
C640   H654    1.082   .     S
C640   N661    1.363   .     A
C640   C644    1.407   .     A
C641   H655    1.081   .     S
C641   N662    1.363   .     A
C642   H660    1.082   .     S
C643   H650    1.082   .     S
C644   H651    1.082   .     S
N661   Zn672   2.004   .     S
N662   Zn671   2.004   .     S
O663   Zn671   2.003   .     S
O664   Zn672   2.003   .     S
O665   Zn671   2.003   .     S
O666   Zn672   2.003   .     S
O667   Zn671   1.952   .     S
O668   Zn672   1.952   .     S
O669   Zn671   1.952   .     S
O670   Zn672   1.952   .     S
