data_str_m3_o10_o17_pcu_sym.23
_audit_creation_date              2020-01-03
_audit_creation_method            'Materials Studio'
_symmetry_space_group_name_H-M    'P1'
_symmetry_Int_Tables_number       1
_symmetry_cell_setting            triclinic
loop_
_symmetry_equiv_pos_as_xyz
  x,y,z
_cell_length_a                    23.8777
_cell_length_b                    25.6549
_cell_length_c                    29.7703
_cell_angle_alpha                 93.9874
_cell_angle_beta                  85.3751
_cell_angle_gamma                 92.8159
loop_
_atom_site_label
_atom_site_type_symbol
_atom_site_fract_x
_atom_site_fract_y
_atom_site_fract_z
_atom_site_U_iso_or_equiv
_atom_site_adp_type
_atom_site_occupancy
C1     C     0.18144   0.26456   0.24897   0.00000  Uiso   1.00
C2     C     0.20544   0.19976   0.40651   0.00000  Uiso   1.00
C3     C     0.16639   0.16638   0.11589   0.00000  Uiso   1.00
C4     C     0.16697   0.16703   0.38410   0.00000  Uiso   1.00
C5     C     0.20592   0.19846   0.09271   0.00000  Uiso   1.00
C6     C     0.12741   0.13499   0.40729   0.00000  Uiso   1.00
C7     C     0.20632   0.19896   0.04623   0.00000  Uiso   1.00
C8     C     0.12704   0.13449   0.45376   0.00000  Uiso   1.00
C9     C     0.16676   0.16656   0.02332   0.00000  Uiso   1.00
C10    C     0.16662   0.16687   0.47666   0.00000  Uiso   1.00
C11    C     0.12744   0.13373   0.04710   0.00000  Uiso   1.00
C12    C     0.15189   0.06878   0.25112   0.00000  Uiso   1.00
C13    C     0.20597   0.19967   0.45288   0.00000  Uiso   1.00
C14    C     0.24527   0.23133   0.02238   0.00000  Uiso   1.00
C15    C     0.08811   0.10209   0.47760   0.00000  Uiso   1.00
C16    C     0.24504   0.23175   0.47575   0.00000  Uiso   1.00
C17    C     0.08838   0.10164   0.02423   0.00000  Uiso   1.00
C18    C     0.18925   0.31901   0.24855   0.00000  Uiso   1.00
C19    C     0.14408   0.01434   0.25176   0.00000  Uiso   1.00
C20    C     0.16693   0.16707   0.33626   0.00000  Uiso   1.00
C21    C     0.16641   0.16630   0.16374   0.00000  Uiso   1.00
C22    C     0.12797   0.13362   0.09346   0.00000  Uiso   1.00
H23    H     0.09932   0.10740   0.11186   0.00000  Uiso   1.00
H24    H     0.10112   0.33133   0.25480   0.00000  Uiso   1.00
H25    H     0.28329   0.05510   0.18149   0.00000  Uiso   1.00
H26    H     0.03659   0.25546   0.36652   0.00000  Uiso   1.00
H27    H     0.23414   0.22592   0.38808   0.00000  Uiso   1.00
H28    H     0.23572   0.22330   0.11099   0.00000  Uiso   1.00
H29    H     0.09759   0.11017   0.38902   0.00000  Uiso   1.00
H30    H     0.27572   0.25626   0.03978   0.00000  Uiso   1.00
H31    H     0.05766   0.07716   0.46021   0.00000  Uiso   1.00
H32    H     0.27537   0.25696   0.45757   0.00000  Uiso   1.00
H33    H     0.05807   0.07641   0.04240   0.00000  Uiso   1.00
H34    H     0.23220   0.00201   0.24562   0.00000  Uiso   1.00
N35    N     0.31678   0.15265   0.23783   0.00000  Uiso   1.00
N36    N     0.01656   0.18068   0.26217   0.00000  Uiso   1.00
O37    O     0.12975   0.24619   0.25299   0.00000  Uiso   1.00
O38    O     0.05274   0.08898   0.18700   0.00000  Uiso   1.00
O39    O     0.28513   0.08733   0.16487   0.00000  Uiso   1.00
O40    O     0.28088   0.24456   0.31278   0.00000  Uiso   1.00
O41    O     0.31285   0.16678   0.34651   0.00000  Uiso   1.00
O42    O     0.04856   0.24631   0.33442   0.00000  Uiso   1.00
O43    O     0.20358   0.08714   0.24702   0.00000  Uiso   1.00
O44    O     0.22613   0.23721   0.24519   0.00000  Uiso   1.00
O45    O     0.10720   0.09613   0.25482   0.00000  Uiso   1.00
O46    O     0.11847   0.17117   0.31998   0.00000  Uiso   1.00
O47    O     0.21486   0.16216   0.18003   0.00000  Uiso   1.00
O48    O     0.21485   0.16219   0.31218   0.00000  Uiso   1.00
O49    O     0.11848   0.17115   0.18783   0.00000  Uiso   1.00
O50    O     0.02073   0.16663   0.15349   0.00000  Uiso   1.00
S51    S     0.00511   0.12445   0.18538   0.00000  Uiso   1.00
S52    S     0.32833   0.20898   0.31458   0.00000  Uiso   1.00
Zn53   Zn    0.10231   0.17266   0.25521   0.00000  Uiso   1.00
Zn54   Zn    0.23102   0.16067   0.24479   0.00000  Uiso   1.00
C55    C     0.51477   0.26456   0.24897   0.00000  Uiso   1.00
C56    C     0.53878   0.19976   0.40651   0.00000  Uiso   1.00
C57    C     0.49972   0.16638   0.11589   0.00000  Uiso   1.00
C58    C     0.50030   0.16703   0.38410   0.00000  Uiso   1.00
C59    C     0.53925   0.19846   0.09271   0.00000  Uiso   1.00
C60    C     0.46075   0.13499   0.40729   0.00000  Uiso   1.00
C61    C     0.53966   0.19896   0.04623   0.00000  Uiso   1.00
C62    C     0.46037   0.13449   0.45376   0.00000  Uiso   1.00
C63    C     0.50009   0.16656   0.02332   0.00000  Uiso   1.00
C64    C     0.49995   0.16687   0.47666   0.00000  Uiso   1.00
C65    C     0.46077   0.13373   0.04710   0.00000  Uiso   1.00
C66    C     0.48523   0.06878   0.25112   0.00000  Uiso   1.00
C67    C     0.53930   0.19967   0.45288   0.00000  Uiso   1.00
C68    C     0.57860   0.23133   0.02238   0.00000  Uiso   1.00
C69    C     0.42144   0.10209   0.47760   0.00000  Uiso   1.00
C70    C     0.57837   0.23175   0.47575   0.00000  Uiso   1.00
C71    C     0.42171   0.10164   0.02423   0.00000  Uiso   1.00
C72    C     0.52258   0.31901   0.24855   0.00000  Uiso   1.00
C73    C     0.47741   0.01434   0.25176   0.00000  Uiso   1.00
C74    C     0.50027   0.16707   0.33626   0.00000  Uiso   1.00
C75    C     0.49974   0.16630   0.16374   0.00000  Uiso   1.00
C76    C     0.46131   0.13362   0.09346   0.00000  Uiso   1.00
H77    H     0.43265   0.10740   0.11186   0.00000  Uiso   1.00
H78    H     0.43446   0.33133   0.25480   0.00000  Uiso   1.00
H79    H     0.61662   0.05510   0.18149   0.00000  Uiso   1.00
H80    H     0.36993   0.25546   0.36652   0.00000  Uiso   1.00
H81    H     0.56748   0.22592   0.38808   0.00000  Uiso   1.00
H82    H     0.56905   0.22330   0.11099   0.00000  Uiso   1.00
H83    H     0.43092   0.11017   0.38902   0.00000  Uiso   1.00
H84    H     0.60905   0.25626   0.03978   0.00000  Uiso   1.00
H85    H     0.39100   0.07716   0.46021   0.00000  Uiso   1.00
H86    H     0.60870   0.25696   0.45757   0.00000  Uiso   1.00
H87    H     0.39141   0.07641   0.04240   0.00000  Uiso   1.00
H88    H     0.56553   0.00201   0.24562   0.00000  Uiso   1.00
N89    N     0.65011   0.15265   0.23783   0.00000  Uiso   1.00
N90    N     0.34989   0.18068   0.26217   0.00000  Uiso   1.00
O91    O     0.46308   0.24619   0.25299   0.00000  Uiso   1.00
O92    O     0.38607   0.08898   0.18700   0.00000  Uiso   1.00
O93    O     0.61846   0.08733   0.16487   0.00000  Uiso   1.00
O94    O     0.61421   0.24456   0.31278   0.00000  Uiso   1.00
O95    O     0.64619   0.16678   0.34651   0.00000  Uiso   1.00
O96    O     0.38190   0.24631   0.33442   0.00000  Uiso   1.00
O97    O     0.53692   0.08714   0.24702   0.00000  Uiso   1.00
O98    O     0.55946   0.23721   0.24519   0.00000  Uiso   1.00
O99    O     0.44054   0.09613   0.25482   0.00000  Uiso   1.00
O100   O     0.45181   0.17117   0.31998   0.00000  Uiso   1.00
O101   O     0.54819   0.16216   0.18003   0.00000  Uiso   1.00
O102   O     0.54819   0.16219   0.31218   0.00000  Uiso   1.00
O103   O     0.45181   0.17115   0.18783   0.00000  Uiso   1.00
O104   O     0.35406   0.16663   0.15349   0.00000  Uiso   1.00
S105   S     0.33844   0.12445   0.18538   0.00000  Uiso   1.00
S106   S     0.66167   0.20898   0.31458   0.00000  Uiso   1.00
Zn107  Zn    0.43565   0.17266   0.25521   0.00000  Uiso   1.00
Zn108  Zn    0.56435   0.16067   0.24479   0.00000  Uiso   1.00
C109   C     0.84810   0.26456   0.24897   0.00000  Uiso   1.00
C110   C     0.87211   0.19976   0.40651   0.00000  Uiso   1.00
C111   C     0.83306   0.16638   0.11589   0.00000  Uiso   1.00
C112   C     0.83363   0.16703   0.38410   0.00000  Uiso   1.00
C113   C     0.87259   0.19846   0.09271   0.00000  Uiso   1.00
C114   C     0.79408   0.13499   0.40729   0.00000  Uiso   1.00
C115   C     0.87299   0.19896   0.04623   0.00000  Uiso   1.00
C116   C     0.79371   0.13449   0.45376   0.00000  Uiso   1.00
C117   C     0.83343   0.16656   0.02332   0.00000  Uiso   1.00
C118   C     0.83329   0.16687   0.47666   0.00000  Uiso   1.00
C119   C     0.79410   0.13373   0.04710   0.00000  Uiso   1.00
C120   C     0.81856   0.06878   0.25112   0.00000  Uiso   1.00
C121   C     0.87263   0.19967   0.45288   0.00000  Uiso   1.00
C122   C     0.91194   0.23133   0.02238   0.00000  Uiso   1.00
C123   C     0.75477   0.10209   0.47760   0.00000  Uiso   1.00
C124   C     0.91170   0.23175   0.47575   0.00000  Uiso   1.00
C125   C     0.75504   0.10164   0.02423   0.00000  Uiso   1.00
C126   C     0.85591   0.31901   0.24855   0.00000  Uiso   1.00
C127   C     0.81075   0.01434   0.25176   0.00000  Uiso   1.00
C128   C     0.83360   0.16707   0.33626   0.00000  Uiso   1.00
C129   C     0.83307   0.16630   0.16374   0.00000  Uiso   1.00
C130   C     0.79464   0.13362   0.09346   0.00000  Uiso   1.00
H131   H     0.76599   0.10740   0.11186   0.00000  Uiso   1.00
H132   H     0.76779   0.33133   0.25480   0.00000  Uiso   1.00
H133   H     0.94996   0.05510   0.18149   0.00000  Uiso   1.00
H134   H     0.70326   0.25546   0.36652   0.00000  Uiso   1.00
H135   H     0.90081   0.22592   0.38808   0.00000  Uiso   1.00
H136   H     0.90239   0.22330   0.11099   0.00000  Uiso   1.00
H137   H     0.76426   0.11017   0.38902   0.00000  Uiso   1.00
H138   H     0.94238   0.25626   0.03978   0.00000  Uiso   1.00
H139   H     0.72433   0.07716   0.46021   0.00000  Uiso   1.00
H140   H     0.94203   0.25696   0.45757   0.00000  Uiso   1.00
H141   H     0.72474   0.07641   0.04240   0.00000  Uiso   1.00
H142   H     0.89886   0.00201   0.24562   0.00000  Uiso   1.00
N143   N     0.98344   0.15265   0.23783   0.00000  Uiso   1.00
N144   N     0.68322   0.18068   0.26217   0.00000  Uiso   1.00
O145   O     0.79642   0.24619   0.25299   0.00000  Uiso   1.00
O146   O     0.71941   0.08898   0.18700   0.00000  Uiso   1.00
O147   O     0.95180   0.08733   0.16487   0.00000  Uiso   1.00
O148   O     0.94755   0.24456   0.31278   0.00000  Uiso   1.00
O149   O     0.97952   0.16678   0.34651   0.00000  Uiso   1.00
O150   O     0.71523   0.24631   0.33442   0.00000  Uiso   1.00
O151   O     0.87025   0.08714   0.24702   0.00000  Uiso   1.00
O152   O     0.89280   0.23721   0.24519   0.00000  Uiso   1.00
O153   O     0.77387   0.09613   0.25482   0.00000  Uiso   1.00
O154   O     0.78514   0.17117   0.31998   0.00000  Uiso   1.00
O155   O     0.88153   0.16216   0.18003   0.00000  Uiso   1.00
O156   O     0.88152   0.16219   0.31218   0.00000  Uiso   1.00
O157   O     0.78515   0.17115   0.18783   0.00000  Uiso   1.00
O158   O     0.68739   0.16663   0.15349   0.00000  Uiso   1.00
S159   S     0.67178   0.12445   0.18538   0.00000  Uiso   1.00
S160   S     0.99500   0.20898   0.31458   0.00000  Uiso   1.00
Zn161  Zn    0.76898   0.17266   0.25521   0.00000  Uiso   1.00
Zn162  Zn    0.89769   0.16067   0.24479   0.00000  Uiso   1.00
C163   C     0.18144   0.59789   0.24897   0.00000  Uiso   1.00
C164   C     0.20544   0.53310   0.40651   0.00000  Uiso   1.00
C165   C     0.16639   0.49971   0.11589   0.00000  Uiso   1.00
C166   C     0.16697   0.50037   0.38410   0.00000  Uiso   1.00
C167   C     0.20592   0.53179   0.09271   0.00000  Uiso   1.00
C168   C     0.12741   0.46832   0.40729   0.00000  Uiso   1.00
C169   C     0.20632   0.53229   0.04623   0.00000  Uiso   1.00
C170   C     0.12704   0.46782   0.45376   0.00000  Uiso   1.00
C171   C     0.16676   0.49989   0.02332   0.00000  Uiso   1.00
C172   C     0.16662   0.50020   0.47666   0.00000  Uiso   1.00
C173   C     0.12744   0.46707   0.04710   0.00000  Uiso   1.00
C174   C     0.15189   0.40212   0.25112   0.00000  Uiso   1.00
C175   C     0.20597   0.53301   0.45288   0.00000  Uiso   1.00
C176   C     0.24527   0.56467   0.02238   0.00000  Uiso   1.00
C177   C     0.08811   0.43543   0.47760   0.00000  Uiso   1.00
C178   C     0.24504   0.56509   0.47575   0.00000  Uiso   1.00
C179   C     0.08838   0.43497   0.02423   0.00000  Uiso   1.00
C180   C     0.18925   0.65235   0.24855   0.00000  Uiso   1.00
C181   C     0.14408   0.34767   0.25176   0.00000  Uiso   1.00
C182   C     0.16693   0.50040   0.33626   0.00000  Uiso   1.00
C183   C     0.16641   0.49964   0.16374   0.00000  Uiso   1.00
C184   C     0.12797   0.46695   0.09346   0.00000  Uiso   1.00
H185   H     0.09932   0.44074   0.11186   0.00000  Uiso   1.00
H186   H     0.10112   0.66466   0.25480   0.00000  Uiso   1.00
H187   H     0.28329   0.38843   0.18149   0.00000  Uiso   1.00
H188   H     0.03659   0.58879   0.36652   0.00000  Uiso   1.00
H189   H     0.23414   0.55925   0.38808   0.00000  Uiso   1.00
H190   H     0.23572   0.55663   0.11099   0.00000  Uiso   1.00
H191   H     0.09759   0.44350   0.38902   0.00000  Uiso   1.00
H192   H     0.27572   0.58960   0.03978   0.00000  Uiso   1.00
H193   H     0.05766   0.41049   0.46021   0.00000  Uiso   1.00
H194   H     0.27537   0.59029   0.45757   0.00000  Uiso   1.00
H195   H     0.05807   0.40974   0.04240   0.00000  Uiso   1.00
H196   H     0.23220   0.33535   0.24562   0.00000  Uiso   1.00
N197   N     0.31678   0.48598   0.23783   0.00000  Uiso   1.00
N198   N     0.01656   0.51402   0.26217   0.00000  Uiso   1.00
O199   O     0.12975   0.57952   0.25299   0.00000  Uiso   1.00
O200   O     0.05274   0.42232   0.18700   0.00000  Uiso   1.00
O201   O     0.28513   0.42067   0.16487   0.00000  Uiso   1.00
O202   O     0.28088   0.57789   0.31278   0.00000  Uiso   1.00
O203   O     0.31285   0.50011   0.34651   0.00000  Uiso   1.00
O204   O     0.04856   0.57964   0.33442   0.00000  Uiso   1.00
O205   O     0.20358   0.42048   0.24702   0.00000  Uiso   1.00
O206   O     0.22613   0.57054   0.24519   0.00000  Uiso   1.00
O207   O     0.10720   0.42946   0.25482   0.00000  Uiso   1.00
O208   O     0.11847   0.50450   0.31998   0.00000  Uiso   1.00
O209   O     0.21486   0.49550   0.18003   0.00000  Uiso   1.00
O210   O     0.21485   0.49552   0.31218   0.00000  Uiso   1.00
O211   O     0.11848   0.50448   0.18783   0.00000  Uiso   1.00
O212   O     0.02073   0.49996   0.15349   0.00000  Uiso   1.00
S213   S     0.00511   0.45778   0.18538   0.00000  Uiso   1.00
S214   S     0.32833   0.54231   0.31458   0.00000  Uiso   1.00
Zn215  Zn    0.10231   0.50600   0.25521   0.00000  Uiso   1.00
Zn216  Zn    0.23102   0.49400   0.24479   0.00000  Uiso   1.00
C217   C     0.51477   0.59789   0.24897   0.00000  Uiso   1.00
C218   C     0.53878   0.53310   0.40651   0.00000  Uiso   1.00
C219   C     0.49972   0.49971   0.11589   0.00000  Uiso   1.00
C220   C     0.50030   0.50037   0.38410   0.00000  Uiso   1.00
C221   C     0.53925   0.53179   0.09271   0.00000  Uiso   1.00
C222   C     0.46075   0.46832   0.40729   0.00000  Uiso   1.00
C223   C     0.53966   0.53229   0.04623   0.00000  Uiso   1.00
C224   C     0.46037   0.46782   0.45376   0.00000  Uiso   1.00
C225   C     0.50009   0.49989   0.02332   0.00000  Uiso   1.00
C226   C     0.49995   0.50020   0.47666   0.00000  Uiso   1.00
C227   C     0.46077   0.46707   0.04710   0.00000  Uiso   1.00
C228   C     0.48523   0.40212   0.25112   0.00000  Uiso   1.00
C229   C     0.53930   0.53301   0.45288   0.00000  Uiso   1.00
C230   C     0.57860   0.56467   0.02238   0.00000  Uiso   1.00
C231   C     0.42144   0.43543   0.47760   0.00000  Uiso   1.00
C232   C     0.57837   0.56509   0.47575   0.00000  Uiso   1.00
C233   C     0.42171   0.43497   0.02423   0.00000  Uiso   1.00
C234   C     0.52258   0.65235   0.24855   0.00000  Uiso   1.00
C235   C     0.47741   0.34767   0.25176   0.00000  Uiso   1.00
C236   C     0.50027   0.50040   0.33626   0.00000  Uiso   1.00
C237   C     0.49974   0.49964   0.16374   0.00000  Uiso   1.00
C238   C     0.46131   0.46695   0.09346   0.00000  Uiso   1.00
H239   H     0.43265   0.44074   0.11186   0.00000  Uiso   1.00
H240   H     0.43446   0.66466   0.25480   0.00000  Uiso   1.00
H241   H     0.61662   0.38843   0.18149   0.00000  Uiso   1.00
H242   H     0.36993   0.58879   0.36652   0.00000  Uiso   1.00
H243   H     0.56748   0.55925   0.38808   0.00000  Uiso   1.00
H244   H     0.56905   0.55663   0.11099   0.00000  Uiso   1.00
H245   H     0.43092   0.44350   0.38902   0.00000  Uiso   1.00
H246   H     0.60905   0.58960   0.03978   0.00000  Uiso   1.00
H247   H     0.39100   0.41049   0.46021   0.00000  Uiso   1.00
H248   H     0.60870   0.59029   0.45757   0.00000  Uiso   1.00
H249   H     0.39141   0.40974   0.04240   0.00000  Uiso   1.00
H250   H     0.56553   0.33535   0.24562   0.00000  Uiso   1.00
N251   N     0.65011   0.48598   0.23783   0.00000  Uiso   1.00
N252   N     0.34989   0.51402   0.26217   0.00000  Uiso   1.00
O253   O     0.46308   0.57952   0.25299   0.00000  Uiso   1.00
O254   O     0.38607   0.42232   0.18700   0.00000  Uiso   1.00
O255   O     0.61846   0.42067   0.16487   0.00000  Uiso   1.00
O256   O     0.61421   0.57789   0.31278   0.00000  Uiso   1.00
O257   O     0.64619   0.50011   0.34651   0.00000  Uiso   1.00
O258   O     0.38190   0.57964   0.33442   0.00000  Uiso   1.00
O259   O     0.53692   0.42048   0.24702   0.00000  Uiso   1.00
O260   O     0.55946   0.57054   0.24519   0.00000  Uiso   1.00
O261   O     0.44054   0.42946   0.25482   0.00000  Uiso   1.00
O262   O     0.45181   0.50450   0.31998   0.00000  Uiso   1.00
O263   O     0.54819   0.49550   0.18003   0.00000  Uiso   1.00
O264   O     0.54819   0.49552   0.31218   0.00000  Uiso   1.00
O265   O     0.45181   0.50448   0.18783   0.00000  Uiso   1.00
O266   O     0.35406   0.49996   0.15349   0.00000  Uiso   1.00
S267   S     0.33844   0.45778   0.18538   0.00000  Uiso   1.00
S268   S     0.66167   0.54231   0.31458   0.00000  Uiso   1.00
Zn269  Zn    0.43565   0.50600   0.25521   0.00000  Uiso   1.00
Zn270  Zn    0.56435   0.49400   0.24479   0.00000  Uiso   1.00
C271   C     0.84810   0.59789   0.24897   0.00000  Uiso   1.00
C272   C     0.87211   0.53310   0.40651   0.00000  Uiso   1.00
C273   C     0.83306   0.49971   0.11589   0.00000  Uiso   1.00
C274   C     0.83363   0.50037   0.38410   0.00000  Uiso   1.00
C275   C     0.87259   0.53179   0.09271   0.00000  Uiso   1.00
C276   C     0.79408   0.46832   0.40729   0.00000  Uiso   1.00
C277   C     0.87299   0.53229   0.04623   0.00000  Uiso   1.00
C278   C     0.79371   0.46782   0.45376   0.00000  Uiso   1.00
C279   C     0.83343   0.49989   0.02332   0.00000  Uiso   1.00
C280   C     0.83329   0.50020   0.47666   0.00000  Uiso   1.00
C281   C     0.79410   0.46707   0.04710   0.00000  Uiso   1.00
C282   C     0.81856   0.40212   0.25112   0.00000  Uiso   1.00
C283   C     0.87263   0.53301   0.45288   0.00000  Uiso   1.00
C284   C     0.91194   0.56467   0.02238   0.00000  Uiso   1.00
C285   C     0.75477   0.43543   0.47760   0.00000  Uiso   1.00
C286   C     0.91170   0.56509   0.47575   0.00000  Uiso   1.00
C287   C     0.75504   0.43497   0.02423   0.00000  Uiso   1.00
C288   C     0.85591   0.65235   0.24855   0.00000  Uiso   1.00
C289   C     0.81075   0.34767   0.25176   0.00000  Uiso   1.00
C290   C     0.83360   0.50040   0.33626   0.00000  Uiso   1.00
C291   C     0.83307   0.49964   0.16374   0.00000  Uiso   1.00
C292   C     0.79464   0.46695   0.09346   0.00000  Uiso   1.00
H293   H     0.76599   0.44074   0.11186   0.00000  Uiso   1.00
H294   H     0.76779   0.66466   0.25480   0.00000  Uiso   1.00
H295   H     0.94996   0.38843   0.18149   0.00000  Uiso   1.00
H296   H     0.70326   0.58879   0.36652   0.00000  Uiso   1.00
H297   H     0.90081   0.55925   0.38808   0.00000  Uiso   1.00
H298   H     0.90239   0.55663   0.11099   0.00000  Uiso   1.00
H299   H     0.76426   0.44350   0.38902   0.00000  Uiso   1.00
H300   H     0.94238   0.58960   0.03978   0.00000  Uiso   1.00
H301   H     0.72433   0.41049   0.46021   0.00000  Uiso   1.00
H302   H     0.94203   0.59029   0.45757   0.00000  Uiso   1.00
H303   H     0.72474   0.40974   0.04240   0.00000  Uiso   1.00
H304   H     0.89886   0.33535   0.24562   0.00000  Uiso   1.00
N305   N     0.98344   0.48598   0.23783   0.00000  Uiso   1.00
N306   N     0.68322   0.51402   0.26217   0.00000  Uiso   1.00
O307   O     0.79642   0.57952   0.25299   0.00000  Uiso   1.00
O308   O     0.71941   0.42232   0.18700   0.00000  Uiso   1.00
O309   O     0.95180   0.42067   0.16487   0.00000  Uiso   1.00
O310   O     0.94755   0.57789   0.31278   0.00000  Uiso   1.00
O311   O     0.97952   0.50011   0.34651   0.00000  Uiso   1.00
O312   O     0.71523   0.57964   0.33442   0.00000  Uiso   1.00
O313   O     0.87025   0.42048   0.24702   0.00000  Uiso   1.00
O314   O     0.89280   0.57054   0.24519   0.00000  Uiso   1.00
O315   O     0.77387   0.42946   0.25482   0.00000  Uiso   1.00
O316   O     0.78514   0.50450   0.31998   0.00000  Uiso   1.00
O317   O     0.88153   0.49550   0.18003   0.00000  Uiso   1.00
O318   O     0.88152   0.49552   0.31218   0.00000  Uiso   1.00
O319   O     0.78515   0.50448   0.18783   0.00000  Uiso   1.00
O320   O     0.68739   0.49996   0.15349   0.00000  Uiso   1.00
S321   S     0.67178   0.45778   0.18538   0.00000  Uiso   1.00
S322   S     0.99500   0.54231   0.31458   0.00000  Uiso   1.00
Zn323  Zn    0.76898   0.50600   0.25521   0.00000  Uiso   1.00
Zn324  Zn    0.89769   0.49400   0.24479   0.00000  Uiso   1.00
C325   C     0.18144   0.93122   0.24897   0.00000  Uiso   1.00
C326   C     0.20544   0.86643   0.40651   0.00000  Uiso   1.00
C327   C     0.16639   0.83305   0.11589   0.00000  Uiso   1.00
C328   C     0.16697   0.83370   0.38410   0.00000  Uiso   1.00
C329   C     0.20592   0.86513   0.09271   0.00000  Uiso   1.00
C330   C     0.12741   0.80166   0.40729   0.00000  Uiso   1.00
C331   C     0.20632   0.86562   0.04623   0.00000  Uiso   1.00
C332   C     0.12704   0.80115   0.45376   0.00000  Uiso   1.00
C333   C     0.16676   0.83323   0.02332   0.00000  Uiso   1.00
C334   C     0.16662   0.83354   0.47666   0.00000  Uiso   1.00
C335   C     0.12744   0.80040   0.04710   0.00000  Uiso   1.00
C336   C     0.15189   0.73545   0.25112   0.00000  Uiso   1.00
C337   C     0.20597   0.86634   0.45288   0.00000  Uiso   1.00
C338   C     0.24527   0.89800   0.02238   0.00000  Uiso   1.00
C339   C     0.08811   0.76876   0.47760   0.00000  Uiso   1.00
C340   C     0.24504   0.89842   0.47575   0.00000  Uiso   1.00
C341   C     0.08838   0.76831   0.02423   0.00000  Uiso   1.00
C342   C     0.18925   0.98568   0.24855   0.00000  Uiso   1.00
C343   C     0.14408   0.68100   0.25176   0.00000  Uiso   1.00
C344   C     0.16693   0.83373   0.33626   0.00000  Uiso   1.00
C345   C     0.16641   0.83297   0.16374   0.00000  Uiso   1.00
C346   C     0.12797   0.80028   0.09346   0.00000  Uiso   1.00
H347   H     0.09932   0.77407   0.11186   0.00000  Uiso   1.00
H348   H     0.10112   0.99800   0.25480   0.00000  Uiso   1.00
H349   H     0.28329   0.72176   0.18149   0.00000  Uiso   1.00
H350   H     0.03659   0.92212   0.36652   0.00000  Uiso   1.00
H351   H     0.23414   0.89258   0.38808   0.00000  Uiso   1.00
H352   H     0.23572   0.88997   0.11099   0.00000  Uiso   1.00
H353   H     0.09759   0.77683   0.38902   0.00000  Uiso   1.00
H354   H     0.27572   0.92293   0.03978   0.00000  Uiso   1.00
H355   H     0.05766   0.74383   0.46021   0.00000  Uiso   1.00
H356   H     0.27537   0.92362   0.45757   0.00000  Uiso   1.00
H357   H     0.05807   0.74307   0.04240   0.00000  Uiso   1.00
H358   H     0.23220   0.66868   0.24562   0.00000  Uiso   1.00
N359   N     0.31678   0.81932   0.23783   0.00000  Uiso   1.00
N360   N     0.01656   0.84735   0.26217   0.00000  Uiso   1.00
O361   O     0.12975   0.91286   0.25299   0.00000  Uiso   1.00
O362   O     0.05274   0.75565   0.18700   0.00000  Uiso   1.00
O363   O     0.28513   0.75400   0.16487   0.00000  Uiso   1.00
O364   O     0.28088   0.91122   0.31278   0.00000  Uiso   1.00
O365   O     0.31285   0.83344   0.34651   0.00000  Uiso   1.00
O366   O     0.04856   0.91298   0.33442   0.00000  Uiso   1.00
O367   O     0.20358   0.75381   0.24702   0.00000  Uiso   1.00
O368   O     0.22613   0.90387   0.24519   0.00000  Uiso   1.00
O369   O     0.10720   0.76279   0.25482   0.00000  Uiso   1.00
O370   O     0.11847   0.83784   0.31998   0.00000  Uiso   1.00
O371   O     0.21486   0.82883   0.18003   0.00000  Uiso   1.00
O372   O     0.21485   0.82885   0.31218   0.00000  Uiso   1.00
O373   O     0.11848   0.83781   0.18783   0.00000  Uiso   1.00
O374   O     0.02073   0.83329   0.15349   0.00000  Uiso   1.00
S375   S     0.00511   0.79111   0.18538   0.00000  Uiso   1.00
S376   S     0.32833   0.87564   0.31458   0.00000  Uiso   1.00
Zn377  Zn    0.10231   0.83933   0.25521   0.00000  Uiso   1.00
Zn378  Zn    0.23102   0.82734   0.24479   0.00000  Uiso   1.00
C379   C     0.51477   0.93122   0.24897   0.00000  Uiso   1.00
C380   C     0.53878   0.86643   0.40651   0.00000  Uiso   1.00
C381   C     0.49972   0.83305   0.11589   0.00000  Uiso   1.00
C382   C     0.50030   0.83370   0.38410   0.00000  Uiso   1.00
C383   C     0.53925   0.86513   0.09271   0.00000  Uiso   1.00
C384   C     0.46075   0.80166   0.40729   0.00000  Uiso   1.00
C385   C     0.53966   0.86562   0.04623   0.00000  Uiso   1.00
C386   C     0.46037   0.80115   0.45376   0.00000  Uiso   1.00
C387   C     0.50009   0.83323   0.02332   0.00000  Uiso   1.00
C388   C     0.49995   0.83354   0.47666   0.00000  Uiso   1.00
C389   C     0.46077   0.80040   0.04710   0.00000  Uiso   1.00
C390   C     0.48523   0.73545   0.25112   0.00000  Uiso   1.00
C391   C     0.53930   0.86634   0.45288   0.00000  Uiso   1.00
C392   C     0.57860   0.89800   0.02238   0.00000  Uiso   1.00
C393   C     0.42144   0.76876   0.47760   0.00000  Uiso   1.00
C394   C     0.57837   0.89842   0.47575   0.00000  Uiso   1.00
C395   C     0.42171   0.76831   0.02423   0.00000  Uiso   1.00
C396   C     0.52258   0.98568   0.24855   0.00000  Uiso   1.00
C397   C     0.47741   0.68100   0.25176   0.00000  Uiso   1.00
C398   C     0.50027   0.83373   0.33626   0.00000  Uiso   1.00
C399   C     0.49974   0.83297   0.16374   0.00000  Uiso   1.00
C400   C     0.46131   0.80028   0.09346   0.00000  Uiso   1.00
H401   H     0.43265   0.77407   0.11186   0.00000  Uiso   1.00
H402   H     0.43446   0.99800   0.25480   0.00000  Uiso   1.00
H403   H     0.61662   0.72176   0.18149   0.00000  Uiso   1.00
H404   H     0.36993   0.92212   0.36652   0.00000  Uiso   1.00
H405   H     0.56748   0.89258   0.38808   0.00000  Uiso   1.00
H406   H     0.56905   0.88997   0.11099   0.00000  Uiso   1.00
H407   H     0.43092   0.77683   0.38902   0.00000  Uiso   1.00
H408   H     0.60905   0.92293   0.03978   0.00000  Uiso   1.00
H409   H     0.39100   0.74383   0.46021   0.00000  Uiso   1.00
H410   H     0.60870   0.92362   0.45757   0.00000  Uiso   1.00
H411   H     0.39141   0.74307   0.04240   0.00000  Uiso   1.00
H412   H     0.56553   0.66868   0.24562   0.00000  Uiso   1.00
N413   N     0.65011   0.81932   0.23783   0.00000  Uiso   1.00
N414   N     0.34989   0.84735   0.26217   0.00000  Uiso   1.00
O415   O     0.46308   0.91286   0.25299   0.00000  Uiso   1.00
O416   O     0.38607   0.75565   0.18700   0.00000  Uiso   1.00
O417   O     0.61846   0.75400   0.16487   0.00000  Uiso   1.00
O418   O     0.61421   0.91122   0.31278   0.00000  Uiso   1.00
O419   O     0.64619   0.83344   0.34651   0.00000  Uiso   1.00
O420   O     0.38190   0.91298   0.33442   0.00000  Uiso   1.00
O421   O     0.53692   0.75381   0.24702   0.00000  Uiso   1.00
O422   O     0.55946   0.90387   0.24519   0.00000  Uiso   1.00
O423   O     0.44054   0.76279   0.25482   0.00000  Uiso   1.00
O424   O     0.45181   0.83784   0.31998   0.00000  Uiso   1.00
O425   O     0.54819   0.82883   0.18003   0.00000  Uiso   1.00
O426   O     0.54819   0.82885   0.31218   0.00000  Uiso   1.00
O427   O     0.45181   0.83781   0.18783   0.00000  Uiso   1.00
O428   O     0.35406   0.83329   0.15349   0.00000  Uiso   1.00
S429   S     0.33844   0.79111   0.18538   0.00000  Uiso   1.00
S430   S     0.66167   0.87564   0.31458   0.00000  Uiso   1.00
Zn431  Zn    0.43565   0.83933   0.25521   0.00000  Uiso   1.00
Zn432  Zn    0.56435   0.82734   0.24479   0.00000  Uiso   1.00
C433   C     0.84810   0.93122   0.24897   0.00000  Uiso   1.00
C434   C     0.87211   0.86643   0.40651   0.00000  Uiso   1.00
C435   C     0.83306   0.83305   0.11589   0.00000  Uiso   1.00
C436   C     0.83363   0.83370   0.38410   0.00000  Uiso   1.00
C437   C     0.87259   0.86513   0.09271   0.00000  Uiso   1.00
C438   C     0.79408   0.80166   0.40729   0.00000  Uiso   1.00
C439   C     0.87299   0.86562   0.04623   0.00000  Uiso   1.00
C440   C     0.79371   0.80115   0.45376   0.00000  Uiso   1.00
C441   C     0.83343   0.83323   0.02332   0.00000  Uiso   1.00
C442   C     0.83329   0.83354   0.47666   0.00000  Uiso   1.00
C443   C     0.79410   0.80040   0.04710   0.00000  Uiso   1.00
C444   C     0.81856   0.73545   0.25112   0.00000  Uiso   1.00
C445   C     0.87263   0.86634   0.45288   0.00000  Uiso   1.00
C446   C     0.91194   0.89800   0.02238   0.00000  Uiso   1.00
C447   C     0.75477   0.76876   0.47760   0.00000  Uiso   1.00
C448   C     0.91170   0.89842   0.47575   0.00000  Uiso   1.00
C449   C     0.75504   0.76831   0.02423   0.00000  Uiso   1.00
C450   C     0.85591   0.98568   0.24855   0.00000  Uiso   1.00
C451   C     0.81075   0.68100   0.25176   0.00000  Uiso   1.00
C452   C     0.83360   0.83373   0.33626   0.00000  Uiso   1.00
C453   C     0.83307   0.83297   0.16374   0.00000  Uiso   1.00
C454   C     0.79464   0.80028   0.09346   0.00000  Uiso   1.00
H455   H     0.76599   0.77407   0.11186   0.00000  Uiso   1.00
H456   H     0.76779   0.99800   0.25480   0.00000  Uiso   1.00
H457   H     0.94996   0.72176   0.18149   0.00000  Uiso   1.00
H458   H     0.70326   0.92212   0.36652   0.00000  Uiso   1.00
H459   H     0.90081   0.89258   0.38808   0.00000  Uiso   1.00
H460   H     0.90239   0.88997   0.11099   0.00000  Uiso   1.00
H461   H     0.76426   0.77683   0.38902   0.00000  Uiso   1.00
H462   H     0.94238   0.92293   0.03978   0.00000  Uiso   1.00
H463   H     0.72433   0.74383   0.46021   0.00000  Uiso   1.00
H464   H     0.94203   0.92362   0.45757   0.00000  Uiso   1.00
H465   H     0.72474   0.74307   0.04240   0.00000  Uiso   1.00
H466   H     0.89886   0.66868   0.24562   0.00000  Uiso   1.00
N467   N     0.98344   0.81932   0.23783   0.00000  Uiso   1.00
N468   N     0.68322   0.84735   0.26217   0.00000  Uiso   1.00
O469   O     0.79642   0.91286   0.25299   0.00000  Uiso   1.00
O470   O     0.71941   0.75565   0.18700   0.00000  Uiso   1.00
O471   O     0.95180   0.75400   0.16487   0.00000  Uiso   1.00
O472   O     0.94755   0.91122   0.31278   0.00000  Uiso   1.00
O473   O     0.97952   0.83344   0.34651   0.00000  Uiso   1.00
O474   O     0.71523   0.91298   0.33442   0.00000  Uiso   1.00
O475   O     0.87025   0.75381   0.24702   0.00000  Uiso   1.00
O476   O     0.89280   0.90387   0.24519   0.00000  Uiso   1.00
O477   O     0.77387   0.76279   0.25482   0.00000  Uiso   1.00
O478   O     0.78514   0.83784   0.31998   0.00000  Uiso   1.00
O479   O     0.88153   0.82883   0.18003   0.00000  Uiso   1.00
O480   O     0.88152   0.82885   0.31218   0.00000  Uiso   1.00
O481   O     0.78515   0.83781   0.18783   0.00000  Uiso   1.00
O482   O     0.68739   0.83329   0.15349   0.00000  Uiso   1.00
S483   S     0.67178   0.79111   0.18538   0.00000  Uiso   1.00
S484   S     0.99500   0.87564   0.31458   0.00000  Uiso   1.00
Zn485  Zn    0.76898   0.83933   0.25521   0.00000  Uiso   1.00
Zn486  Zn    0.89769   0.82734   0.24479   0.00000  Uiso   1.00
C487   C     0.18144   0.26456   0.74897   0.00000  Uiso   1.00
C488   C     0.20544   0.19976   0.90651   0.00000  Uiso   1.00
C489   C     0.16639   0.16638   0.61589   0.00000  Uiso   1.00
C490   C     0.16697   0.16703   0.88410   0.00000  Uiso   1.00
C491   C     0.20592   0.19846   0.59271   0.00000  Uiso   1.00
C492   C     0.12741   0.13499   0.90729   0.00000  Uiso   1.00
C493   C     0.20632   0.19896   0.54623   0.00000  Uiso   1.00
C494   C     0.12704   0.13449   0.95376   0.00000  Uiso   1.00
C495   C     0.16676   0.16656   0.52332   0.00000  Uiso   1.00
C496   C     0.16662   0.16687   0.97666   0.00000  Uiso   1.00
C497   C     0.12744   0.13373   0.54710   0.00000  Uiso   1.00
C498   C     0.15189   0.06878   0.75112   0.00000  Uiso   1.00
C499   C     0.20597   0.19967   0.95288   0.00000  Uiso   1.00
C500   C     0.24527   0.23133   0.52238   0.00000  Uiso   1.00
C501   C     0.08811   0.10209   0.97760   0.00000  Uiso   1.00
C502   C     0.24504   0.23175   0.97575   0.00000  Uiso   1.00
C503   C     0.08838   0.10164   0.52423   0.00000  Uiso   1.00
C504   C     0.18925   0.31901   0.74855   0.00000  Uiso   1.00
C505   C     0.14408   0.01434   0.75176   0.00000  Uiso   1.00
C506   C     0.16693   0.16707   0.83626   0.00000  Uiso   1.00
C507   C     0.16641   0.16630   0.66374   0.00000  Uiso   1.00
C508   C     0.12797   0.13362   0.59346   0.00000  Uiso   1.00
H509   H     0.09932   0.10740   0.61186   0.00000  Uiso   1.00
H510   H     0.10112   0.33133   0.75480   0.00000  Uiso   1.00
H511   H     0.28329   0.05510   0.68149   0.00000  Uiso   1.00
H512   H     0.03659   0.25546   0.86652   0.00000  Uiso   1.00
H513   H     0.23414   0.22592   0.88808   0.00000  Uiso   1.00
H514   H     0.23572   0.22330   0.61099   0.00000  Uiso   1.00
H515   H     0.09759   0.11017   0.88902   0.00000  Uiso   1.00
H516   H     0.27572   0.25626   0.53978   0.00000  Uiso   1.00
H517   H     0.05766   0.07716   0.96021   0.00000  Uiso   1.00
H518   H     0.27537   0.25696   0.95757   0.00000  Uiso   1.00
H519   H     0.05807   0.07641   0.54240   0.00000  Uiso   1.00
H520   H     0.23220   0.00201   0.74562   0.00000  Uiso   1.00
N521   N     0.31678   0.15265   0.73783   0.00000  Uiso   1.00
N522   N     0.01656   0.18068   0.76217   0.00000  Uiso   1.00
O523   O     0.12975   0.24619   0.75299   0.00000  Uiso   1.00
O524   O     0.05274   0.08898   0.68700   0.00000  Uiso   1.00
O525   O     0.28513   0.08733   0.66487   0.00000  Uiso   1.00
O526   O     0.28088   0.24456   0.81278   0.00000  Uiso   1.00
O527   O     0.31285   0.16678   0.84651   0.00000  Uiso   1.00
O528   O     0.04856   0.24631   0.83442   0.00000  Uiso   1.00
O529   O     0.20358   0.08714   0.74702   0.00000  Uiso   1.00
O530   O     0.22613   0.23721   0.74519   0.00000  Uiso   1.00
O531   O     0.10720   0.09613   0.75482   0.00000  Uiso   1.00
O532   O     0.11847   0.17117   0.81998   0.00000  Uiso   1.00
O533   O     0.21486   0.16216   0.68003   0.00000  Uiso   1.00
O534   O     0.21485   0.16219   0.81218   0.00000  Uiso   1.00
O535   O     0.11848   0.17115   0.68783   0.00000  Uiso   1.00
O536   O     0.02073   0.16663   0.65349   0.00000  Uiso   1.00
S537   S     0.00511   0.12445   0.68538   0.00000  Uiso   1.00
S538   S     0.32833   0.20898   0.81458   0.00000  Uiso   1.00
Zn539  Zn    0.10231   0.17266   0.75521   0.00000  Uiso   1.00
Zn540  Zn    0.23102   0.16067   0.74479   0.00000  Uiso   1.00
C541   C     0.51477   0.26456   0.74897   0.00000  Uiso   1.00
C542   C     0.53878   0.19976   0.90651   0.00000  Uiso   1.00
C543   C     0.49972   0.16638   0.61589   0.00000  Uiso   1.00
C544   C     0.50030   0.16703   0.88410   0.00000  Uiso   1.00
C545   C     0.53925   0.19846   0.59271   0.00000  Uiso   1.00
C546   C     0.46075   0.13499   0.90729   0.00000  Uiso   1.00
C547   C     0.53966   0.19896   0.54623   0.00000  Uiso   1.00
C548   C     0.46037   0.13449   0.95376   0.00000  Uiso   1.00
C549   C     0.50009   0.16656   0.52332   0.00000  Uiso   1.00
C550   C     0.49995   0.16687   0.97666   0.00000  Uiso   1.00
C551   C     0.46077   0.13373   0.54710   0.00000  Uiso   1.00
C552   C     0.48523   0.06878   0.75112   0.00000  Uiso   1.00
C553   C     0.53930   0.19967   0.95288   0.00000  Uiso   1.00
C554   C     0.57860   0.23133   0.52238   0.00000  Uiso   1.00
C555   C     0.42144   0.10209   0.97760   0.00000  Uiso   1.00
C556   C     0.57837   0.23175   0.97575   0.00000  Uiso   1.00
C557   C     0.42171   0.10164   0.52423   0.00000  Uiso   1.00
C558   C     0.52258   0.31901   0.74855   0.00000  Uiso   1.00
C559   C     0.47741   0.01434   0.75176   0.00000  Uiso   1.00
C560   C     0.50027   0.16707   0.83626   0.00000  Uiso   1.00
C561   C     0.49974   0.16630   0.66374   0.00000  Uiso   1.00
C562   C     0.46131   0.13362   0.59346   0.00000  Uiso   1.00
H563   H     0.43265   0.10740   0.61186   0.00000  Uiso   1.00
H564   H     0.43446   0.33133   0.75480   0.00000  Uiso   1.00
H565   H     0.61662   0.05510   0.68149   0.00000  Uiso   1.00
H566   H     0.36993   0.25546   0.86652   0.00000  Uiso   1.00
H567   H     0.56748   0.22592   0.88808   0.00000  Uiso   1.00
H568   H     0.56905   0.22330   0.61099   0.00000  Uiso   1.00
H569   H     0.43092   0.11017   0.88902   0.00000  Uiso   1.00
H570   H     0.60905   0.25626   0.53978   0.00000  Uiso   1.00
H571   H     0.39100   0.07716   0.96021   0.00000  Uiso   1.00
H572   H     0.60870   0.25696   0.95757   0.00000  Uiso   1.00
H573   H     0.39141   0.07641   0.54240   0.00000  Uiso   1.00
H574   H     0.56553   0.00201   0.74562   0.00000  Uiso   1.00
N575   N     0.65011   0.15265   0.73783   0.00000  Uiso   1.00
N576   N     0.34989   0.18068   0.76217   0.00000  Uiso   1.00
O577   O     0.46308   0.24619   0.75299   0.00000  Uiso   1.00
O578   O     0.38607   0.08898   0.68700   0.00000  Uiso   1.00
O579   O     0.61846   0.08733   0.66487   0.00000  Uiso   1.00
O580   O     0.61421   0.24456   0.81278   0.00000  Uiso   1.00
O581   O     0.64619   0.16678   0.84651   0.00000  Uiso   1.00
O582   O     0.38190   0.24631   0.83442   0.00000  Uiso   1.00
O583   O     0.53692   0.08714   0.74702   0.00000  Uiso   1.00
O584   O     0.55946   0.23721   0.74519   0.00000  Uiso   1.00
O585   O     0.44054   0.09613   0.75482   0.00000  Uiso   1.00
O586   O     0.45181   0.17117   0.81998   0.00000  Uiso   1.00
O587   O     0.54819   0.16216   0.68003   0.00000  Uiso   1.00
O588   O     0.54819   0.16219   0.81218   0.00000  Uiso   1.00
O589   O     0.45181   0.17115   0.68783   0.00000  Uiso   1.00
O590   O     0.35406   0.16663   0.65349   0.00000  Uiso   1.00
S591   S     0.33844   0.12445   0.68538   0.00000  Uiso   1.00
S592   S     0.66167   0.20898   0.81458   0.00000  Uiso   1.00
Zn593  Zn    0.43565   0.17266   0.75521   0.00000  Uiso   1.00
Zn594  Zn    0.56435   0.16067   0.74479   0.00000  Uiso   1.00
C595   C     0.84810   0.26456   0.74897   0.00000  Uiso   1.00
C596   C     0.87211   0.19976   0.90651   0.00000  Uiso   1.00
C597   C     0.83306   0.16638   0.61589   0.00000  Uiso   1.00
C598   C     0.83363   0.16703   0.88410   0.00000  Uiso   1.00
C599   C     0.87259   0.19846   0.59271   0.00000  Uiso   1.00
C600   C     0.79408   0.13499   0.90729   0.00000  Uiso   1.00
C601   C     0.87299   0.19896   0.54623   0.00000  Uiso   1.00
C602   C     0.79371   0.13449   0.95376   0.00000  Uiso   1.00
C603   C     0.83343   0.16656   0.52332   0.00000  Uiso   1.00
C604   C     0.83329   0.16687   0.97666   0.00000  Uiso   1.00
C605   C     0.79410   0.13373   0.54710   0.00000  Uiso   1.00
C606   C     0.81856   0.06878   0.75112   0.00000  Uiso   1.00
C607   C     0.87263   0.19967   0.95288   0.00000  Uiso   1.00
C608   C     0.91194   0.23133   0.52238   0.00000  Uiso   1.00
C609   C     0.75477   0.10209   0.97760   0.00000  Uiso   1.00
C610   C     0.91170   0.23175   0.97575   0.00000  Uiso   1.00
C611   C     0.75504   0.10164   0.52423   0.00000  Uiso   1.00
C612   C     0.85591   0.31901   0.74855   0.00000  Uiso   1.00
C613   C     0.81075   0.01434   0.75176   0.00000  Uiso   1.00
C614   C     0.83360   0.16707   0.83626   0.00000  Uiso   1.00
C615   C     0.83307   0.16630   0.66374   0.00000  Uiso   1.00
C616   C     0.79464   0.13362   0.59346   0.00000  Uiso   1.00
H617   H     0.76599   0.10740   0.61186   0.00000  Uiso   1.00
H618   H     0.76779   0.33133   0.75480   0.00000  Uiso   1.00
H619   H     0.94996   0.05510   0.68149   0.00000  Uiso   1.00
H620   H     0.70326   0.25546   0.86652   0.00000  Uiso   1.00
H621   H     0.90081   0.22592   0.88808   0.00000  Uiso   1.00
H622   H     0.90239   0.22330   0.61099   0.00000  Uiso   1.00
H623   H     0.76426   0.11017   0.88902   0.00000  Uiso   1.00
H624   H     0.94238   0.25626   0.53978   0.00000  Uiso   1.00
H625   H     0.72433   0.07716   0.96021   0.00000  Uiso   1.00
H626   H     0.94203   0.25696   0.95757   0.00000  Uiso   1.00
H627   H     0.72474   0.07641   0.54240   0.00000  Uiso   1.00
H628   H     0.89886   0.00201   0.74562   0.00000  Uiso   1.00
N629   N     0.98344   0.15265   0.73783   0.00000  Uiso   1.00
N630   N     0.68322   0.18068   0.76217   0.00000  Uiso   1.00
O631   O     0.79642   0.24619   0.75299   0.00000  Uiso   1.00
O632   O     0.71941   0.08898   0.68700   0.00000  Uiso   1.00
O633   O     0.95180   0.08733   0.66487   0.00000  Uiso   1.00
O634   O     0.94755   0.24456   0.81278   0.00000  Uiso   1.00
O635   O     0.97952   0.16678   0.84651   0.00000  Uiso   1.00
O636   O     0.71523   0.24631   0.83442   0.00000  Uiso   1.00
O637   O     0.87025   0.08714   0.74702   0.00000  Uiso   1.00
O638   O     0.89280   0.23721   0.74519   0.00000  Uiso   1.00
O639   O     0.77387   0.09613   0.75482   0.00000  Uiso   1.00
O640   O     0.78514   0.17117   0.81998   0.00000  Uiso   1.00
O641   O     0.88153   0.16216   0.68003   0.00000  Uiso   1.00
O642   O     0.88152   0.16219   0.81218   0.00000  Uiso   1.00
O643   O     0.78515   0.17115   0.68783   0.00000  Uiso   1.00
O644   O     0.68739   0.16663   0.65349   0.00000  Uiso   1.00
S645   S     0.67178   0.12445   0.68538   0.00000  Uiso   1.00
S646   S     0.99500   0.20898   0.81458   0.00000  Uiso   1.00
Zn647  Zn    0.76898   0.17266   0.75521   0.00000  Uiso   1.00
Zn648  Zn    0.89769   0.16067   0.74479   0.00000  Uiso   1.00
C649   C     0.18144   0.59789   0.74897   0.00000  Uiso   1.00
C650   C     0.20544   0.53310   0.90651   0.00000  Uiso   1.00
C651   C     0.16639   0.49971   0.61589   0.00000  Uiso   1.00
C652   C     0.16697   0.50037   0.88410   0.00000  Uiso   1.00
C653   C     0.20592   0.53179   0.59271   0.00000  Uiso   1.00
C654   C     0.12741   0.46832   0.90729   0.00000  Uiso   1.00
C655   C     0.20632   0.53229   0.54623   0.00000  Uiso   1.00
C656   C     0.12704   0.46782   0.95376   0.00000  Uiso   1.00
C657   C     0.16676   0.49989   0.52332   0.00000  Uiso   1.00
C658   C     0.16662   0.50020   0.97666   0.00000  Uiso   1.00
C659   C     0.12744   0.46707   0.54710   0.00000  Uiso   1.00
C660   C     0.15189   0.40212   0.75112   0.00000  Uiso   1.00
C661   C     0.20597   0.53301   0.95288   0.00000  Uiso   1.00
C662   C     0.24527   0.56467   0.52238   0.00000  Uiso   1.00
C663   C     0.08811   0.43543   0.97760   0.00000  Uiso   1.00
C664   C     0.24504   0.56509   0.97575   0.00000  Uiso   1.00
C665   C     0.08838   0.43497   0.52423   0.00000  Uiso   1.00
C666   C     0.18925   0.65235   0.74855   0.00000  Uiso   1.00
C667   C     0.14408   0.34767   0.75176   0.00000  Uiso   1.00
C668   C     0.16693   0.50040   0.83626   0.00000  Uiso   1.00
C669   C     0.16641   0.49964   0.66374   0.00000  Uiso   1.00
C670   C     0.12797   0.46695   0.59346   0.00000  Uiso   1.00
H671   H     0.09932   0.44074   0.61186   0.00000  Uiso   1.00
H672   H     0.10112   0.66466   0.75480   0.00000  Uiso   1.00
H673   H     0.28329   0.38843   0.68149   0.00000  Uiso   1.00
H674   H     0.03659   0.58879   0.86652   0.00000  Uiso   1.00
H675   H     0.23414   0.55925   0.88808   0.00000  Uiso   1.00
H676   H     0.23572   0.55663   0.61099   0.00000  Uiso   1.00
H677   H     0.09759   0.44350   0.88902   0.00000  Uiso   1.00
H678   H     0.27572   0.58960   0.53978   0.00000  Uiso   1.00
H679   H     0.05766   0.41049   0.96021   0.00000  Uiso   1.00
H680   H     0.27537   0.59029   0.95757   0.00000  Uiso   1.00
H681   H     0.05807   0.40974   0.54240   0.00000  Uiso   1.00
H682   H     0.23220   0.33535   0.74562   0.00000  Uiso   1.00
N683   N     0.31678   0.48598   0.73783   0.00000  Uiso   1.00
N684   N     0.01656   0.51402   0.76217   0.00000  Uiso   1.00
O685   O     0.12975   0.57952   0.75299   0.00000  Uiso   1.00
O686   O     0.05274   0.42232   0.68700   0.00000  Uiso   1.00
O687   O     0.28513   0.42067   0.66487   0.00000  Uiso   1.00
O688   O     0.28088   0.57789   0.81278   0.00000  Uiso   1.00
O689   O     0.31285   0.50011   0.84651   0.00000  Uiso   1.00
O690   O     0.04856   0.57964   0.83442   0.00000  Uiso   1.00
O691   O     0.20358   0.42048   0.74702   0.00000  Uiso   1.00
O692   O     0.22613   0.57054   0.74519   0.00000  Uiso   1.00
O693   O     0.10720   0.42946   0.75482   0.00000  Uiso   1.00
O694   O     0.11847   0.50450   0.81998   0.00000  Uiso   1.00
O695   O     0.21486   0.49550   0.68003   0.00000  Uiso   1.00
O696   O     0.21485   0.49552   0.81218   0.00000  Uiso   1.00
O697   O     0.11848   0.50448   0.68783   0.00000  Uiso   1.00
O698   O     0.02073   0.49996   0.65349   0.00000  Uiso   1.00
S699   S     0.00511   0.45778   0.68538   0.00000  Uiso   1.00
S700   S     0.32833   0.54231   0.81458   0.00000  Uiso   1.00
Zn701  Zn    0.10231   0.50600   0.75521   0.00000  Uiso   1.00
Zn702  Zn    0.23102   0.49400   0.74479   0.00000  Uiso   1.00
C703   C     0.51477   0.59789   0.74897   0.00000  Uiso   1.00
C704   C     0.53878   0.53310   0.90651   0.00000  Uiso   1.00
C705   C     0.49972   0.49971   0.61589   0.00000  Uiso   1.00
C706   C     0.50030   0.50037   0.88410   0.00000  Uiso   1.00
C707   C     0.53925   0.53179   0.59271   0.00000  Uiso   1.00
C708   C     0.46075   0.46832   0.90729   0.00000  Uiso   1.00
C709   C     0.53966   0.53229   0.54623   0.00000  Uiso   1.00
C710   C     0.46037   0.46782   0.95376   0.00000  Uiso   1.00
C711   C     0.50009   0.49989   0.52332   0.00000  Uiso   1.00
C712   C     0.49995   0.50020   0.97666   0.00000  Uiso   1.00
C713   C     0.46077   0.46707   0.54710   0.00000  Uiso   1.00
C714   C     0.48523   0.40212   0.75112   0.00000  Uiso   1.00
C715   C     0.53930   0.53301   0.95288   0.00000  Uiso   1.00
C716   C     0.57860   0.56467   0.52238   0.00000  Uiso   1.00
C717   C     0.42144   0.43543   0.97760   0.00000  Uiso   1.00
C718   C     0.57837   0.56509   0.97575   0.00000  Uiso   1.00
C719   C     0.42171   0.43497   0.52423   0.00000  Uiso   1.00
C720   C     0.52258   0.65235   0.74855   0.00000  Uiso   1.00
C721   C     0.47741   0.34767   0.75176   0.00000  Uiso   1.00
C722   C     0.50027   0.50040   0.83626   0.00000  Uiso   1.00
C723   C     0.49974   0.49964   0.66374   0.00000  Uiso   1.00
C724   C     0.46131   0.46695   0.59346   0.00000  Uiso   1.00
H725   H     0.43265   0.44074   0.61186   0.00000  Uiso   1.00
H726   H     0.43446   0.66466   0.75480   0.00000  Uiso   1.00
H727   H     0.61662   0.38843   0.68149   0.00000  Uiso   1.00
H728   H     0.36993   0.58879   0.86652   0.00000  Uiso   1.00
H729   H     0.56748   0.55925   0.88808   0.00000  Uiso   1.00
H730   H     0.56905   0.55663   0.61099   0.00000  Uiso   1.00
H731   H     0.43092   0.44350   0.88902   0.00000  Uiso   1.00
H732   H     0.60905   0.58960   0.53978   0.00000  Uiso   1.00
H733   H     0.39100   0.41049   0.96021   0.00000  Uiso   1.00
H734   H     0.60870   0.59029   0.95757   0.00000  Uiso   1.00
H735   H     0.39141   0.40974   0.54240   0.00000  Uiso   1.00
H736   H     0.56553   0.33535   0.74562   0.00000  Uiso   1.00
N737   N     0.65011   0.48598   0.73783   0.00000  Uiso   1.00
N738   N     0.34989   0.51402   0.76217   0.00000  Uiso   1.00
O739   O     0.46308   0.57952   0.75299   0.00000  Uiso   1.00
O740   O     0.38607   0.42232   0.68700   0.00000  Uiso   1.00
O741   O     0.61846   0.42067   0.66487   0.00000  Uiso   1.00
O742   O     0.61421   0.57789   0.81278   0.00000  Uiso   1.00
O743   O     0.64619   0.50011   0.84651   0.00000  Uiso   1.00
O744   O     0.38190   0.57964   0.83442   0.00000  Uiso   1.00
O745   O     0.53692   0.42048   0.74702   0.00000  Uiso   1.00
O746   O     0.55946   0.57054   0.74519   0.00000  Uiso   1.00
O747   O     0.44054   0.42946   0.75482   0.00000  Uiso   1.00
O748   O     0.45181   0.50450   0.81998   0.00000  Uiso   1.00
O749   O     0.54819   0.49550   0.68003   0.00000  Uiso   1.00
O750   O     0.54819   0.49552   0.81218   0.00000  Uiso   1.00
O751   O     0.45181   0.50448   0.68783   0.00000  Uiso   1.00
O752   O     0.35406   0.49996   0.65349   0.00000  Uiso   1.00
S753   S     0.33844   0.45778   0.68538   0.00000  Uiso   1.00
S754   S     0.66167   0.54231   0.81458   0.00000  Uiso   1.00
Zn755  Zn    0.43565   0.50600   0.75521   0.00000  Uiso   1.00
Zn756  Zn    0.56435   0.49400   0.74479   0.00000  Uiso   1.00
C757   C     0.84810   0.59789   0.74897   0.00000  Uiso   1.00
C758   C     0.87211   0.53310   0.90651   0.00000  Uiso   1.00
C759   C     0.83306   0.49971   0.61589   0.00000  Uiso   1.00
C760   C     0.83363   0.50037   0.88410   0.00000  Uiso   1.00
C761   C     0.87259   0.53179   0.59271   0.00000  Uiso   1.00
C762   C     0.79408   0.46832   0.90729   0.00000  Uiso   1.00
C763   C     0.87299   0.53229   0.54623   0.00000  Uiso   1.00
C764   C     0.79371   0.46782   0.95376   0.00000  Uiso   1.00
C765   C     0.83343   0.49989   0.52332   0.00000  Uiso   1.00
C766   C     0.83329   0.50020   0.97666   0.00000  Uiso   1.00
C767   C     0.79410   0.46707   0.54710   0.00000  Uiso   1.00
C768   C     0.81856   0.40212   0.75112   0.00000  Uiso   1.00
C769   C     0.87263   0.53301   0.95288   0.00000  Uiso   1.00
C770   C     0.91194   0.56467   0.52238   0.00000  Uiso   1.00
C771   C     0.75477   0.43543   0.97760   0.00000  Uiso   1.00
C772   C     0.91170   0.56509   0.97575   0.00000  Uiso   1.00
C773   C     0.75504   0.43497   0.52423   0.00000  Uiso   1.00
C774   C     0.85591   0.65235   0.74855   0.00000  Uiso   1.00
C775   C     0.81075   0.34767   0.75176   0.00000  Uiso   1.00
C776   C     0.83360   0.50040   0.83626   0.00000  Uiso   1.00
C777   C     0.83307   0.49964   0.66374   0.00000  Uiso   1.00
C778   C     0.79464   0.46695   0.59346   0.00000  Uiso   1.00
H779   H     0.76599   0.44074   0.61186   0.00000  Uiso   1.00
H780   H     0.76779   0.66466   0.75480   0.00000  Uiso   1.00
H781   H     0.94996   0.38843   0.68149   0.00000  Uiso   1.00
H782   H     0.70326   0.58879   0.86652   0.00000  Uiso   1.00
H783   H     0.90081   0.55925   0.88808   0.00000  Uiso   1.00
H784   H     0.90239   0.55663   0.61099   0.00000  Uiso   1.00
H785   H     0.76426   0.44350   0.88902   0.00000  Uiso   1.00
H786   H     0.94238   0.58960   0.53978   0.00000  Uiso   1.00
H787   H     0.72433   0.41049   0.96021   0.00000  Uiso   1.00
H788   H     0.94203   0.59029   0.95757   0.00000  Uiso   1.00
H789   H     0.72474   0.40974   0.54240   0.00000  Uiso   1.00
H790   H     0.89886   0.33535   0.74562   0.00000  Uiso   1.00
N791   N     0.98344   0.48598   0.73783   0.00000  Uiso   1.00
N792   N     0.68322   0.51402   0.76217   0.00000  Uiso   1.00
O793   O     0.79642   0.57952   0.75299   0.00000  Uiso   1.00
O794   O     0.71941   0.42232   0.68700   0.00000  Uiso   1.00
O795   O     0.95180   0.42067   0.66487   0.00000  Uiso   1.00
O796   O     0.94755   0.57789   0.81278   0.00000  Uiso   1.00
O797   O     0.97952   0.50011   0.84651   0.00000  Uiso   1.00
O798   O     0.71523   0.57964   0.83442   0.00000  Uiso   1.00
O799   O     0.87025   0.42048   0.74702   0.00000  Uiso   1.00
O800   O     0.89280   0.57054   0.74519   0.00000  Uiso   1.00
O801   O     0.77387   0.42946   0.75482   0.00000  Uiso   1.00
O802   O     0.78514   0.50450   0.81998   0.00000  Uiso   1.00
O803   O     0.88153   0.49550   0.68003   0.00000  Uiso   1.00
O804   O     0.88152   0.49552   0.81218   0.00000  Uiso   1.00
O805   O     0.78515   0.50448   0.68783   0.00000  Uiso   1.00
O806   O     0.68739   0.49996   0.65349   0.00000  Uiso   1.00
S807   S     0.67178   0.45778   0.68538   0.00000  Uiso   1.00
S808   S     0.99500   0.54231   0.81458   0.00000  Uiso   1.00
Zn809  Zn    0.76898   0.50600   0.75521   0.00000  Uiso   1.00
Zn810  Zn    0.89769   0.49400   0.74479   0.00000  Uiso   1.00
C811   C     0.18144   0.93122   0.74897   0.00000  Uiso   1.00
C812   C     0.20544   0.86643   0.90651   0.00000  Uiso   1.00
C813   C     0.16639   0.83305   0.61589   0.00000  Uiso   1.00
C814   C     0.16697   0.83370   0.88410   0.00000  Uiso   1.00
C815   C     0.20592   0.86513   0.59271   0.00000  Uiso   1.00
C816   C     0.12741   0.80166   0.90729   0.00000  Uiso   1.00
C817   C     0.20632   0.86562   0.54623   0.00000  Uiso   1.00
C818   C     0.12704   0.80115   0.95376   0.00000  Uiso   1.00
C819   C     0.16676   0.83323   0.52332   0.00000  Uiso   1.00
C820   C     0.16662   0.83354   0.97666   0.00000  Uiso   1.00
C821   C     0.12744   0.80040   0.54710   0.00000  Uiso   1.00
C822   C     0.15189   0.73545   0.75112   0.00000  Uiso   1.00
C823   C     0.20597   0.86634   0.95288   0.00000  Uiso   1.00
C824   C     0.24527   0.89800   0.52238   0.00000  Uiso   1.00
C825   C     0.08811   0.76876   0.97760   0.00000  Uiso   1.00
C826   C     0.24504   0.89842   0.97575   0.00000  Uiso   1.00
C827   C     0.08838   0.76831   0.52423   0.00000  Uiso   1.00
C828   C     0.18925   0.98568   0.74855   0.00000  Uiso   1.00
C829   C     0.14408   0.68100   0.75176   0.00000  Uiso   1.00
C830   C     0.16693   0.83373   0.83626   0.00000  Uiso   1.00
C831   C     0.16641   0.83297   0.66374   0.00000  Uiso   1.00
C832   C     0.12797   0.80028   0.59346   0.00000  Uiso   1.00
H833   H     0.09932   0.77407   0.61186   0.00000  Uiso   1.00
H834   H     0.10112   0.99800   0.75480   0.00000  Uiso   1.00
H835   H     0.28329   0.72176   0.68149   0.00000  Uiso   1.00
H836   H     0.03659   0.92212   0.86652   0.00000  Uiso   1.00
H837   H     0.23414   0.89258   0.88808   0.00000  Uiso   1.00
H838   H     0.23572   0.88997   0.61099   0.00000  Uiso   1.00
H839   H     0.09759   0.77683   0.88902   0.00000  Uiso   1.00
H840   H     0.27572   0.92293   0.53978   0.00000  Uiso   1.00
H841   H     0.05766   0.74383   0.96021   0.00000  Uiso   1.00
H842   H     0.27537   0.92362   0.95757   0.00000  Uiso   1.00
H843   H     0.05807   0.74307   0.54240   0.00000  Uiso   1.00
H844   H     0.23220   0.66868   0.74562   0.00000  Uiso   1.00
N845   N     0.31678   0.81932   0.73783   0.00000  Uiso   1.00
N846   N     0.01656   0.84735   0.76217   0.00000  Uiso   1.00
O847   O     0.12975   0.91286   0.75299   0.00000  Uiso   1.00
O848   O     0.05274   0.75565   0.68700   0.00000  Uiso   1.00
O849   O     0.28513   0.75400   0.66487   0.00000  Uiso   1.00
O850   O     0.28088   0.91122   0.81278   0.00000  Uiso   1.00
O851   O     0.31285   0.83344   0.84651   0.00000  Uiso   1.00
O852   O     0.04856   0.91298   0.83442   0.00000  Uiso   1.00
O853   O     0.20358   0.75381   0.74702   0.00000  Uiso   1.00
O854   O     0.22613   0.90387   0.74519   0.00000  Uiso   1.00
O855   O     0.10720   0.76279   0.75482   0.00000  Uiso   1.00
O856   O     0.11847   0.83784   0.81998   0.00000  Uiso   1.00
O857   O     0.21486   0.82883   0.68003   0.00000  Uiso   1.00
O858   O     0.21485   0.82885   0.81218   0.00000  Uiso   1.00
O859   O     0.11848   0.83781   0.68783   0.00000  Uiso   1.00
O860   O     0.02073   0.83329   0.65349   0.00000  Uiso   1.00
S861   S     0.00511   0.79111   0.68538   0.00000  Uiso   1.00
S862   S     0.32833   0.87564   0.81458   0.00000  Uiso   1.00
Zn863  Zn    0.10231   0.83933   0.75521   0.00000  Uiso   1.00
Zn864  Zn    0.23102   0.82734   0.74479   0.00000  Uiso   1.00
C865   C     0.51477   0.93122   0.74897   0.00000  Uiso   1.00
C866   C     0.53878   0.86643   0.90651   0.00000  Uiso   1.00
C867   C     0.49972   0.83305   0.61589   0.00000  Uiso   1.00
C868   C     0.50030   0.83370   0.88410   0.00000  Uiso   1.00
C869   C     0.53925   0.86513   0.59271   0.00000  Uiso   1.00
C870   C     0.46075   0.80166   0.90729   0.00000  Uiso   1.00
C871   C     0.53966   0.86562   0.54623   0.00000  Uiso   1.00
C872   C     0.46037   0.80115   0.95376   0.00000  Uiso   1.00
C873   C     0.50009   0.83323   0.52332   0.00000  Uiso   1.00
C874   C     0.49995   0.83354   0.97666   0.00000  Uiso   1.00
C875   C     0.46077   0.80040   0.54710   0.00000  Uiso   1.00
C876   C     0.48523   0.73545   0.75112   0.00000  Uiso   1.00
C877   C     0.53930   0.86634   0.95288   0.00000  Uiso   1.00
C878   C     0.57860   0.89800   0.52238   0.00000  Uiso   1.00
C879   C     0.42144   0.76876   0.97760   0.00000  Uiso   1.00
C880   C     0.57837   0.89842   0.97575   0.00000  Uiso   1.00
C881   C     0.42171   0.76831   0.52423   0.00000  Uiso   1.00
C882   C     0.52258   0.98568   0.74855   0.00000  Uiso   1.00
C883   C     0.47741   0.68100   0.75176   0.00000  Uiso   1.00
C884   C     0.50027   0.83373   0.83626   0.00000  Uiso   1.00
C885   C     0.49974   0.83297   0.66374   0.00000  Uiso   1.00
C886   C     0.46131   0.80028   0.59346   0.00000  Uiso   1.00
H887   H     0.43265   0.77407   0.61186   0.00000  Uiso   1.00
H888   H     0.43446   0.99800   0.75480   0.00000  Uiso   1.00
H889   H     0.61662   0.72176   0.68149   0.00000  Uiso   1.00
H890   H     0.36993   0.92212   0.86652   0.00000  Uiso   1.00
H891   H     0.56748   0.89258   0.88808   0.00000  Uiso   1.00
H892   H     0.56905   0.88997   0.61099   0.00000  Uiso   1.00
H893   H     0.43092   0.77683   0.88902   0.00000  Uiso   1.00
H894   H     0.60905   0.92293   0.53978   0.00000  Uiso   1.00
H895   H     0.39100   0.74383   0.96021   0.00000  Uiso   1.00
H896   H     0.60870   0.92362   0.95757   0.00000  Uiso   1.00
H897   H     0.39141   0.74307   0.54240   0.00000  Uiso   1.00
H898   H     0.56553   0.66868   0.74562   0.00000  Uiso   1.00
N899   N     0.65011   0.81932   0.73783   0.00000  Uiso   1.00
N900   N     0.34989   0.84735   0.76217   0.00000  Uiso   1.00
O901   O     0.46308   0.91286   0.75299   0.00000  Uiso   1.00
O902   O     0.38607   0.75565   0.68700   0.00000  Uiso   1.00
O903   O     0.61846   0.75400   0.66487   0.00000  Uiso   1.00
O904   O     0.61421   0.91122   0.81278   0.00000  Uiso   1.00
O905   O     0.64619   0.83344   0.84651   0.00000  Uiso   1.00
O906   O     0.38190   0.91298   0.83442   0.00000  Uiso   1.00
O907   O     0.53692   0.75381   0.74702   0.00000  Uiso   1.00
O908   O     0.55946   0.90387   0.74519   0.00000  Uiso   1.00
O909   O     0.44054   0.76279   0.75482   0.00000  Uiso   1.00
O910   O     0.45181   0.83784   0.81998   0.00000  Uiso   1.00
O911   O     0.54819   0.82883   0.68003   0.00000  Uiso   1.00
O912   O     0.54819   0.82885   0.81218   0.00000  Uiso   1.00
O913   O     0.45181   0.83781   0.68783   0.00000  Uiso   1.00
O914   O     0.35406   0.83329   0.65349   0.00000  Uiso   1.00
S915   S     0.33844   0.79111   0.68538   0.00000  Uiso   1.00
S916   S     0.66167   0.87564   0.81458   0.00000  Uiso   1.00
Zn917  Zn    0.43565   0.83933   0.75521   0.00000  Uiso   1.00
Zn918  Zn    0.56435   0.82734   0.74479   0.00000  Uiso   1.00
C919   C     0.84810   0.93122   0.74897   0.00000  Uiso   1.00
C920   C     0.87211   0.86643   0.90651   0.00000  Uiso   1.00
C921   C     0.83306   0.83305   0.61589   0.00000  Uiso   1.00
C922   C     0.83363   0.83370   0.88410   0.00000  Uiso   1.00
C923   C     0.87259   0.86513   0.59271   0.00000  Uiso   1.00
C924   C     0.79408   0.80166   0.90729   0.00000  Uiso   1.00
C925   C     0.87299   0.86562   0.54623   0.00000  Uiso   1.00
C926   C     0.79371   0.80115   0.95376   0.00000  Uiso   1.00
C927   C     0.83343   0.83323   0.52332   0.00000  Uiso   1.00
C928   C     0.83329   0.83354   0.97666   0.00000  Uiso   1.00
C929   C     0.79410   0.80040   0.54710   0.00000  Uiso   1.00
C930   C     0.81856   0.73545   0.75112   0.00000  Uiso   1.00
C931   C     0.87263   0.86634   0.95288   0.00000  Uiso   1.00
C932   C     0.91194   0.89800   0.52238   0.00000  Uiso   1.00
C933   C     0.75477   0.76876   0.97760   0.00000  Uiso   1.00
C934   C     0.91170   0.89842   0.97575   0.00000  Uiso   1.00
C935   C     0.75504   0.76831   0.52423   0.00000  Uiso   1.00
C936   C     0.85591   0.98568   0.74855   0.00000  Uiso   1.00
C937   C     0.81075   0.68100   0.75176   0.00000  Uiso   1.00
C938   C     0.83360   0.83373   0.83626   0.00000  Uiso   1.00
C939   C     0.83307   0.83297   0.66374   0.00000  Uiso   1.00
C940   C     0.79464   0.80028   0.59346   0.00000  Uiso   1.00
H941   H     0.76599   0.77407   0.61186   0.00000  Uiso   1.00
H942   H     0.76779   0.99800   0.75480   0.00000  Uiso   1.00
H943   H     0.94996   0.72176   0.68149   0.00000  Uiso   1.00
H944   H     0.70326   0.92212   0.86652   0.00000  Uiso   1.00
H945   H     0.90081   0.89258   0.88808   0.00000  Uiso   1.00
H946   H     0.90239   0.88997   0.61099   0.00000  Uiso   1.00
H947   H     0.76426   0.77683   0.88902   0.00000  Uiso   1.00
H948   H     0.94238   0.92293   0.53978   0.00000  Uiso   1.00
H949   H     0.72433   0.74383   0.96021   0.00000  Uiso   1.00
H950   H     0.94203   0.92362   0.95757   0.00000  Uiso   1.00
H951   H     0.72474   0.74307   0.54240   0.00000  Uiso   1.00
H952   H     0.89886   0.66868   0.74562   0.00000  Uiso   1.00
N953   N     0.98344   0.81932   0.73783   0.00000  Uiso   1.00
N954   N     0.68322   0.84735   0.76217   0.00000  Uiso   1.00
O955   O     0.79642   0.91286   0.75299   0.00000  Uiso   1.00
O956   O     0.71941   0.75565   0.68700   0.00000  Uiso   1.00
O957   O     0.95180   0.75400   0.66487   0.00000  Uiso   1.00
O958   O     0.94755   0.91122   0.81278   0.00000  Uiso   1.00
O959   O     0.97952   0.83344   0.84651   0.00000  Uiso   1.00
O960   O     0.71523   0.91298   0.83442   0.00000  Uiso   1.00
O961   O     0.87025   0.75381   0.74702   0.00000  Uiso   1.00
O962   O     0.89280   0.90387   0.74519   0.00000  Uiso   1.00
O963   O     0.77387   0.76279   0.75482   0.00000  Uiso   1.00
O964   O     0.78514   0.83784   0.81998   0.00000  Uiso   1.00
O965   O     0.88153   0.82883   0.68003   0.00000  Uiso   1.00
O966   O     0.88152   0.82885   0.81218   0.00000  Uiso   1.00
O967   O     0.78515   0.83781   0.68783   0.00000  Uiso   1.00
O968   O     0.68739   0.83329   0.65349   0.00000  Uiso   1.00
S969   S     0.67178   0.79111   0.68538   0.00000  Uiso   1.00
S970   S     0.99500   0.87564   0.81458   0.00000  Uiso   1.00
Zn971  Zn    0.76898   0.83933   0.75521   0.00000  Uiso   1.00
Zn972  Zn    0.89769   0.82734   0.74479   0.00000  Uiso   1.00
loop_
_geom_bond_atom_site_label_1
_geom_bond_atom_site_label_2
_geom_bond_distance
_geom_bond_site_symmetry_2
_ccdc_geom_bond_type
C1     O37     1.299   .     A
C1     O44     1.299   .     A
C1     C18     1.401   .     S
C2     H27     1.080   .     S
C2     C4      1.393   .     A
C2     C13     1.382   .     A
C3     C21     1.424   .     S
C3     C22     1.392   .     A
C3     C5      1.394   .     A
C4     C6      1.394   .     A
C4     C20     1.424   .     S
C5     H28     1.086   .     S
C5     C7      1.384   .     A
C6     H29     1.086   .     S
C6     C8      1.384   .     A
C7     C9      1.413   .     A
C7     C14     1.399   .     A
C8     C15     1.399   .     A
C8     C10     1.413   .     A
C9     C11     1.411   .     A
C9     C496    1.390   1_554 S
C10    C13     1.411   .     A
C10    C495    1.390   .     S
C11    C22     1.381   .     A
C11    C17     1.400   .     A
C12    C19     1.401   .     S
C12    O43     1.299   .     A
C12    O45     1.299   .     A
C13    C16     1.400   .     A
C14    H30     1.084   .     S
C14    C502    1.390   1_554 S
C15    H31     1.084   .     S
C15    C503    1.389   .     S
C16    H32     1.084   .     S
C16    C500    1.390   .     S
C17    H33     1.084   .     S
C17    C501    1.389   1_554 S
C18    C181    1.328   .     S
C18    H196    1.088   .     S
C19    C342    1.328   1_545 S
C19    H348    1.088   1_545 S
C20    O48     1.307   .     A
C20    O46     1.302   .     A
C21    O49     1.307   .     A
C21    O47     1.302   .     A
C22    H23     1.080   .     S
H24    C181    1.088   .     S
H25    O39     0.990   .     S
H26    O42     0.991   .     S
H34    C342    1.088   1_545 S
N35    Zn54    2.060   .     S
N35    N90     1.277   .     S
N35    S105    1.726   .     S
N36    Zn53    2.060   .     S
N36    N143    1.277   1_455 S
N36    S160    1.725   1_455 S
O37    Zn53    1.970   .     S
O38    S51     1.497   .     D
O39    S105    1.681   .     S
O40    S52     1.496   .     D
O41    S52     1.503   .     D
O42    S160    1.681   1_455 S
O43    Zn54    1.970   .     S
O44    Zn54    1.972   .     S
O45    Zn53    1.972   .     S
O46    Zn53    2.000   .     S
O47    Zn54    2.000   .     S
O48    Zn54    2.010   .     S
O49    Zn53    2.010   .     S
O50    S51     1.503   .     D
S51    O147    1.681   1_455 S
S51    N143    1.726   1_455 S
S52    O96     1.681   .     S
S52    N90     1.725   .     S
C55    O91     1.299   .     A
C55    O98     1.299   .     A
C55    C72     1.401   .     S
C56    H81     1.080   .     S
C56    C58     1.393   .     A
C56    C67     1.382   .     A
C57    C75     1.424   .     S
C57    C76     1.392   .     A
C57    C59     1.394   .     A
C58    C60     1.394   .     A
C58    C74     1.424   .     S
C59    H82     1.086   .     S
C59    C61     1.384   .     A
C60    H83     1.086   .     S
C60    C62     1.384   .     A
C61    C63     1.413   .     A
C61    C68     1.399   .     A
C62    C69     1.399   .     A
C62    C64     1.413   .     A
C63    C65     1.411   .     A
C63    C550    1.390   1_554 S
C64    C67     1.411   .     A
C64    C549    1.390   .     S
C65    C76     1.381   .     A
C65    C71     1.400   .     A
C66    C73     1.401   .     S
C66    O97     1.299   .     A
C66    O99     1.299   .     A
C67    C70     1.400   .     A
C68    H84     1.084   .     S
C68    C556    1.390   1_554 S
C69    H85     1.084   .     S
C69    C557    1.389   .     S
C70    H86     1.084   .     S
C70    C554    1.390   .     S
C71    H87     1.084   .     S
C71    C555    1.389   1_554 S
C72    C235    1.328   .     S
C72    H250    1.088   .     S
C73    C396    1.328   1_545 S
C73    H402    1.088   1_545 S
C74    O102    1.307   .     A
C74    O100    1.302   .     A
C75    O103    1.307   .     A
C75    O101    1.302   .     A
C76    H77     1.080   .     S
H78    C235    1.088   .     S
H79    O93     0.990   .     S
H80    O96     0.991   .     S
H88    C396    1.088   1_545 S
N89    Zn108   2.060   .     S
N89    N144    1.277   .     S
N89    S159    1.726   .     S
N90    Zn107   2.060   .     S
O91    Zn107   1.970   .     S
O92    S105    1.497   .     D
O93    S159    1.681   .     S
O94    S106    1.496   .     D
O95    S106    1.503   .     D
O97    Zn108   1.970   .     S
O98    Zn108   1.972   .     S
O99    Zn107   1.972   .     S
O100   Zn107   2.000   .     S
O101   Zn108   2.000   .     S
O102   Zn108   2.010   .     S
O103   Zn107   2.010   .     S
O104   S105    1.503   .     D
S106   O150    1.681   .     S
S106   N144    1.725   .     S
C109   O145    1.299   .     A
C109   O152    1.299   .     A
C109   C126    1.401   .     S
C110   H135    1.080   .     S
C110   C112    1.393   .     A
C110   C121    1.382   .     A
C111   C129    1.424   .     S
C111   C130    1.392   .     A
C111   C113    1.394   .     A
C112   C114    1.394   .     A
C112   C128    1.424   .     S
C113   H136    1.086   .     S
C113   C115    1.384   .     A
C114   H137    1.086   .     S
C114   C116    1.384   .     A
C115   C117    1.413   .     A
C115   C122    1.399   .     A
C116   C123    1.399   .     A
C116   C118    1.413   .     A
C117   C119    1.411   .     A
C117   C604    1.390   1_554 S
C118   C121    1.411   .     A
C118   C603    1.390   .     S
C119   C130    1.381   .     A
C119   C125    1.400   .     A
C120   C127    1.401   .     S
C120   O151    1.299   .     A
C120   O153    1.299   .     A
C121   C124    1.400   .     A
C122   H138    1.084   .     S
C122   C610    1.390   1_554 S
C123   H139    1.084   .     S
C123   C611    1.389   .     S
C124   H140    1.084   .     S
C124   C608    1.390   .     S
C125   H141    1.084   .     S
C125   C609    1.389   1_554 S
C126   C289    1.328   .     S
C126   H304    1.088   .     S
C127   C450    1.328   1_545 S
C127   H456    1.088   1_545 S
C128   O156    1.307   .     A
C128   O154    1.302   .     A
C129   O157    1.307   .     A
C129   O155    1.302   .     A
C130   H131    1.080   .     S
H132   C289    1.088   .     S
H133   O147    0.990   .     S
H134   O150    0.991   .     S
H142   C450    1.088   1_545 S
N143   Zn162   2.060   .     S
N143   N36     1.277   1_655 S
N143   S51     1.726   1_655 S
N144   Zn161   2.060   .     S
O145   Zn161   1.970   .     S
O146   S159    1.497   .     D
O147   S51     1.681   1_655 S
O148   S160    1.496   .     D
O149   S160    1.503   .     D
O151   Zn162   1.970   .     S
O152   Zn162   1.972   .     S
O153   Zn161   1.972   .     S
O154   Zn161   2.000   .     S
O155   Zn162   2.000   .     S
O156   Zn162   2.010   .     S
O157   Zn161   2.010   .     S
O158   S159    1.503   .     D
S160   O42     1.681   1_655 S
S160   N36     1.725   1_655 S
C163   O199    1.299   .     A
C163   O206    1.299   .     A
C163   C180    1.401   .     S
C164   H189    1.080   .     S
C164   C166    1.393   .     A
C164   C175    1.382   .     A
C165   C183    1.424   .     S
C165   C184    1.392   .     A
C165   C167    1.394   .     A
C166   C168    1.394   .     A
C166   C182    1.424   .     S
C167   H190    1.086   .     S
C167   C169    1.384   .     A
C168   H191    1.086   .     S
C168   C170    1.384   .     A
C169   C171    1.413   .     A
C169   C176    1.399   .     A
C170   C177    1.399   .     A
C170   C172    1.413   .     A
C171   C173    1.411   .     A
C171   C658    1.390   1_554 S
C172   C175    1.411   .     A
C172   C657    1.390   .     S
C173   C184    1.381   .     A
C173   C179    1.400   .     A
C174   C181    1.401   .     S
C174   O205    1.299   .     A
C174   O207    1.299   .     A
C175   C178    1.400   .     A
C176   H192    1.084   .     S
C176   C664    1.390   1_554 S
C177   H193    1.084   .     S
C177   C665    1.389   .     S
C178   H194    1.084   .     S
C178   C662    1.390   .     S
C179   H195    1.084   .     S
C179   C663    1.389   1_554 S
C180   C343    1.328   .     S
C180   H358    1.088   .     S
C182   O210    1.307   .     A
C182   O208    1.302   .     A
C183   O211    1.307   .     A
C183   O209    1.302   .     A
C184   H185    1.080   .     S
H186   C343    1.088   .     S
H187   O201    0.990   .     S
H188   O204    0.991   .     S
N197   Zn216   2.060   .     S
N197   N252    1.277   .     S
N197   S267    1.726   .     S
N198   Zn215   2.060   .     S
N198   N305    1.277   1_455 S
N198   S322    1.725   1_455 S
O199   Zn215   1.970   .     S
O200   S213    1.497   .     D
O201   S267    1.681   .     S
O202   S214    1.496   .     D
O203   S214    1.503   .     D
O204   S322    1.681   1_455 S
O205   Zn216   1.970   .     S
O206   Zn216   1.972   .     S
O207   Zn215   1.972   .     S
O208   Zn215   2.000   .     S
O209   Zn216   2.000   .     S
O210   Zn216   2.010   .     S
O211   Zn215   2.010   .     S
O212   S213    1.503   .     D
S213   O309    1.681   1_455 S
S213   N305    1.726   1_455 S
S214   O258    1.681   .     S
S214   N252    1.725   .     S
C217   O253    1.299   .     A
C217   O260    1.299   .     A
C217   C234    1.401   .     S
C218   H243    1.080   .     S
C218   C220    1.393   .     A
C218   C229    1.382   .     A
C219   C237    1.424   .     S
C219   C238    1.392   .     A
C219   C221    1.394   .     A
C220   C222    1.394   .     A
C220   C236    1.424   .     S
C221   H244    1.086   .     S
C221   C223    1.384   .     A
C222   H245    1.086   .     S
C222   C224    1.384   .     A
C223   C225    1.413   .     A
C223   C230    1.399   .     A
C224   C231    1.399   .     A
C224   C226    1.413   .     A
C225   C227    1.411   .     A
C225   C712    1.390   1_554 S
C226   C229    1.411   .     A
C226   C711    1.390   .     S
C227   C238    1.381   .     A
C227   C233    1.400   .     A
C228   C235    1.401   .     S
C228   O259    1.299   .     A
C228   O261    1.299   .     A
C229   C232    1.400   .     A
C230   H246    1.084   .     S
C230   C718    1.390   1_554 S
C231   H247    1.084   .     S
C231   C719    1.389   .     S
C232   H248    1.084   .     S
C232   C716    1.390   .     S
C233   H249    1.084   .     S
C233   C717    1.389   1_554 S
C234   C397    1.328   .     S
C234   H412    1.088   .     S
C236   O264    1.307   .     A
C236   O262    1.302   .     A
C237   O265    1.307   .     A
C237   O263    1.302   .     A
C238   H239    1.080   .     S
H240   C397    1.088   .     S
H241   O255    0.990   .     S
H242   O258    0.991   .     S
N251   Zn270   2.060   .     S
N251   N306    1.277   .     S
N251   S321    1.726   .     S
N252   Zn269   2.060   .     S
O253   Zn269   1.970   .     S
O254   S267    1.497   .     D
O255   S321    1.681   .     S
O256   S268    1.496   .     D
O257   S268    1.503   .     D
O259   Zn270   1.970   .     S
O260   Zn270   1.972   .     S
O261   Zn269   1.972   .     S
O262   Zn269   2.000   .     S
O263   Zn270   2.000   .     S
O264   Zn270   2.010   .     S
O265   Zn269   2.010   .     S
O266   S267    1.503   .     D
S268   O312    1.681   .     S
S268   N306    1.725   .     S
C271   O307    1.299   .     A
C271   O314    1.299   .     A
C271   C288    1.401   .     S
C272   H297    1.080   .     S
C272   C274    1.393   .     A
C272   C283    1.382   .     A
C273   C291    1.424   .     S
C273   C292    1.392   .     A
C273   C275    1.394   .     A
C274   C276    1.394   .     A
C274   C290    1.424   .     S
C275   H298    1.086   .     S
C275   C277    1.384   .     A
C276   H299    1.086   .     S
C276   C278    1.384   .     A
C277   C279    1.413   .     A
C277   C284    1.399   .     A
C278   C285    1.399   .     A
C278   C280    1.413   .     A
C279   C281    1.411   .     A
C279   C766    1.390   1_554 S
C280   C283    1.411   .     A
C280   C765    1.390   .     S
C281   C292    1.381   .     A
C281   C287    1.400   .     A
C282   C289    1.401   .     S
C282   O313    1.299   .     A
C282   O315    1.299   .     A
C283   C286    1.400   .     A
C284   H300    1.084   .     S
C284   C772    1.390   1_554 S
C285   H301    1.084   .     S
C285   C773    1.389   .     S
C286   H302    1.084   .     S
C286   C770    1.390   .     S
C287   H303    1.084   .     S
C287   C771    1.389   1_554 S
C288   C451    1.328   .     S
C288   H466    1.088   .     S
C290   O318    1.307   .     A
C290   O316    1.302   .     A
C291   O319    1.307   .     A
C291   O317    1.302   .     A
C292   H293    1.080   .     S
H294   C451    1.088   .     S
H295   O309    0.990   .     S
H296   O312    0.991   .     S
N305   Zn324   2.060   .     S
N305   N198    1.277   1_655 S
N305   S213    1.726   1_655 S
N306   Zn323   2.060   .     S
O307   Zn323   1.970   .     S
O308   S321    1.497   .     D
O309   S213    1.681   1_655 S
O310   S322    1.496   .     D
O311   S322    1.503   .     D
O313   Zn324   1.970   .     S
O314   Zn324   1.972   .     S
O315   Zn323   1.972   .     S
O316   Zn323   2.000   .     S
O317   Zn324   2.000   .     S
O318   Zn324   2.010   .     S
O319   Zn323   2.010   .     S
O320   S321    1.503   .     D
S322   O204    1.681   1_655 S
S322   N198    1.725   1_655 S
C325   O361    1.299   .     A
C325   O368    1.299   .     A
C325   C342    1.401   .     S
C326   H351    1.080   .     S
C326   C328    1.393   .     A
C326   C337    1.382   .     A
C327   C345    1.424   .     S
C327   C346    1.392   .     A
C327   C329    1.394   .     A
C328   C330    1.394   .     A
C328   C344    1.424   .     S
C329   H352    1.086   .     S
C329   C331    1.384   .     A
C330   H353    1.086   .     S
C330   C332    1.384   .     A
C331   C333    1.413   .     A
C331   C338    1.399   .     A
C332   C339    1.399   .     A
C332   C334    1.413   .     A
C333   C335    1.411   .     A
C333   C820    1.390   1_554 S
C334   C337    1.411   .     A
C334   C819    1.390   .     S
C335   C346    1.381   .     A
C335   C341    1.400   .     A
C336   C343    1.401   .     S
C336   O367    1.299   .     A
C336   O369    1.299   .     A
C337   C340    1.400   .     A
C338   H354    1.084   .     S
C338   C826    1.390   1_554 S
C339   H355    1.084   .     S
C339   C827    1.389   .     S
C340   H356    1.084   .     S
C340   C824    1.390   .     S
C341   H357    1.084   .     S
C341   C825    1.389   1_554 S
C342   C19     1.328   1_565 S
C342   H34     1.088   1_565 S
C344   O372    1.307   .     A
C344   O370    1.302   .     A
C345   O373    1.307   .     A
C345   O371    1.302   .     A
C346   H347    1.080   .     S
H348   C19     1.088   1_565 S
H349   O363    0.990   .     S
H350   O366    0.991   .     S
N359   Zn378   2.060   .     S
N359   N414    1.277   .     S
N359   S429    1.726   .     S
N360   Zn377   2.060   .     S
N360   N467    1.277   1_455 S
N360   S484    1.725   1_455 S
O361   Zn377   1.970   .     S
O362   S375    1.497   .     D
O363   S429    1.681   .     S
O364   S376    1.496   .     D
O365   S376    1.503   .     D
O366   S484    1.681   1_455 S
O367   Zn378   1.970   .     S
O368   Zn378   1.972   .     S
O369   Zn377   1.972   .     S
O370   Zn377   2.000   .     S
O371   Zn378   2.000   .     S
O372   Zn378   2.010   .     S
O373   Zn377   2.010   .     S
O374   S375    1.503   .     D
S375   O471    1.681   1_455 S
S375   N467    1.726   1_455 S
S376   O420    1.681   .     S
S376   N414    1.725   .     S
C379   O415    1.299   .     A
C379   O422    1.299   .     A
C379   C396    1.401   .     S
C380   H405    1.080   .     S
C380   C382    1.393   .     A
C380   C391    1.382   .     A
C381   C399    1.424   .     S
C381   C400    1.392   .     A
C381   C383    1.394   .     A
C382   C384    1.394   .     A
C382   C398    1.424   .     S
C383   H406    1.086   .     S
C383   C385    1.384   .     A
C384   H407    1.086   .     S
C384   C386    1.384   .     A
C385   C387    1.413   .     A
C385   C392    1.399   .     A
C386   C393    1.399   .     A
C386   C388    1.413   .     A
C387   C389    1.411   .     A
C387   C874    1.390   1_554 S
C388   C391    1.411   .     A
C388   C873    1.390   .     S
C389   C400    1.381   .     A
C389   C395    1.400   .     A
C390   C397    1.401   .     S
C390   O421    1.299   .     A
C390   O423    1.299   .     A
C391   C394    1.400   .     A
C392   H408    1.084   .     S
C392   C880    1.390   1_554 S
C393   H409    1.084   .     S
C393   C881    1.389   .     S
C394   H410    1.084   .     S
C394   C878    1.390   .     S
C395   H411    1.084   .     S
C395   C879    1.389   1_554 S
C396   C73     1.328   1_565 S
C396   H88     1.088   1_565 S
C398   O426    1.307   .     A
C398   O424    1.302   .     A
C399   O427    1.307   .     A
C399   O425    1.302   .     A
C400   H401    1.080   .     S
H402   C73     1.088   1_565 S
H403   O417    0.990   .     S
H404   O420    0.991   .     S
N413   Zn432   2.060   .     S
N413   N468    1.277   .     S
N413   S483    1.726   .     S
N414   Zn431   2.060   .     S
O415   Zn431   1.970   .     S
O416   S429    1.497   .     D
O417   S483    1.681   .     S
O418   S430    1.496   .     D
O419   S430    1.503   .     D
O421   Zn432   1.970   .     S
O422   Zn432   1.972   .     S
O423   Zn431   1.972   .     S
O424   Zn431   2.000   .     S
O425   Zn432   2.000   .     S
O426   Zn432   2.010   .     S
O427   Zn431   2.010   .     S
O428   S429    1.503   .     D
S430   O474    1.681   .     S
S430   N468    1.725   .     S
C433   O469    1.299   .     A
C433   O476    1.299   .     A
C433   C450    1.401   .     S
C434   H459    1.080   .     S
C434   C436    1.393   .     A
C434   C445    1.382   .     A
C435   C453    1.424   .     S
C435   C454    1.392   .     A
C435   C437    1.394   .     A
C436   C438    1.394   .     A
C436   C452    1.424   .     S
C437   H460    1.086   .     S
C437   C439    1.384   .     A
C438   H461    1.086   .     S
C438   C440    1.384   .     A
C439   C441    1.413   .     A
C439   C446    1.399   .     A
C440   C447    1.399   .     A
C440   C442    1.413   .     A
C441   C443    1.411   .     A
C441   C928    1.390   1_554 S
C442   C445    1.411   .     A
C442   C927    1.390   .     S
C443   C454    1.381   .     A
C443   C449    1.400   .     A
C444   C451    1.401   .     S
C444   O475    1.299   .     A
C444   O477    1.299   .     A
C445   C448    1.400   .     A
C446   H462    1.084   .     S
C446   C934    1.390   1_554 S
C447   H463    1.084   .     S
C447   C935    1.389   .     S
C448   H464    1.084   .     S
C448   C932    1.390   .     S
C449   H465    1.084   .     S
C449   C933    1.389   1_554 S
C450   C127    1.328   1_565 S
C450   H142    1.088   1_565 S
C452   O480    1.307   .     A
C452   O478    1.302   .     A
C453   O481    1.307   .     A
C453   O479    1.302   .     A
C454   H455    1.080   .     S
H456   C127    1.088   1_565 S
H457   O471    0.990   .     S
H458   O474    0.991   .     S
N467   Zn486   2.060   .     S
N467   N360    1.277   1_655 S
N467   S375    1.726   1_655 S
N468   Zn485   2.060   .     S
O469   Zn485   1.970   .     S
O470   S483    1.497   .     D
O471   S375    1.681   1_655 S
O472   S484    1.496   .     D
O473   S484    1.503   .     D
O475   Zn486   1.970   .     S
O476   Zn486   1.972   .     S
O477   Zn485   1.972   .     S
O478   Zn485   2.000   .     S
O479   Zn486   2.000   .     S
O480   Zn486   2.010   .     S
O481   Zn485   2.010   .     S
O482   S483    1.503   .     D
S484   O366    1.681   1_655 S
S484   N360    1.725   1_655 S
C487   O523    1.299   .     A
C487   O530    1.299   .     A
C487   C504    1.401   .     S
C488   H513    1.080   .     S
C488   C490    1.393   .     A
C488   C499    1.382   .     A
C489   C507    1.424   .     S
C489   C508    1.392   .     A
C489   C491    1.394   .     A
C490   C492    1.394   .     A
C490   C506    1.424   .     S
C491   H514    1.086   .     S
C491   C493    1.384   .     A
C492   H515    1.086   .     S
C492   C494    1.384   .     A
C493   C495    1.413   .     A
C493   C500    1.399   .     A
C494   C501    1.399   .     A
C494   C496    1.413   .     A
C495   C497    1.411   .     A
C496   C499    1.411   .     A
C496   C9      1.390   1_556 S
C497   C508    1.381   .     A
C497   C503    1.400   .     A
C498   C505    1.401   .     S
C498   O529    1.299   .     A
C498   O531    1.299   .     A
C499   C502    1.400   .     A
C500   H516    1.084   .     S
C501   H517    1.084   .     S
C501   C17     1.389   1_556 S
C502   H518    1.084   .     S
C502   C14     1.390   1_556 S
C503   H519    1.084   .     S
C504   C667    1.328   .     S
C504   H682    1.088   .     S
C505   C828    1.328   1_545 S
C505   H834    1.088   1_545 S
C506   O534    1.307   .     A
C506   O532    1.302   .     A
C507   O535    1.307   .     A
C507   O533    1.302   .     A
C508   H509    1.080   .     S
H510   C667    1.088   .     S
H511   O525    0.990   .     S
H512   O528    0.991   .     S
H520   C828    1.088   1_545 S
N521   Zn540   2.060   .     S
N521   N576    1.277   .     S
N521   S591    1.726   .     S
N522   Zn539   2.060   .     S
N522   N629    1.277   1_455 S
N522   S646    1.725   1_455 S
O523   Zn539   1.970   .     S
O524   S537    1.497   .     D
O525   S591    1.681   .     S
O526   S538    1.496   .     D
O527   S538    1.503   .     D
O528   S646    1.681   1_455 S
O529   Zn540   1.970   .     S
O530   Zn540   1.972   .     S
O531   Zn539   1.972   .     S
O532   Zn539   2.000   .     S
O533   Zn540   2.000   .     S
O534   Zn540   2.010   .     S
O535   Zn539   2.010   .     S
O536   S537    1.503   .     D
S537   O633    1.681   1_455 S
S537   N629    1.726   1_455 S
S538   O582    1.681   .     S
S538   N576    1.725   .     S
C541   O577    1.299   .     A
C541   O584    1.299   .     A
C541   C558    1.401   .     S
C542   H567    1.080   .     S
C542   C544    1.393   .     A
C542   C553    1.382   .     A
C543   C561    1.424   .     S
C543   C562    1.392   .     A
C543   C545    1.394   .     A
C544   C546    1.394   .     A
C544   C560    1.424   .     S
C545   H568    1.086   .     S
C545   C547    1.384   .     A
C546   H569    1.086   .     S
C546   C548    1.384   .     A
C547   C549    1.413   .     A
C547   C554    1.399   .     A
C548   C555    1.399   .     A
C548   C550    1.413   .     A
C549   C551    1.411   .     A
C550   C553    1.411   .     A
C550   C63     1.390   1_556 S
C551   C562    1.381   .     A
C551   C557    1.400   .     A
C552   C559    1.401   .     S
C552   O583    1.299   .     A
C552   O585    1.299   .     A
C553   C556    1.400   .     A
C554   H570    1.084   .     S
C555   H571    1.084   .     S
C555   C71     1.389   1_556 S
C556   H572    1.084   .     S
C556   C68     1.390   1_556 S
C557   H573    1.084   .     S
C558   C721    1.328   .     S
C558   H736    1.088   .     S
C559   C882    1.328   1_545 S
C559   H888    1.088   1_545 S
C560   O588    1.307   .     A
C560   O586    1.302   .     A
C561   O589    1.307   .     A
C561   O587    1.302   .     A
C562   H563    1.080   .     S
H564   C721    1.088   .     S
H565   O579    0.990   .     S
H566   O582    0.991   .     S
H574   C882    1.088   1_545 S
N575   Zn594   2.060   .     S
N575   N630    1.277   .     S
N575   S645    1.726   .     S
N576   Zn593   2.060   .     S
O577   Zn593   1.970   .     S
O578   S591    1.497   .     D
O579   S645    1.681   .     S
O580   S592    1.496   .     D
O581   S592    1.503   .     D
O583   Zn594   1.970   .     S
O584   Zn594   1.972   .     S
O585   Zn593   1.972   .     S
O586   Zn593   2.000   .     S
O587   Zn594   2.000   .     S
O588   Zn594   2.010   .     S
O589   Zn593   2.010   .     S
O590   S591    1.503   .     D
S592   O636    1.681   .     S
S592   N630    1.725   .     S
C595   O631    1.299   .     A
C595   O638    1.299   .     A
C595   C612    1.401   .     S
C596   H621    1.080   .     S
C596   C598    1.393   .     A
C596   C607    1.382   .     A
C597   C615    1.424   .     S
C597   C616    1.392   .     A
C597   C599    1.394   .     A
C598   C600    1.394   .     A
C598   C614    1.424   .     S
C599   H622    1.086   .     S
C599   C601    1.384   .     A
C600   H623    1.086   .     S
C600   C602    1.384   .     A
C601   C603    1.413   .     A
C601   C608    1.399   .     A
C602   C609    1.399   .     A
C602   C604    1.413   .     A
C603   C605    1.411   .     A
C604   C607    1.411   .     A
C604   C117    1.390   1_556 S
C605   C616    1.381   .     A
C605   C611    1.400   .     A
C606   C613    1.401   .     S
C606   O637    1.299   .     A
C606   O639    1.299   .     A
C607   C610    1.400   .     A
C608   H624    1.084   .     S
C609   H625    1.084   .     S
C609   C125    1.389   1_556 S
C610   H626    1.084   .     S
C610   C122    1.390   1_556 S
C611   H627    1.084   .     S
C612   C775    1.328   .     S
C612   H790    1.088   .     S
C613   C936    1.328   1_545 S
C613   H942    1.088   1_545 S
C614   O642    1.307   .     A
C614   O640    1.302   .     A
C615   O643    1.307   .     A
C615   O641    1.302   .     A
C616   H617    1.080   .     S
H618   C775    1.088   .     S
H619   O633    0.990   .     S
H620   O636    0.991   .     S
H628   C936    1.088   1_545 S
N629   Zn648   2.060   .     S
N629   N522    1.277   1_655 S
N629   S537    1.726   1_655 S
N630   Zn647   2.060   .     S
O631   Zn647   1.970   .     S
O632   S645    1.497   .     D
O633   S537    1.681   1_655 S
O634   S646    1.496   .     D
O635   S646    1.503   .     D
O637   Zn648   1.970   .     S
O638   Zn648   1.972   .     S
O639   Zn647   1.972   .     S
O640   Zn647   2.000   .     S
O641   Zn648   2.000   .     S
O642   Zn648   2.010   .     S
O643   Zn647   2.010   .     S
O644   S645    1.503   .     D
S646   O528    1.681   1_655 S
S646   N522    1.725   1_655 S
C649   O685    1.299   .     A
C649   O692    1.299   .     A
C649   C666    1.401   .     S
C650   H675    1.080   .     S
C650   C652    1.393   .     A
C650   C661    1.382   .     A
C651   C669    1.424   .     S
C651   C670    1.392   .     A
C651   C653    1.394   .     A
C652   C654    1.394   .     A
C652   C668    1.424   .     S
C653   H676    1.086   .     S
C653   C655    1.384   .     A
C654   H677    1.086   .     S
C654   C656    1.384   .     A
C655   C657    1.413   .     A
C655   C662    1.399   .     A
C656   C663    1.399   .     A
C656   C658    1.413   .     A
C657   C659    1.411   .     A
C658   C661    1.411   .     A
C658   C171    1.390   1_556 S
C659   C670    1.381   .     A
C659   C665    1.400   .     A
C660   C667    1.401   .     S
C660   O691    1.299   .     A
C660   O693    1.299   .     A
C661   C664    1.400   .     A
C662   H678    1.084   .     S
C663   H679    1.084   .     S
C663   C179    1.389   1_556 S
C664   H680    1.084   .     S
C664   C176    1.390   1_556 S
C665   H681    1.084   .     S
C666   C829    1.328   .     S
C666   H844    1.088   .     S
C668   O696    1.307   .     A
C668   O694    1.302   .     A
C669   O697    1.307   .     A
C669   O695    1.302   .     A
C670   H671    1.080   .     S
H672   C829    1.088   .     S
H673   O687    0.990   .     S
H674   O690    0.991   .     S
N683   Zn702   2.060   .     S
N683   N738    1.277   .     S
N683   S753    1.726   .     S
N684   Zn701   2.060   .     S
N684   N791    1.277   1_455 S
N684   S808    1.725   1_455 S
O685   Zn701   1.970   .     S
O686   S699    1.497   .     D
O687   S753    1.681   .     S
O688   S700    1.496   .     D
O689   S700    1.503   .     D
O690   S808    1.681   1_455 S
O691   Zn702   1.970   .     S
O692   Zn702   1.972   .     S
O693   Zn701   1.972   .     S
O694   Zn701   2.000   .     S
O695   Zn702   2.000   .     S
O696   Zn702   2.010   .     S
O697   Zn701   2.010   .     S
O698   S699    1.503   .     D
S699   O795    1.681   1_455 S
S699   N791    1.726   1_455 S
S700   O744    1.681   .     S
S700   N738    1.725   .     S
C703   O739    1.299   .     A
C703   O746    1.299   .     A
C703   C720    1.401   .     S
C704   H729    1.080   .     S
C704   C706    1.393   .     A
C704   C715    1.382   .     A
C705   C723    1.424   .     S
C705   C724    1.392   .     A
C705   C707    1.394   .     A
C706   C708    1.394   .     A
C706   C722    1.424   .     S
C707   H730    1.086   .     S
C707   C709    1.384   .     A
C708   H731    1.086   .     S
C708   C710    1.384   .     A
C709   C711    1.413   .     A
C709   C716    1.399   .     A
C710   C717    1.399   .     A
C710   C712    1.413   .     A
C711   C713    1.411   .     A
C712   C715    1.411   .     A
C712   C225    1.390   1_556 S
C713   C724    1.381   .     A
C713   C719    1.400   .     A
C714   C721    1.401   .     S
C714   O745    1.299   .     A
C714   O747    1.299   .     A
C715   C718    1.400   .     A
C716   H732    1.084   .     S
C717   H733    1.084   .     S
C717   C233    1.389   1_556 S
C718   H734    1.084   .     S
C718   C230    1.390   1_556 S
C719   H735    1.084   .     S
C720   C883    1.328   .     S
C720   H898    1.088   .     S
C722   O750    1.307   .     A
C722   O748    1.302   .     A
C723   O751    1.307   .     A
C723   O749    1.302   .     A
C724   H725    1.080   .     S
H726   C883    1.088   .     S
H727   O741    0.990   .     S
H728   O744    0.991   .     S
N737   Zn756   2.060   .     S
N737   N792    1.277   .     S
N737   S807    1.726   .     S
N738   Zn755   2.060   .     S
O739   Zn755   1.970   .     S
O740   S753    1.497   .     D
O741   S807    1.681   .     S
O742   S754    1.496   .     D
O743   S754    1.503   .     D
O745   Zn756   1.970   .     S
O746   Zn756   1.972   .     S
O747   Zn755   1.972   .     S
O748   Zn755   2.000   .     S
O749   Zn756   2.000   .     S
O750   Zn756   2.010   .     S
O751   Zn755   2.010   .     S
O752   S753    1.503   .     D
S754   O798    1.681   .     S
S754   N792    1.725   .     S
C757   O793    1.299   .     A
C757   O800    1.299   .     A
C757   C774    1.401   .     S
C758   H783    1.080   .     S
C758   C760    1.393   .     A
C758   C769    1.382   .     A
C759   C777    1.424   .     S
C759   C778    1.392   .     A
C759   C761    1.394   .     A
C760   C762    1.394   .     A
C760   C776    1.424   .     S
C761   H784    1.086   .     S
C761   C763    1.384   .     A
C762   H785    1.086   .     S
C762   C764    1.384   .     A
C763   C765    1.413   .     A
C763   C770    1.399   .     A
C764   C771    1.399   .     A
C764   C766    1.413   .     A
C765   C767    1.411   .     A
C766   C769    1.411   .     A
C766   C279    1.390   1_556 S
C767   C778    1.381   .     A
C767   C773    1.400   .     A
C768   C775    1.401   .     S
C768   O799    1.299   .     A
C768   O801    1.299   .     A
C769   C772    1.400   .     A
C770   H786    1.084   .     S
C771   H787    1.084   .     S
C771   C287    1.389   1_556 S
C772   H788    1.084   .     S
C772   C284    1.390   1_556 S
C773   H789    1.084   .     S
C774   C937    1.328   .     S
C774   H952    1.088   .     S
C776   O804    1.307   .     A
C776   O802    1.302   .     A
C777   O805    1.307   .     A
C777   O803    1.302   .     A
C778   H779    1.080   .     S
H780   C937    1.088   .     S
H781   O795    0.990   .     S
H782   O798    0.991   .     S
N791   Zn810   2.060   .     S
N791   N684    1.277   1_655 S
N791   S699    1.726   1_655 S
N792   Zn809   2.060   .     S
O793   Zn809   1.970   .     S
O794   S807    1.497   .     D
O795   S699    1.681   1_655 S
O796   S808    1.496   .     D
O797   S808    1.503   .     D
O799   Zn810   1.970   .     S
O800   Zn810   1.972   .     S
O801   Zn809   1.972   .     S
O802   Zn809   2.000   .     S
O803   Zn810   2.000   .     S
O804   Zn810   2.010   .     S
O805   Zn809   2.010   .     S
O806   S807    1.503   .     D
S808   O690    1.681   1_655 S
S808   N684    1.725   1_655 S
C811   O847    1.299   .     A
C811   O854    1.299   .     A
C811   C828    1.401   .     S
C812   H837    1.080   .     S
C812   C814    1.393   .     A
C812   C823    1.382   .     A
C813   C831    1.424   .     S
C813   C832    1.392   .     A
C813   C815    1.394   .     A
C814   C816    1.394   .     A
C814   C830    1.424   .     S
C815   H838    1.086   .     S
C815   C817    1.384   .     A
C816   H839    1.086   .     S
C816   C818    1.384   .     A
C817   C819    1.413   .     A
C817   C824    1.399   .     A
C818   C825    1.399   .     A
C818   C820    1.413   .     A
C819   C821    1.411   .     A
C820   C823    1.411   .     A
C820   C333    1.390   1_556 S
C821   C832    1.381   .     A
C821   C827    1.400   .     A
C822   C829    1.401   .     S
C822   O853    1.299   .     A
C822   O855    1.299   .     A
C823   C826    1.400   .     A
C824   H840    1.084   .     S
C825   H841    1.084   .     S
C825   C341    1.389   1_556 S
C826   H842    1.084   .     S
C826   C338    1.390   1_556 S
C827   H843    1.084   .     S
C828   C505    1.328   1_565 S
C828   H520    1.088   1_565 S
C830   O858    1.307   .     A
C830   O856    1.302   .     A
C831   O859    1.307   .     A
C831   O857    1.302   .     A
C832   H833    1.080   .     S
H834   C505    1.088   1_565 S
H835   O849    0.990   .     S
H836   O852    0.991   .     S
N845   Zn864   2.060   .     S
N845   N900    1.277   .     S
N845   S915    1.726   .     S
N846   Zn863   2.060   .     S
N846   N953    1.277   1_455 S
N846   S970    1.725   1_455 S
O847   Zn863   1.970   .     S
O848   S861    1.497   .     D
O849   S915    1.681   .     S
O850   S862    1.496   .     D
O851   S862    1.503   .     D
O852   S970    1.681   1_455 S
O853   Zn864   1.970   .     S
O854   Zn864   1.972   .     S
O855   Zn863   1.972   .     S
O856   Zn863   2.000   .     S
O857   Zn864   2.000   .     S
O858   Zn864   2.010   .     S
O859   Zn863   2.010   .     S
O860   S861    1.503   .     D
S861   O957    1.681   1_455 S
S861   N953    1.726   1_455 S
S862   O906    1.681   .     S
S862   N900    1.725   .     S
C865   O901    1.299   .     A
C865   O908    1.299   .     A
C865   C882    1.401   .     S
C866   H891    1.080   .     S
C866   C868    1.393   .     A
C866   C877    1.382   .     A
C867   C885    1.424   .     S
C867   C886    1.392   .     A
C867   C869    1.394   .     A
C868   C870    1.394   .     A
C868   C884    1.424   .     S
C869   H892    1.086   .     S
C869   C871    1.384   .     A
C870   H893    1.086   .     S
C870   C872    1.384   .     A
C871   C873    1.413   .     A
C871   C878    1.399   .     A
C872   C879    1.399   .     A
C872   C874    1.413   .     A
C873   C875    1.411   .     A
C874   C877    1.411   .     A
C874   C387    1.390   1_556 S
C875   C886    1.381   .     A
C875   C881    1.400   .     A
C876   C883    1.401   .     S
C876   O907    1.299   .     A
C876   O909    1.299   .     A
C877   C880    1.400   .     A
C878   H894    1.084   .     S
C879   H895    1.084   .     S
C879   C395    1.389   1_556 S
C880   H896    1.084   .     S
C880   C392    1.390   1_556 S
C881   H897    1.084   .     S
C882   C559    1.328   1_565 S
C882   H574    1.088   1_565 S
C884   O912    1.307   .     A
C884   O910    1.302   .     A
C885   O913    1.307   .     A
C885   O911    1.302   .     A
C886   H887    1.080   .     S
H888   C559    1.088   1_565 S
H889   O903    0.990   .     S
H890   O906    0.991   .     S
N899   Zn918   2.060   .     S
N899   N954    1.277   .     S
N899   S969    1.726   .     S
N900   Zn917   2.060   .     S
O901   Zn917   1.970   .     S
O902   S915    1.497   .     D
O903   S969    1.681   .     S
O904   S916    1.496   .     D
O905   S916    1.503   .     D
O907   Zn918   1.970   .     S
O908   Zn918   1.972   .     S
O909   Zn917   1.972   .     S
O910   Zn917   2.000   .     S
O911   Zn918   2.000   .     S
O912   Zn918   2.010   .     S
O913   Zn917   2.010   .     S
O914   S915    1.503   .     D
S916   O960    1.681   .     S
S916   N954    1.725   .     S
C919   O955    1.299   .     A
C919   O962    1.299   .     A
C919   C936    1.401   .     S
C920   H945    1.080   .     S
C920   C922    1.393   .     A
C920   C931    1.382   .     A
C921   C939    1.424   .     S
C921   C940    1.392   .     A
C921   C923    1.394   .     A
C922   C924    1.394   .     A
C922   C938    1.424   .     S
C923   H946    1.086   .     S
C923   C925    1.384   .     A
C924   H947    1.086   .     S
C924   C926    1.384   .     A
C925   C927    1.413   .     A
C925   C932    1.399   .     A
C926   C933    1.399   .     A
C926   C928    1.413   .     A
C927   C929    1.411   .     A
C928   C931    1.411   .     A
C928   C441    1.390   1_556 S
C929   C940    1.381   .     A
C929   C935    1.400   .     A
C930   C937    1.401   .     S
C930   O961    1.299   .     A
C930   O963    1.299   .     A
C931   C934    1.400   .     A
C932   H948    1.084   .     S
C933   H949    1.084   .     S
C933   C449    1.389   1_556 S
C934   H950    1.084   .     S
C934   C446    1.390   1_556 S
C935   H951    1.084   .     S
C936   C613    1.328   1_565 S
C936   H628    1.088   1_565 S
C938   O966    1.307   .     A
C938   O964    1.302   .     A
C939   O967    1.307   .     A
C939   O965    1.302   .     A
C940   H941    1.080   .     S
H942   C613    1.088   1_565 S
H943   O957    0.990   .     S
H944   O960    0.991   .     S
N953   Zn972   2.060   .     S
N953   N846    1.277   1_655 S
N953   S861    1.726   1_655 S
N954   Zn971   2.060   .     S
O955   Zn971   1.970   .     S
O956   S969    1.497   .     D
O957   S861    1.681   1_655 S
O958   S970    1.496   .     D
O959   S970    1.503   .     D
O961   Zn972   1.970   .     S
O962   Zn972   1.972   .     S
O963   Zn971   1.972   .     S
O964   Zn971   2.000   .     S
O965   Zn972   2.000   .     S
O966   Zn972   2.010   .     S
O967   Zn971   2.010   .     S
O968   S969    1.503   .     D
S970   O852    1.681   1_655 S
S970   N846    1.725   1_655 S
