data_str_m3_o1_o18_pcu_sym.119
_audit_creation_date              2020-01-03
_audit_creation_method            'Materials Studio'
_symmetry_space_group_name_H-M    'P1'
_symmetry_Int_Tables_number       1
_symmetry_cell_setting            triclinic
loop_
_symmetry_equiv_pos_as_xyz
  x,y,z
_cell_length_a                    29.4833
_cell_length_b                    32.4221
_cell_length_c                    30.9735
_cell_angle_alpha                 89.9858
_cell_angle_beta                  68.0198
_cell_angle_gamma                 90.0051
loop_
_atom_site_label
_atom_site_type_symbol
_atom_site_fract_x
_atom_site_fract_y
_atom_site_fract_z
_atom_site_U_iso_or_equiv
_atom_site_adp_type
_atom_site_occupancy
C1     C     0.16677   0.24686   0.24977   0.00000  Uiso   1.00
C2     C     0.16667   0.08668   0.24987   0.00000  Uiso   1.00
C3     C     0.10461   0.17514   0.05414   0.00000  Uiso   1.00
C4     C     0.21396   0.21206   0.45508   0.00000  Uiso   1.00
C5     C     0.07062   0.16998   0.03343   0.00000  Uiso   1.00
C6     C     0.24782   0.21702   0.47613   0.00000  Uiso   1.00
C7     C     0.20883   0.31334   0.24857   0.00000  Uiso   1.00
C8     C     0.12219   0.02092   0.26161   0.00000  Uiso   1.00
C9     C     0.21141   0.02113   0.23634   0.00000  Uiso   1.00
C10    C     0.12523   0.31315   0.24917   0.00000  Uiso   1.00
C11    C     0.16673   0.04265   0.24932   0.00000  Uiso   1.00
C12    C     0.16698   0.29125   0.24914   0.00000  Uiso   1.00
C13    C     0.32487   0.15788   0.21032   0.00000  Uiso   1.00
C14    C     0.00850   0.17554   0.28965   0.00000  Uiso   1.00
C15    C     0.03941   0.15764   0.21040   0.00000  Uiso   1.00
C16    C     0.29394   0.17551   0.28964   0.00000  Uiso   1.00
C17    C     0.13617   0.16743   0.33800   0.00000  Uiso   1.00
C18    C     0.19710   0.16720   0.16197   0.00000  Uiso   1.00
C19    C     0.11682   0.17118   0.38852   0.00000  Uiso   1.00
C20    C     0.21526   0.17426   0.11192   0.00000  Uiso   1.00
C21    C     0.05234   0.16268   0.46397   0.00000  Uiso   1.00
C22    C     0.27173   0.20672   0.04230   0.00000  Uiso   1.00
C23    C     0.06805   0.16194   0.41563   0.00000  Uiso   1.00
C24    C     0.26052   0.19300   0.08787   0.00000  Uiso   1.00
C25    C     0.14869   0.18377   0.40967   0.00000  Uiso   1.00
C26    C     0.18223   0.16853   0.09011   0.00000  Uiso   1.00
C27    C     0.13384   0.18501   0.45802   0.00000  Uiso   1.00
C28    C     0.19054   0.18565   0.04659   0.00000  Uiso   1.00
C29    C     0.08523   0.17296   0.48533   0.00000  Uiso   1.00
C30    C     0.23698   0.20316   0.02145   0.00000  Uiso   1.00
C31    C     0.16738   0.19431   0.47957   0.00000  Uiso   1.00
C32    C     0.15406   0.18476   0.02723   0.00000  Uiso   1.00
H33    H     0.03335   0.16177   0.05495   0.00000  Uiso   1.00
H34    H     0.28296   0.23097   0.45653   0.00000  Uiso   1.00
H35    H     0.14948   0.15102   0.10825   0.00000  Uiso   1.00
H36    H     0.18602   0.19022   0.38768   0.00000  Uiso   1.00
H37    H     0.28629   0.19821   0.10467   0.00000  Uiso   1.00
H38    H     0.04270   0.15278   0.39957   0.00000  Uiso   1.00
H39    H     0.01513   0.15361   0.48456   0.00000  Uiso   1.00
H40    H     0.30687   0.22111   0.02389   0.00000  Uiso   1.00
H41    H     0.09096   0.17228   0.09156   0.00000  Uiso   1.00
H42    H     0.22464   0.22369   0.42003   0.00000  Uiso   1.00
H43    H     0.31918   0.15077   0.17861   0.00000  Uiso   1.00
H44    H     0.01422   0.18274   0.32133   0.00000  Uiso   1.00
H45    H     0.06966   0.15006   0.17869   0.00000  Uiso   1.00
H46    H     0.26370   0.18270   0.32146   0.00000  Uiso   1.00
N47    N     0.04759   0.16668   0.25001   0.00000  Uiso   1.00
N48    N     0.28574   0.16666   0.24999   0.00000  Uiso   1.00
O49    O     0.12846   0.22775   0.25001   0.00000  Uiso   1.00
O50    O     0.20488   0.10558   0.24999   0.00000  Uiso   1.00
O51    O     0.20490   0.22774   0.25000   0.00000  Uiso   1.00
O52    O     0.12843   0.10559   0.25000   0.00000  Uiso   1.00
O53    O     0.10661   0.16667   0.31613   0.00000  Uiso   1.00
O54    O     0.22672   0.16666   0.18387   0.00000  Uiso   1.00
O55    O     0.18305   0.16666   0.31612   0.00000  Uiso   1.00
O56    O     0.15028   0.16667   0.18388   0.00000  Uiso   1.00
Zn57   Zn    0.11562   0.16667   0.25000   0.00000  Uiso   1.00
Zn58   Zn    0.21771   0.16666   0.25000   0.00000  Uiso   1.00
S59    S     0.25339   0.29394   0.26979   0.00000  Uiso   1.00
O60    O     0.29064   0.26855   0.23270   0.00000  Uiso   1.00
O61    O     0.27889   0.32888   0.28327   0.00000  Uiso   1.00
O62    O     0.22570   0.26468   0.31731   0.00000  Uiso   1.00
H63    H     0.25075   0.26036   0.33105   0.00000  Uiso   1.00
S64    S     0.06431   0.04161   0.29807   0.00000  Uiso   1.00
O65    O     0.04160   0.06455   0.26904   0.00000  Uiso   1.00
O66    O     0.03053   0.00749   0.32392   0.00000  Uiso   1.00
O67    O     0.07194   0.07407   0.33718   0.00000  Uiso   1.00
H68    H     0.03985   0.08782   0.35219   0.00000  Uiso   1.00
S69    S     0.26869   0.04201   0.19891   0.00000  Uiso   1.00
O70    O     0.29251   0.06468   0.22715   0.00000  Uiso   1.00
O71    O     0.30201   0.00794   0.17228   0.00000  Uiso   1.00
O72    O     0.25972   0.07475   0.16071   0.00000  Uiso   1.00
H73    H     0.29250   0.08617   0.14249   0.00000  Uiso   1.00
S74    S     0.08112   0.29337   0.22757   0.00000  Uiso   1.00
O75    O     0.04287   0.26934   0.26535   0.00000  Uiso   1.00
O76    O     0.05684   0.32800   0.21214   0.00000  Uiso   1.00
O77    O     0.10868   0.26251   0.18144   0.00000  Uiso   1.00
H78    H     0.08164   0.24823   0.17592   0.00000  Uiso   1.00
C79    C     0.50010   0.24686   0.24977   0.00000  Uiso   1.00
C80    C     0.50000   0.08668   0.24987   0.00000  Uiso   1.00
C81    C     0.43794   0.17514   0.05414   0.00000  Uiso   1.00
C82    C     0.54729   0.21206   0.45508   0.00000  Uiso   1.00
C83    C     0.40396   0.16998   0.03343   0.00000  Uiso   1.00
C84    C     0.58115   0.21702   0.47613   0.00000  Uiso   1.00
C85    C     0.54216   0.31334   0.24857   0.00000  Uiso   1.00
C86    C     0.45552   0.02092   0.26161   0.00000  Uiso   1.00
C87    C     0.54474   0.02113   0.23634   0.00000  Uiso   1.00
C88    C     0.45856   0.31315   0.24917   0.00000  Uiso   1.00
C89    C     0.50007   0.04265   0.24932   0.00000  Uiso   1.00
C90    C     0.50031   0.29125   0.24914   0.00000  Uiso   1.00
C91    C     0.65820   0.15788   0.21032   0.00000  Uiso   1.00
C92    C     0.34183   0.17554   0.28965   0.00000  Uiso   1.00
C93    C     0.37274   0.15764   0.21040   0.00000  Uiso   1.00
C94    C     0.62727   0.17551   0.28964   0.00000  Uiso   1.00
C95    C     0.46951   0.16743   0.33800   0.00000  Uiso   1.00
C96    C     0.53044   0.16720   0.16197   0.00000  Uiso   1.00
C97    C     0.45016   0.17118   0.38852   0.00000  Uiso   1.00
C98    C     0.54859   0.17426   0.11192   0.00000  Uiso   1.00
C99    C     0.38567   0.16268   0.46397   0.00000  Uiso   1.00
C100   C     0.60506   0.20672   0.04230   0.00000  Uiso   1.00
C101   C     0.40138   0.16194   0.41563   0.00000  Uiso   1.00
C102   C     0.59385   0.19300   0.08787   0.00000  Uiso   1.00
C103   C     0.48203   0.18377   0.40967   0.00000  Uiso   1.00
C104   C     0.51557   0.16853   0.09011   0.00000  Uiso   1.00
C105   C     0.46717   0.18501   0.45802   0.00000  Uiso   1.00
C106   C     0.52387   0.18565   0.04659   0.00000  Uiso   1.00
C107   C     0.41856   0.17296   0.48533   0.00000  Uiso   1.00
C108   C     0.57032   0.20316   0.02145   0.00000  Uiso   1.00
C109   C     0.50072   0.19431   0.47957   0.00000  Uiso   1.00
C110   C     0.48739   0.18476   0.02723   0.00000  Uiso   1.00
H111   H     0.36668   0.16177   0.05495   0.00000  Uiso   1.00
H112   H     0.61629   0.23097   0.45653   0.00000  Uiso   1.00
H113   H     0.48281   0.15102   0.10825   0.00000  Uiso   1.00
H114   H     0.51935   0.19022   0.38768   0.00000  Uiso   1.00
H115   H     0.61963   0.19821   0.10467   0.00000  Uiso   1.00
H116   H     0.37603   0.15278   0.39957   0.00000  Uiso   1.00
H117   H     0.34846   0.15361   0.48456   0.00000  Uiso   1.00
H118   H     0.64020   0.22111   0.02389   0.00000  Uiso   1.00
H119   H     0.42429   0.17228   0.09156   0.00000  Uiso   1.00
H120   H     0.55798   0.22369   0.42003   0.00000  Uiso   1.00
H121   H     0.65251   0.15077   0.17861   0.00000  Uiso   1.00
H122   H     0.34755   0.18274   0.32133   0.00000  Uiso   1.00
H123   H     0.40299   0.15006   0.17869   0.00000  Uiso   1.00
H124   H     0.59703   0.18270   0.32146   0.00000  Uiso   1.00
N125   N     0.38093   0.16668   0.25001   0.00000  Uiso   1.00
N126   N     0.61907   0.16666   0.24999   0.00000  Uiso   1.00
O127   O     0.46179   0.22775   0.25001   0.00000  Uiso   1.00
O128   O     0.53821   0.10558   0.24999   0.00000  Uiso   1.00
O129   O     0.53823   0.22774   0.25000   0.00000  Uiso   1.00
O130   O     0.46177   0.10559   0.25000   0.00000  Uiso   1.00
O131   O     0.43994   0.16667   0.31613   0.00000  Uiso   1.00
O132   O     0.56006   0.16666   0.18387   0.00000  Uiso   1.00
O133   O     0.51639   0.16666   0.31612   0.00000  Uiso   1.00
O134   O     0.48361   0.16667   0.18388   0.00000  Uiso   1.00
Zn135  Zn    0.44896   0.16667   0.25000   0.00000  Uiso   1.00
Zn136  Zn    0.55104   0.16666   0.25000   0.00000  Uiso   1.00
S137   S     0.58672   0.29394   0.26979   0.00000  Uiso   1.00
O138   O     0.62398   0.26855   0.23270   0.00000  Uiso   1.00
O139   O     0.61222   0.32888   0.28327   0.00000  Uiso   1.00
O140   O     0.55903   0.26468   0.31731   0.00000  Uiso   1.00
H141   H     0.58408   0.26036   0.33105   0.00000  Uiso   1.00
S142   S     0.39765   0.04161   0.29807   0.00000  Uiso   1.00
O143   O     0.37493   0.06455   0.26904   0.00000  Uiso   1.00
O144   O     0.36387   0.00749   0.32392   0.00000  Uiso   1.00
O145   O     0.40527   0.07407   0.33718   0.00000  Uiso   1.00
H146   H     0.37318   0.08782   0.35219   0.00000  Uiso   1.00
S147   S     0.60203   0.04201   0.19891   0.00000  Uiso   1.00
O148   O     0.62584   0.06468   0.22715   0.00000  Uiso   1.00
O149   O     0.63534   0.00794   0.17228   0.00000  Uiso   1.00
O150   O     0.59306   0.07475   0.16071   0.00000  Uiso   1.00
H151   H     0.62584   0.08617   0.14249   0.00000  Uiso   1.00
S152   S     0.41445   0.29337   0.22757   0.00000  Uiso   1.00
O153   O     0.37620   0.26934   0.26535   0.00000  Uiso   1.00
O154   O     0.39017   0.32800   0.21214   0.00000  Uiso   1.00
O155   O     0.44202   0.26251   0.18144   0.00000  Uiso   1.00
H156   H     0.41497   0.24823   0.17592   0.00000  Uiso   1.00
C157   C     0.83344   0.24686   0.24977   0.00000  Uiso   1.00
C158   C     0.83334   0.08668   0.24987   0.00000  Uiso   1.00
C159   C     0.77128   0.17514   0.05414   0.00000  Uiso   1.00
C160   C     0.88062   0.21206   0.45508   0.00000  Uiso   1.00
C161   C     0.73729   0.16998   0.03343   0.00000  Uiso   1.00
C162   C     0.91448   0.21702   0.47613   0.00000  Uiso   1.00
C163   C     0.87549   0.31334   0.24857   0.00000  Uiso   1.00
C164   C     0.78885   0.02092   0.26161   0.00000  Uiso   1.00
C165   C     0.87807   0.02113   0.23634   0.00000  Uiso   1.00
C166   C     0.79189   0.31315   0.24917   0.00000  Uiso   1.00
C167   C     0.83340   0.04265   0.24932   0.00000  Uiso   1.00
C168   C     0.83365   0.29125   0.24914   0.00000  Uiso   1.00
C169   C     0.99153   0.15788   0.21032   0.00000  Uiso   1.00
C170   C     0.67517   0.17554   0.28965   0.00000  Uiso   1.00
C171   C     0.70607   0.15764   0.21040   0.00000  Uiso   1.00
C172   C     0.96061   0.17551   0.28964   0.00000  Uiso   1.00
C173   C     0.80284   0.16743   0.33800   0.00000  Uiso   1.00
C174   C     0.86377   0.16720   0.16197   0.00000  Uiso   1.00
C175   C     0.78349   0.17118   0.38852   0.00000  Uiso   1.00
C176   C     0.88193   0.17426   0.11192   0.00000  Uiso   1.00
C177   C     0.71901   0.16268   0.46397   0.00000  Uiso   1.00
C178   C     0.93840   0.20672   0.04230   0.00000  Uiso   1.00
C179   C     0.73472   0.16194   0.41563   0.00000  Uiso   1.00
C180   C     0.92719   0.19300   0.08787   0.00000  Uiso   1.00
C181   C     0.81536   0.18377   0.40967   0.00000  Uiso   1.00
C182   C     0.84890   0.16853   0.09011   0.00000  Uiso   1.00
C183   C     0.80050   0.18501   0.45802   0.00000  Uiso   1.00
C184   C     0.85720   0.18565   0.04659   0.00000  Uiso   1.00
C185   C     0.75190   0.17296   0.48533   0.00000  Uiso   1.00
C186   C     0.90365   0.20316   0.02145   0.00000  Uiso   1.00
C187   C     0.83405   0.19431   0.47957   0.00000  Uiso   1.00
C188   C     0.82072   0.18476   0.02723   0.00000  Uiso   1.00
H189   H     0.70002   0.16177   0.05495   0.00000  Uiso   1.00
H190   H     0.94962   0.23097   0.45653   0.00000  Uiso   1.00
H191   H     0.81615   0.15102   0.10825   0.00000  Uiso   1.00
H192   H     0.85268   0.19022   0.38768   0.00000  Uiso   1.00
H193   H     0.95296   0.19821   0.10467   0.00000  Uiso   1.00
H194   H     0.70936   0.15278   0.39957   0.00000  Uiso   1.00
H195   H     0.68179   0.15361   0.48456   0.00000  Uiso   1.00
H196   H     0.97354   0.22111   0.02389   0.00000  Uiso   1.00
H197   H     0.75763   0.17228   0.09156   0.00000  Uiso   1.00
H198   H     0.89131   0.22369   0.42003   0.00000  Uiso   1.00
H199   H     0.98585   0.15077   0.17861   0.00000  Uiso   1.00
H200   H     0.68088   0.18274   0.32133   0.00000  Uiso   1.00
H201   H     0.73633   0.15006   0.17869   0.00000  Uiso   1.00
H202   H     0.93036   0.18270   0.32146   0.00000  Uiso   1.00
N203   N     0.71426   0.16668   0.25001   0.00000  Uiso   1.00
N204   N     0.95241   0.16666   0.24999   0.00000  Uiso   1.00
O205   O     0.79512   0.22775   0.25001   0.00000  Uiso   1.00
O206   O     0.87154   0.10558   0.24999   0.00000  Uiso   1.00
O207   O     0.87157   0.22774   0.25000   0.00000  Uiso   1.00
O208   O     0.79510   0.10559   0.25000   0.00000  Uiso   1.00
O209   O     0.77328   0.16667   0.31613   0.00000  Uiso   1.00
O210   O     0.89339   0.16666   0.18387   0.00000  Uiso   1.00
O211   O     0.84972   0.16666   0.31612   0.00000  Uiso   1.00
O212   O     0.81695   0.16667   0.18388   0.00000  Uiso   1.00
Zn213  Zn    0.78229   0.16667   0.25000   0.00000  Uiso   1.00
Zn214  Zn    0.88438   0.16666   0.25000   0.00000  Uiso   1.00
S215   S     0.92005   0.29394   0.26979   0.00000  Uiso   1.00
O216   O     0.95731   0.26855   0.23270   0.00000  Uiso   1.00
O217   O     0.94555   0.32888   0.28327   0.00000  Uiso   1.00
O218   O     0.89237   0.26468   0.31731   0.00000  Uiso   1.00
H219   H     0.91741   0.26036   0.33105   0.00000  Uiso   1.00
S220   S     0.73098   0.04161   0.29807   0.00000  Uiso   1.00
O221   O     0.70827   0.06455   0.26904   0.00000  Uiso   1.00
O222   O     0.69720   0.00749   0.32392   0.00000  Uiso   1.00
O223   O     0.73861   0.07407   0.33718   0.00000  Uiso   1.00
H224   H     0.70651   0.08782   0.35219   0.00000  Uiso   1.00
S225   S     0.93536   0.04201   0.19891   0.00000  Uiso   1.00
O226   O     0.95917   0.06468   0.22715   0.00000  Uiso   1.00
O227   O     0.96868   0.00794   0.17228   0.00000  Uiso   1.00
O228   O     0.92639   0.07475   0.16071   0.00000  Uiso   1.00
H229   H     0.95917   0.08617   0.14249   0.00000  Uiso   1.00
S230   S     0.74778   0.29337   0.22757   0.00000  Uiso   1.00
O231   O     0.70953   0.26934   0.26535   0.00000  Uiso   1.00
O232   O     0.72350   0.32800   0.21214   0.00000  Uiso   1.00
O233   O     0.77535   0.26251   0.18144   0.00000  Uiso   1.00
H234   H     0.74830   0.24823   0.17592   0.00000  Uiso   1.00
C235   C     0.16677   0.58019   0.24977   0.00000  Uiso   1.00
C236   C     0.16667   0.42001   0.24987   0.00000  Uiso   1.00
C237   C     0.10461   0.50847   0.05414   0.00000  Uiso   1.00
C238   C     0.21396   0.54539   0.45508   0.00000  Uiso   1.00
C239   C     0.07062   0.50331   0.03343   0.00000  Uiso   1.00
C240   C     0.24782   0.55035   0.47613   0.00000  Uiso   1.00
C241   C     0.20883   0.64667   0.24857   0.00000  Uiso   1.00
C242   C     0.12219   0.35425   0.26161   0.00000  Uiso   1.00
C243   C     0.21141   0.35446   0.23634   0.00000  Uiso   1.00
C244   C     0.12523   0.64648   0.24917   0.00000  Uiso   1.00
C245   C     0.16673   0.37598   0.24932   0.00000  Uiso   1.00
C246   C     0.16698   0.62458   0.24914   0.00000  Uiso   1.00
C247   C     0.32487   0.49121   0.21032   0.00000  Uiso   1.00
C248   C     0.00850   0.50887   0.28965   0.00000  Uiso   1.00
C249   C     0.03941   0.49097   0.21040   0.00000  Uiso   1.00
C250   C     0.29394   0.50885   0.28964   0.00000  Uiso   1.00
C251   C     0.13617   0.50077   0.33800   0.00000  Uiso   1.00
C252   C     0.19710   0.50053   0.16197   0.00000  Uiso   1.00
C253   C     0.11682   0.50451   0.38852   0.00000  Uiso   1.00
C254   C     0.21526   0.50759   0.11192   0.00000  Uiso   1.00
C255   C     0.05234   0.49601   0.46397   0.00000  Uiso   1.00
C256   C     0.27173   0.54005   0.04230   0.00000  Uiso   1.00
C257   C     0.06805   0.49527   0.41563   0.00000  Uiso   1.00
C258   C     0.26052   0.52633   0.08787   0.00000  Uiso   1.00
C259   C     0.14869   0.51710   0.40967   0.00000  Uiso   1.00
C260   C     0.18223   0.50186   0.09011   0.00000  Uiso   1.00
C261   C     0.13384   0.51835   0.45802   0.00000  Uiso   1.00
C262   C     0.19054   0.51898   0.04659   0.00000  Uiso   1.00
C263   C     0.08523   0.50630   0.48533   0.00000  Uiso   1.00
C264   C     0.23698   0.53649   0.02145   0.00000  Uiso   1.00
C265   C     0.16738   0.52764   0.47957   0.00000  Uiso   1.00
C266   C     0.15406   0.51810   0.02723   0.00000  Uiso   1.00
H267   H     0.03335   0.49510   0.05495   0.00000  Uiso   1.00
H268   H     0.28296   0.56430   0.45653   0.00000  Uiso   1.00
H269   H     0.14948   0.48435   0.10825   0.00000  Uiso   1.00
H270   H     0.18602   0.52356   0.38768   0.00000  Uiso   1.00
H271   H     0.28629   0.53154   0.10467   0.00000  Uiso   1.00
H272   H     0.04270   0.48612   0.39957   0.00000  Uiso   1.00
H273   H     0.01513   0.48694   0.48456   0.00000  Uiso   1.00
H274   H     0.30687   0.55445   0.02389   0.00000  Uiso   1.00
H275   H     0.09096   0.50562   0.09156   0.00000  Uiso   1.00
H276   H     0.22464   0.55702   0.42003   0.00000  Uiso   1.00
H277   H     0.31918   0.48411   0.17861   0.00000  Uiso   1.00
H278   H     0.01422   0.51608   0.32133   0.00000  Uiso   1.00
H279   H     0.06966   0.48339   0.17869   0.00000  Uiso   1.00
H280   H     0.26370   0.51604   0.32146   0.00000  Uiso   1.00
N281   N     0.04759   0.50001   0.25001   0.00000  Uiso   1.00
N282   N     0.28574   0.49999   0.24999   0.00000  Uiso   1.00
O283   O     0.12846   0.56108   0.25001   0.00000  Uiso   1.00
O284   O     0.20488   0.43892   0.24999   0.00000  Uiso   1.00
O285   O     0.20490   0.56107   0.25000   0.00000  Uiso   1.00
O286   O     0.12843   0.43893   0.25000   0.00000  Uiso   1.00
O287   O     0.10661   0.50001   0.31613   0.00000  Uiso   1.00
O288   O     0.22672   0.49999   0.18387   0.00000  Uiso   1.00
O289   O     0.18305   0.50000   0.31612   0.00000  Uiso   1.00
O290   O     0.15028   0.50000   0.18388   0.00000  Uiso   1.00
Zn291  Zn    0.11562   0.50001   0.25000   0.00000  Uiso   1.00
Zn292  Zn    0.21771   0.49999   0.25000   0.00000  Uiso   1.00
S293   S     0.25339   0.62728   0.26979   0.00000  Uiso   1.00
O294   O     0.29064   0.60188   0.23270   0.00000  Uiso   1.00
O295   O     0.27889   0.66222   0.28327   0.00000  Uiso   1.00
O296   O     0.22570   0.59801   0.31731   0.00000  Uiso   1.00
H297   H     0.25075   0.59370   0.33105   0.00000  Uiso   1.00
S298   S     0.06431   0.37494   0.29807   0.00000  Uiso   1.00
O299   O     0.04160   0.39788   0.26904   0.00000  Uiso   1.00
O300   O     0.03053   0.34083   0.32392   0.00000  Uiso   1.00
O301   O     0.07194   0.40740   0.33718   0.00000  Uiso   1.00
H302   H     0.03985   0.42115   0.35219   0.00000  Uiso   1.00
S303   S     0.26869   0.37534   0.19891   0.00000  Uiso   1.00
O304   O     0.29251   0.39801   0.22715   0.00000  Uiso   1.00
O305   O     0.30201   0.34127   0.17228   0.00000  Uiso   1.00
O306   O     0.25972   0.40809   0.16071   0.00000  Uiso   1.00
H307   H     0.29250   0.41950   0.14249   0.00000  Uiso   1.00
S308   S     0.08112   0.62670   0.22757   0.00000  Uiso   1.00
O309   O     0.04287   0.60267   0.26535   0.00000  Uiso   1.00
O310   O     0.05684   0.66133   0.21214   0.00000  Uiso   1.00
O311   O     0.10868   0.59584   0.18144   0.00000  Uiso   1.00
H312   H     0.08164   0.58157   0.17592   0.00000  Uiso   1.00
C313   C     0.50010   0.58019   0.24977   0.00000  Uiso   1.00
C314   C     0.50000   0.42001   0.24987   0.00000  Uiso   1.00
C315   C     0.43794   0.50847   0.05414   0.00000  Uiso   1.00
C316   C     0.54729   0.54539   0.45508   0.00000  Uiso   1.00
C317   C     0.40396   0.50331   0.03343   0.00000  Uiso   1.00
C318   C     0.58115   0.55035   0.47613   0.00000  Uiso   1.00
C319   C     0.54216   0.64667   0.24857   0.00000  Uiso   1.00
C320   C     0.45552   0.35425   0.26161   0.00000  Uiso   1.00
C321   C     0.54474   0.35446   0.23634   0.00000  Uiso   1.00
C322   C     0.45856   0.64648   0.24917   0.00000  Uiso   1.00
C323   C     0.50007   0.37598   0.24932   0.00000  Uiso   1.00
C324   C     0.50031   0.62458   0.24914   0.00000  Uiso   1.00
C325   C     0.65820   0.49121   0.21032   0.00000  Uiso   1.00
C326   C     0.34183   0.50887   0.28965   0.00000  Uiso   1.00
C327   C     0.37274   0.49097   0.21040   0.00000  Uiso   1.00
C328   C     0.62727   0.50885   0.28964   0.00000  Uiso   1.00
C329   C     0.46951   0.50077   0.33800   0.00000  Uiso   1.00
C330   C     0.53044   0.50053   0.16197   0.00000  Uiso   1.00
C331   C     0.45016   0.50451   0.38852   0.00000  Uiso   1.00
C332   C     0.54859   0.50759   0.11192   0.00000  Uiso   1.00
C333   C     0.38567   0.49601   0.46397   0.00000  Uiso   1.00
C334   C     0.60506   0.54005   0.04230   0.00000  Uiso   1.00
C335   C     0.40138   0.49527   0.41563   0.00000  Uiso   1.00
C336   C     0.59385   0.52633   0.08787   0.00000  Uiso   1.00
C337   C     0.48203   0.51710   0.40967   0.00000  Uiso   1.00
C338   C     0.51557   0.50186   0.09011   0.00000  Uiso   1.00
C339   C     0.46717   0.51835   0.45802   0.00000  Uiso   1.00
C340   C     0.52387   0.51898   0.04659   0.00000  Uiso   1.00
C341   C     0.41856   0.50630   0.48533   0.00000  Uiso   1.00
C342   C     0.57032   0.53649   0.02145   0.00000  Uiso   1.00
C343   C     0.50072   0.52764   0.47957   0.00000  Uiso   1.00
C344   C     0.48739   0.51810   0.02723   0.00000  Uiso   1.00
H345   H     0.36668   0.49510   0.05495   0.00000  Uiso   1.00
H346   H     0.61629   0.56430   0.45653   0.00000  Uiso   1.00
H347   H     0.48281   0.48435   0.10825   0.00000  Uiso   1.00
H348   H     0.51935   0.52356   0.38768   0.00000  Uiso   1.00
H349   H     0.61963   0.53154   0.10467   0.00000  Uiso   1.00
H350   H     0.37603   0.48612   0.39957   0.00000  Uiso   1.00
H351   H     0.34846   0.48694   0.48456   0.00000  Uiso   1.00
H352   H     0.64020   0.55445   0.02389   0.00000  Uiso   1.00
H353   H     0.42429   0.50562   0.09156   0.00000  Uiso   1.00
H354   H     0.55798   0.55702   0.42003   0.00000  Uiso   1.00
H355   H     0.65251   0.48411   0.17861   0.00000  Uiso   1.00
H356   H     0.34755   0.51608   0.32133   0.00000  Uiso   1.00
H357   H     0.40299   0.48339   0.17869   0.00000  Uiso   1.00
H358   H     0.59703   0.51604   0.32146   0.00000  Uiso   1.00
N359   N     0.38093   0.50001   0.25001   0.00000  Uiso   1.00
N360   N     0.61907   0.49999   0.24999   0.00000  Uiso   1.00
O361   O     0.46179   0.56108   0.25001   0.00000  Uiso   1.00
O362   O     0.53821   0.43892   0.24999   0.00000  Uiso   1.00
O363   O     0.53823   0.56107   0.25000   0.00000  Uiso   1.00
O364   O     0.46177   0.43893   0.25000   0.00000  Uiso   1.00
O365   O     0.43994   0.50001   0.31613   0.00000  Uiso   1.00
O366   O     0.56006   0.49999   0.18387   0.00000  Uiso   1.00
O367   O     0.51639   0.50000   0.31612   0.00000  Uiso   1.00
O368   O     0.48361   0.50000   0.18388   0.00000  Uiso   1.00
Zn369  Zn    0.44896   0.50001   0.25000   0.00000  Uiso   1.00
Zn370  Zn    0.55104   0.49999   0.25000   0.00000  Uiso   1.00
S371   S     0.58672   0.62728   0.26979   0.00000  Uiso   1.00
O372   O     0.62398   0.60188   0.23270   0.00000  Uiso   1.00
O373   O     0.61222   0.66222   0.28327   0.00000  Uiso   1.00
O374   O     0.55903   0.59801   0.31731   0.00000  Uiso   1.00
H375   H     0.58408   0.59370   0.33105   0.00000  Uiso   1.00
S376   S     0.39765   0.37494   0.29807   0.00000  Uiso   1.00
O377   O     0.37493   0.39788   0.26904   0.00000  Uiso   1.00
O378   O     0.36387   0.34083   0.32392   0.00000  Uiso   1.00
O379   O     0.40527   0.40740   0.33718   0.00000  Uiso   1.00
H380   H     0.37318   0.42115   0.35219   0.00000  Uiso   1.00
S381   S     0.60203   0.37534   0.19891   0.00000  Uiso   1.00
O382   O     0.62584   0.39801   0.22715   0.00000  Uiso   1.00
O383   O     0.63534   0.34127   0.17228   0.00000  Uiso   1.00
O384   O     0.59306   0.40809   0.16071   0.00000  Uiso   1.00
H385   H     0.62584   0.41950   0.14249   0.00000  Uiso   1.00
S386   S     0.41445   0.62670   0.22757   0.00000  Uiso   1.00
O387   O     0.37620   0.60267   0.26535   0.00000  Uiso   1.00
O388   O     0.39017   0.66133   0.21214   0.00000  Uiso   1.00
O389   O     0.44202   0.59584   0.18144   0.00000  Uiso   1.00
H390   H     0.41497   0.58157   0.17592   0.00000  Uiso   1.00
C391   C     0.83344   0.58019   0.24977   0.00000  Uiso   1.00
C392   C     0.83334   0.42001   0.24987   0.00000  Uiso   1.00
C393   C     0.77128   0.50847   0.05414   0.00000  Uiso   1.00
C394   C     0.88062   0.54539   0.45508   0.00000  Uiso   1.00
C395   C     0.73729   0.50331   0.03343   0.00000  Uiso   1.00
C396   C     0.91448   0.55035   0.47613   0.00000  Uiso   1.00
C397   C     0.87549   0.64667   0.24857   0.00000  Uiso   1.00
C398   C     0.78885   0.35425   0.26161   0.00000  Uiso   1.00
C399   C     0.87807   0.35446   0.23634   0.00000  Uiso   1.00
C400   C     0.79189   0.64648   0.24917   0.00000  Uiso   1.00
C401   C     0.83340   0.37598   0.24932   0.00000  Uiso   1.00
C402   C     0.83365   0.62458   0.24914   0.00000  Uiso   1.00
C403   C     0.99153   0.49121   0.21032   0.00000  Uiso   1.00
C404   C     0.67517   0.50887   0.28965   0.00000  Uiso   1.00
C405   C     0.70607   0.49097   0.21040   0.00000  Uiso   1.00
C406   C     0.96061   0.50885   0.28964   0.00000  Uiso   1.00
C407   C     0.80284   0.50077   0.33800   0.00000  Uiso   1.00
C408   C     0.86377   0.50053   0.16197   0.00000  Uiso   1.00
C409   C     0.78349   0.50451   0.38852   0.00000  Uiso   1.00
C410   C     0.88193   0.50759   0.11192   0.00000  Uiso   1.00
C411   C     0.71901   0.49601   0.46397   0.00000  Uiso   1.00
C412   C     0.93840   0.54005   0.04230   0.00000  Uiso   1.00
C413   C     0.73472   0.49527   0.41563   0.00000  Uiso   1.00
C414   C     0.92719   0.52633   0.08787   0.00000  Uiso   1.00
C415   C     0.81536   0.51710   0.40967   0.00000  Uiso   1.00
C416   C     0.84890   0.50186   0.09011   0.00000  Uiso   1.00
C417   C     0.80050   0.51835   0.45802   0.00000  Uiso   1.00
C418   C     0.85720   0.51898   0.04659   0.00000  Uiso   1.00
C419   C     0.75190   0.50630   0.48533   0.00000  Uiso   1.00
C420   C     0.90365   0.53649   0.02145   0.00000  Uiso   1.00
C421   C     0.83405   0.52764   0.47957   0.00000  Uiso   1.00
C422   C     0.82072   0.51810   0.02723   0.00000  Uiso   1.00
H423   H     0.70002   0.49510   0.05495   0.00000  Uiso   1.00
H424   H     0.94962   0.56430   0.45653   0.00000  Uiso   1.00
H425   H     0.81615   0.48435   0.10825   0.00000  Uiso   1.00
H426   H     0.85268   0.52356   0.38768   0.00000  Uiso   1.00
H427   H     0.95296   0.53154   0.10467   0.00000  Uiso   1.00
H428   H     0.70936   0.48612   0.39957   0.00000  Uiso   1.00
H429   H     0.68179   0.48694   0.48456   0.00000  Uiso   1.00
H430   H     0.97354   0.55445   0.02389   0.00000  Uiso   1.00
H431   H     0.75763   0.50562   0.09156   0.00000  Uiso   1.00
H432   H     0.89131   0.55702   0.42003   0.00000  Uiso   1.00
H433   H     0.98585   0.48411   0.17861   0.00000  Uiso   1.00
H434   H     0.68088   0.51608   0.32133   0.00000  Uiso   1.00
H435   H     0.73633   0.48339   0.17869   0.00000  Uiso   1.00
H436   H     0.93036   0.51604   0.32146   0.00000  Uiso   1.00
N437   N     0.71426   0.50001   0.25001   0.00000  Uiso   1.00
N438   N     0.95241   0.49999   0.24999   0.00000  Uiso   1.00
O439   O     0.79512   0.56108   0.25001   0.00000  Uiso   1.00
O440   O     0.87154   0.43892   0.24999   0.00000  Uiso   1.00
O441   O     0.87157   0.56107   0.25000   0.00000  Uiso   1.00
O442   O     0.79510   0.43893   0.25000   0.00000  Uiso   1.00
O443   O     0.77328   0.50001   0.31613   0.00000  Uiso   1.00
O444   O     0.89339   0.49999   0.18387   0.00000  Uiso   1.00
O445   O     0.84972   0.50000   0.31612   0.00000  Uiso   1.00
O446   O     0.81695   0.50000   0.18388   0.00000  Uiso   1.00
Zn447  Zn    0.78229   0.50001   0.25000   0.00000  Uiso   1.00
Zn448  Zn    0.88438   0.49999   0.25000   0.00000  Uiso   1.00
S449   S     0.92005   0.62728   0.26979   0.00000  Uiso   1.00
O450   O     0.95731   0.60188   0.23270   0.00000  Uiso   1.00
O451   O     0.94555   0.66222   0.28327   0.00000  Uiso   1.00
O452   O     0.89237   0.59801   0.31731   0.00000  Uiso   1.00
H453   H     0.91741   0.59370   0.33105   0.00000  Uiso   1.00
S454   S     0.73098   0.37494   0.29807   0.00000  Uiso   1.00
O455   O     0.70827   0.39788   0.26904   0.00000  Uiso   1.00
O456   O     0.69720   0.34083   0.32392   0.00000  Uiso   1.00
O457   O     0.73861   0.40740   0.33718   0.00000  Uiso   1.00
H458   H     0.70651   0.42115   0.35219   0.00000  Uiso   1.00
S459   S     0.93536   0.37534   0.19891   0.00000  Uiso   1.00
O460   O     0.95917   0.39801   0.22715   0.00000  Uiso   1.00
O461   O     0.96868   0.34127   0.17228   0.00000  Uiso   1.00
O462   O     0.92639   0.40809   0.16071   0.00000  Uiso   1.00
H463   H     0.95917   0.41950   0.14249   0.00000  Uiso   1.00
S464   S     0.74778   0.62670   0.22757   0.00000  Uiso   1.00
O465   O     0.70953   0.60267   0.26535   0.00000  Uiso   1.00
O466   O     0.72350   0.66133   0.21214   0.00000  Uiso   1.00
O467   O     0.77535   0.59584   0.18144   0.00000  Uiso   1.00
H468   H     0.74830   0.58157   0.17592   0.00000  Uiso   1.00
C469   C     0.16677   0.91353   0.24977   0.00000  Uiso   1.00
C470   C     0.16667   0.75335   0.24987   0.00000  Uiso   1.00
C471   C     0.10461   0.84180   0.05414   0.00000  Uiso   1.00
C472   C     0.21396   0.87873   0.45508   0.00000  Uiso   1.00
C473   C     0.07062   0.83664   0.03343   0.00000  Uiso   1.00
C474   C     0.24782   0.88369   0.47613   0.00000  Uiso   1.00
C475   C     0.20883   0.98001   0.24857   0.00000  Uiso   1.00
C476   C     0.12219   0.68759   0.26161   0.00000  Uiso   1.00
C477   C     0.21141   0.68779   0.23634   0.00000  Uiso   1.00
C478   C     0.12523   0.97982   0.24917   0.00000  Uiso   1.00
C479   C     0.16673   0.70932   0.24932   0.00000  Uiso   1.00
C480   C     0.16698   0.95791   0.24914   0.00000  Uiso   1.00
C481   C     0.32487   0.82454   0.21032   0.00000  Uiso   1.00
C482   C     0.00850   0.84220   0.28965   0.00000  Uiso   1.00
C483   C     0.03941   0.82430   0.21040   0.00000  Uiso   1.00
C484   C     0.29394   0.84218   0.28964   0.00000  Uiso   1.00
C485   C     0.13617   0.83410   0.33800   0.00000  Uiso   1.00
C486   C     0.19710   0.83387   0.16197   0.00000  Uiso   1.00
C487   C     0.11682   0.83784   0.38852   0.00000  Uiso   1.00
C488   C     0.21526   0.84092   0.11192   0.00000  Uiso   1.00
C489   C     0.05234   0.82935   0.46397   0.00000  Uiso   1.00
C490   C     0.27173   0.87339   0.04230   0.00000  Uiso   1.00
C491   C     0.06805   0.82861   0.41563   0.00000  Uiso   1.00
C492   C     0.26052   0.85966   0.08787   0.00000  Uiso   1.00
C493   C     0.14869   0.85043   0.40967   0.00000  Uiso   1.00
C494   C     0.18223   0.83519   0.09011   0.00000  Uiso   1.00
C495   C     0.13384   0.85168   0.45802   0.00000  Uiso   1.00
C496   C     0.19054   0.85232   0.04659   0.00000  Uiso   1.00
C497   C     0.08523   0.83963   0.48533   0.00000  Uiso   1.00
C498   C     0.23698   0.86983   0.02145   0.00000  Uiso   1.00
C499   C     0.16738   0.86098   0.47957   0.00000  Uiso   1.00
C500   C     0.15406   0.85143   0.02723   0.00000  Uiso   1.00
H501   H     0.03335   0.82844   0.05495   0.00000  Uiso   1.00
H502   H     0.28296   0.89763   0.45653   0.00000  Uiso   1.00
H503   H     0.14948   0.81769   0.10825   0.00000  Uiso   1.00
H504   H     0.18602   0.85689   0.38768   0.00000  Uiso   1.00
H505   H     0.28629   0.86487   0.10467   0.00000  Uiso   1.00
H506   H     0.04270   0.81945   0.39957   0.00000  Uiso   1.00
H507   H     0.01513   0.82028   0.48456   0.00000  Uiso   1.00
H508   H     0.30687   0.88778   0.02389   0.00000  Uiso   1.00
H509   H     0.09096   0.83895   0.09156   0.00000  Uiso   1.00
H510   H     0.22464   0.89035   0.42003   0.00000  Uiso   1.00
H511   H     0.31918   0.81744   0.17861   0.00000  Uiso   1.00
H512   H     0.01422   0.84941   0.32133   0.00000  Uiso   1.00
H513   H     0.06966   0.81673   0.17869   0.00000  Uiso   1.00
H514   H     0.26370   0.84937   0.32146   0.00000  Uiso   1.00
N515   N     0.04759   0.83334   0.25001   0.00000  Uiso   1.00
N516   N     0.28574   0.83332   0.24999   0.00000  Uiso   1.00
O517   O     0.12846   0.89442   0.25001   0.00000  Uiso   1.00
O518   O     0.20488   0.77225   0.24999   0.00000  Uiso   1.00
O519   O     0.20490   0.89441   0.25000   0.00000  Uiso   1.00
O520   O     0.12843   0.77226   0.25000   0.00000  Uiso   1.00
O521   O     0.10661   0.83334   0.31613   0.00000  Uiso   1.00
O522   O     0.22672   0.83333   0.18387   0.00000  Uiso   1.00
O523   O     0.18305   0.83333   0.31612   0.00000  Uiso   1.00
O524   O     0.15028   0.83334   0.18388   0.00000  Uiso   1.00
Zn525  Zn    0.11562   0.83334   0.25000   0.00000  Uiso   1.00
Zn526  Zn    0.21771   0.83333   0.25000   0.00000  Uiso   1.00
S527   S     0.25339   0.96061   0.26979   0.00000  Uiso   1.00
O528   O     0.29064   0.93521   0.23270   0.00000  Uiso   1.00
O529   O     0.27889   0.99555   0.28327   0.00000  Uiso   1.00
O530   O     0.22570   0.93135   0.31731   0.00000  Uiso   1.00
H531   H     0.25075   0.92703   0.33105   0.00000  Uiso   1.00
S532   S     0.06431   0.70828   0.29807   0.00000  Uiso   1.00
O533   O     0.04160   0.73121   0.26904   0.00000  Uiso   1.00
O534   O     0.03053   0.67416   0.32392   0.00000  Uiso   1.00
O535   O     0.07194   0.74074   0.33718   0.00000  Uiso   1.00
H536   H     0.03985   0.75448   0.35219   0.00000  Uiso   1.00
S537   S     0.26869   0.70867   0.19891   0.00000  Uiso   1.00
O538   O     0.29251   0.73135   0.22715   0.00000  Uiso   1.00
O539   O     0.30201   0.67460   0.17228   0.00000  Uiso   1.00
O540   O     0.25972   0.74142   0.16071   0.00000  Uiso   1.00
H541   H     0.29250   0.75283   0.14249   0.00000  Uiso   1.00
S542   S     0.08112   0.96003   0.22757   0.00000  Uiso   1.00
O543   O     0.04287   0.93600   0.26535   0.00000  Uiso   1.00
O544   O     0.05684   0.99466   0.21214   0.00000  Uiso   1.00
O545   O     0.10868   0.92918   0.18144   0.00000  Uiso   1.00
H546   H     0.08164   0.91490   0.17592   0.00000  Uiso   1.00
C547   C     0.50010   0.91353   0.24977   0.00000  Uiso   1.00
C548   C     0.50000   0.75335   0.24987   0.00000  Uiso   1.00
C549   C     0.43794   0.84180   0.05414   0.00000  Uiso   1.00
C550   C     0.54729   0.87873   0.45508   0.00000  Uiso   1.00
C551   C     0.40396   0.83664   0.03343   0.00000  Uiso   1.00
C552   C     0.58115   0.88369   0.47613   0.00000  Uiso   1.00
C553   C     0.54216   0.98001   0.24857   0.00000  Uiso   1.00
C554   C     0.45552   0.68759   0.26161   0.00000  Uiso   1.00
C555   C     0.54474   0.68779   0.23634   0.00000  Uiso   1.00
C556   C     0.45856   0.97982   0.24917   0.00000  Uiso   1.00
C557   C     0.50007   0.70932   0.24932   0.00000  Uiso   1.00
C558   C     0.50031   0.95791   0.24914   0.00000  Uiso   1.00
C559   C     0.65820   0.82454   0.21032   0.00000  Uiso   1.00
C560   C     0.34183   0.84220   0.28965   0.00000  Uiso   1.00
C561   C     0.37274   0.82430   0.21040   0.00000  Uiso   1.00
C562   C     0.62727   0.84218   0.28964   0.00000  Uiso   1.00
C563   C     0.46951   0.83410   0.33800   0.00000  Uiso   1.00
C564   C     0.53044   0.83387   0.16197   0.00000  Uiso   1.00
C565   C     0.45016   0.83784   0.38852   0.00000  Uiso   1.00
C566   C     0.54859   0.84092   0.11192   0.00000  Uiso   1.00
C567   C     0.38567   0.82935   0.46397   0.00000  Uiso   1.00
C568   C     0.60506   0.87339   0.04230   0.00000  Uiso   1.00
C569   C     0.40138   0.82861   0.41563   0.00000  Uiso   1.00
C570   C     0.59385   0.85966   0.08787   0.00000  Uiso   1.00
C571   C     0.48203   0.85043   0.40967   0.00000  Uiso   1.00
C572   C     0.51557   0.83519   0.09011   0.00000  Uiso   1.00
C573   C     0.46717   0.85168   0.45802   0.00000  Uiso   1.00
C574   C     0.52387   0.85232   0.04659   0.00000  Uiso   1.00
C575   C     0.41856   0.83963   0.48533   0.00000  Uiso   1.00
C576   C     0.57032   0.86983   0.02145   0.00000  Uiso   1.00
C577   C     0.50072   0.86098   0.47957   0.00000  Uiso   1.00
C578   C     0.48739   0.85143   0.02723   0.00000  Uiso   1.00
H579   H     0.36668   0.82844   0.05495   0.00000  Uiso   1.00
H580   H     0.61629   0.89763   0.45653   0.00000  Uiso   1.00
H581   H     0.48281   0.81769   0.10825   0.00000  Uiso   1.00
H582   H     0.51935   0.85689   0.38768   0.00000  Uiso   1.00
H583   H     0.61963   0.86487   0.10467   0.00000  Uiso   1.00
H584   H     0.37603   0.81945   0.39957   0.00000  Uiso   1.00
H585   H     0.34846   0.82028   0.48456   0.00000  Uiso   1.00
H586   H     0.64020   0.88778   0.02389   0.00000  Uiso   1.00
H587   H     0.42429   0.83895   0.09156   0.00000  Uiso   1.00
H588   H     0.55798   0.89035   0.42003   0.00000  Uiso   1.00
H589   H     0.65251   0.81744   0.17861   0.00000  Uiso   1.00
H590   H     0.34755   0.84941   0.32133   0.00000  Uiso   1.00
H591   H     0.40299   0.81673   0.17869   0.00000  Uiso   1.00
H592   H     0.59703   0.84937   0.32146   0.00000  Uiso   1.00
N593   N     0.38093   0.83334   0.25001   0.00000  Uiso   1.00
N594   N     0.61907   0.83332   0.24999   0.00000  Uiso   1.00
O595   O     0.46179   0.89442   0.25001   0.00000  Uiso   1.00
O596   O     0.53821   0.77225   0.24999   0.00000  Uiso   1.00
O597   O     0.53823   0.89441   0.25000   0.00000  Uiso   1.00
O598   O     0.46177   0.77226   0.25000   0.00000  Uiso   1.00
O599   O     0.43994   0.83334   0.31613   0.00000  Uiso   1.00
O600   O     0.56006   0.83333   0.18387   0.00000  Uiso   1.00
O601   O     0.51639   0.83333   0.31612   0.00000  Uiso   1.00
O602   O     0.48361   0.83334   0.18388   0.00000  Uiso   1.00
Zn603  Zn    0.44896   0.83334   0.25000   0.00000  Uiso   1.00
Zn604  Zn    0.55104   0.83333   0.25000   0.00000  Uiso   1.00
S605   S     0.58672   0.96061   0.26979   0.00000  Uiso   1.00
O606   O     0.62398   0.93521   0.23270   0.00000  Uiso   1.00
O607   O     0.61222   0.99555   0.28327   0.00000  Uiso   1.00
O608   O     0.55903   0.93135   0.31731   0.00000  Uiso   1.00
H609   H     0.58408   0.92703   0.33105   0.00000  Uiso   1.00
S610   S     0.39765   0.70828   0.29807   0.00000  Uiso   1.00
O611   O     0.37493   0.73121   0.26904   0.00000  Uiso   1.00
O612   O     0.36387   0.67416   0.32392   0.00000  Uiso   1.00
O613   O     0.40527   0.74074   0.33718   0.00000  Uiso   1.00
H614   H     0.37318   0.75448   0.35219   0.00000  Uiso   1.00
S615   S     0.60203   0.70867   0.19891   0.00000  Uiso   1.00
O616   O     0.62584   0.73135   0.22715   0.00000  Uiso   1.00
O617   O     0.63534   0.67460   0.17228   0.00000  Uiso   1.00
O618   O     0.59306   0.74142   0.16071   0.00000  Uiso   1.00
H619   H     0.62584   0.75283   0.14249   0.00000  Uiso   1.00
S620   S     0.41445   0.96003   0.22757   0.00000  Uiso   1.00
O621   O     0.37620   0.93600   0.26535   0.00000  Uiso   1.00
O622   O     0.39017   0.99466   0.21214   0.00000  Uiso   1.00
O623   O     0.44202   0.92918   0.18144   0.00000  Uiso   1.00
H624   H     0.41497   0.91490   0.17592   0.00000  Uiso   1.00
C625   C     0.83344   0.91353   0.24977   0.00000  Uiso   1.00
C626   C     0.83334   0.75335   0.24987   0.00000  Uiso   1.00
C627   C     0.77128   0.84180   0.05414   0.00000  Uiso   1.00
C628   C     0.88062   0.87873   0.45508   0.00000  Uiso   1.00
C629   C     0.73729   0.83664   0.03343   0.00000  Uiso   1.00
C630   C     0.91448   0.88369   0.47613   0.00000  Uiso   1.00
C631   C     0.87549   0.98001   0.24857   0.00000  Uiso   1.00
C632   C     0.78885   0.68759   0.26161   0.00000  Uiso   1.00
C633   C     0.87807   0.68779   0.23634   0.00000  Uiso   1.00
C634   C     0.79189   0.97982   0.24917   0.00000  Uiso   1.00
C635   C     0.83340   0.70932   0.24932   0.00000  Uiso   1.00
C636   C     0.83365   0.95791   0.24914   0.00000  Uiso   1.00
C637   C     0.99153   0.82454   0.21032   0.00000  Uiso   1.00
C638   C     0.67517   0.84220   0.28965   0.00000  Uiso   1.00
C639   C     0.70607   0.82430   0.21040   0.00000  Uiso   1.00
C640   C     0.96061   0.84218   0.28964   0.00000  Uiso   1.00
C641   C     0.80284   0.83410   0.33800   0.00000  Uiso   1.00
C642   C     0.86377   0.83387   0.16197   0.00000  Uiso   1.00
C643   C     0.78349   0.83784   0.38852   0.00000  Uiso   1.00
C644   C     0.88193   0.84092   0.11192   0.00000  Uiso   1.00
C645   C     0.71901   0.82935   0.46397   0.00000  Uiso   1.00
C646   C     0.93840   0.87339   0.04230   0.00000  Uiso   1.00
C647   C     0.73472   0.82861   0.41563   0.00000  Uiso   1.00
C648   C     0.92719   0.85966   0.08787   0.00000  Uiso   1.00
C649   C     0.81536   0.85043   0.40967   0.00000  Uiso   1.00
C650   C     0.84890   0.83519   0.09011   0.00000  Uiso   1.00
C651   C     0.80050   0.85168   0.45802   0.00000  Uiso   1.00
C652   C     0.85720   0.85232   0.04659   0.00000  Uiso   1.00
C653   C     0.75190   0.83963   0.48533   0.00000  Uiso   1.00
C654   C     0.90365   0.86983   0.02145   0.00000  Uiso   1.00
C655   C     0.83405   0.86098   0.47957   0.00000  Uiso   1.00
C656   C     0.82072   0.85143   0.02723   0.00000  Uiso   1.00
H657   H     0.70002   0.82844   0.05495   0.00000  Uiso   1.00
H658   H     0.94962   0.89763   0.45653   0.00000  Uiso   1.00
H659   H     0.81615   0.81769   0.10825   0.00000  Uiso   1.00
H660   H     0.85268   0.85689   0.38768   0.00000  Uiso   1.00
H661   H     0.95296   0.86487   0.10467   0.00000  Uiso   1.00
H662   H     0.70936   0.81945   0.39957   0.00000  Uiso   1.00
H663   H     0.68179   0.82028   0.48456   0.00000  Uiso   1.00
H664   H     0.97354   0.88778   0.02389   0.00000  Uiso   1.00
H665   H     0.75763   0.83895   0.09156   0.00000  Uiso   1.00
H666   H     0.89131   0.89035   0.42003   0.00000  Uiso   1.00
H667   H     0.98585   0.81744   0.17861   0.00000  Uiso   1.00
H668   H     0.68088   0.84941   0.32133   0.00000  Uiso   1.00
H669   H     0.73633   0.81673   0.17869   0.00000  Uiso   1.00
H670   H     0.93036   0.84937   0.32146   0.00000  Uiso   1.00
N671   N     0.71426   0.83334   0.25001   0.00000  Uiso   1.00
N672   N     0.95241   0.83332   0.24999   0.00000  Uiso   1.00
O673   O     0.79512   0.89442   0.25001   0.00000  Uiso   1.00
O674   O     0.87154   0.77225   0.24999   0.00000  Uiso   1.00
O675   O     0.87157   0.89441   0.25000   0.00000  Uiso   1.00
O676   O     0.79510   0.77226   0.25000   0.00000  Uiso   1.00
O677   O     0.77328   0.83334   0.31613   0.00000  Uiso   1.00
O678   O     0.89339   0.83333   0.18387   0.00000  Uiso   1.00
O679   O     0.84972   0.83333   0.31612   0.00000  Uiso   1.00
O680   O     0.81695   0.83334   0.18388   0.00000  Uiso   1.00
Zn681  Zn    0.78229   0.83334   0.25000   0.00000  Uiso   1.00
Zn682  Zn    0.88438   0.83333   0.25000   0.00000  Uiso   1.00
S683   S     0.92005   0.96061   0.26979   0.00000  Uiso   1.00
O684   O     0.95731   0.93521   0.23270   0.00000  Uiso   1.00
O685   O     0.94555   0.99555   0.28327   0.00000  Uiso   1.00
O686   O     0.89237   0.93135   0.31731   0.00000  Uiso   1.00
H687   H     0.91741   0.92703   0.33105   0.00000  Uiso   1.00
S688   S     0.73098   0.70828   0.29807   0.00000  Uiso   1.00
O689   O     0.70827   0.73121   0.26904   0.00000  Uiso   1.00
O690   O     0.69720   0.67416   0.32392   0.00000  Uiso   1.00
O691   O     0.73861   0.74074   0.33718   0.00000  Uiso   1.00
H692   H     0.70651   0.75448   0.35219   0.00000  Uiso   1.00
S693   S     0.93536   0.70867   0.19891   0.00000  Uiso   1.00
O694   O     0.95917   0.73135   0.22715   0.00000  Uiso   1.00
O695   O     0.96868   0.67460   0.17228   0.00000  Uiso   1.00
O696   O     0.92639   0.74142   0.16071   0.00000  Uiso   1.00
H697   H     0.95917   0.75283   0.14249   0.00000  Uiso   1.00
S698   S     0.74778   0.96003   0.22757   0.00000  Uiso   1.00
O699   O     0.70953   0.93600   0.26535   0.00000  Uiso   1.00
O700   O     0.72350   0.99466   0.21214   0.00000  Uiso   1.00
O701   O     0.77535   0.92918   0.18144   0.00000  Uiso   1.00
H702   H     0.74830   0.91490   0.17592   0.00000  Uiso   1.00
C703   C     0.16677   0.24686   0.74977   0.00000  Uiso   1.00
C704   C     0.16667   0.08668   0.74987   0.00000  Uiso   1.00
C705   C     0.10461   0.17514   0.55414   0.00000  Uiso   1.00
C706   C     0.21396   0.21206   0.95508   0.00000  Uiso   1.00
C707   C     0.07062   0.16998   0.53343   0.00000  Uiso   1.00
C708   C     0.24782   0.21702   0.97613   0.00000  Uiso   1.00
C709   C     0.20883   0.31334   0.74857   0.00000  Uiso   1.00
C710   C     0.12219   0.02092   0.76161   0.00000  Uiso   1.00
C711   C     0.21141   0.02113   0.73634   0.00000  Uiso   1.00
C712   C     0.12523   0.31315   0.74917   0.00000  Uiso   1.00
C713   C     0.16673   0.04265   0.74932   0.00000  Uiso   1.00
C714   C     0.16698   0.29125   0.74914   0.00000  Uiso   1.00
C715   C     0.32487   0.15788   0.71032   0.00000  Uiso   1.00
C716   C     0.00850   0.17554   0.78965   0.00000  Uiso   1.00
C717   C     0.03941   0.15764   0.71040   0.00000  Uiso   1.00
C718   C     0.29394   0.17551   0.78964   0.00000  Uiso   1.00
C719   C     0.13617   0.16743   0.83800   0.00000  Uiso   1.00
C720   C     0.19710   0.16720   0.66197   0.00000  Uiso   1.00
C721   C     0.11682   0.17118   0.88852   0.00000  Uiso   1.00
C722   C     0.21526   0.17426   0.61192   0.00000  Uiso   1.00
C723   C     0.05234   0.16268   0.96397   0.00000  Uiso   1.00
C724   C     0.27173   0.20672   0.54230   0.00000  Uiso   1.00
C725   C     0.06805   0.16194   0.91563   0.00000  Uiso   1.00
C726   C     0.26052   0.19300   0.58787   0.00000  Uiso   1.00
C727   C     0.14869   0.18377   0.90967   0.00000  Uiso   1.00
C728   C     0.18223   0.16853   0.59011   0.00000  Uiso   1.00
C729   C     0.13384   0.18501   0.95802   0.00000  Uiso   1.00
C730   C     0.19054   0.18565   0.54659   0.00000  Uiso   1.00
C731   C     0.08523   0.17296   0.98533   0.00000  Uiso   1.00
C732   C     0.23698   0.20316   0.52145   0.00000  Uiso   1.00
C733   C     0.16738   0.19431   0.97957   0.00000  Uiso   1.00
C734   C     0.15406   0.18476   0.52723   0.00000  Uiso   1.00
H735   H     0.03335   0.16177   0.55495   0.00000  Uiso   1.00
H736   H     0.28296   0.23097   0.95653   0.00000  Uiso   1.00
H737   H     0.14948   0.15102   0.60825   0.00000  Uiso   1.00
H738   H     0.18602   0.19022   0.88768   0.00000  Uiso   1.00
H739   H     0.28629   0.19821   0.60467   0.00000  Uiso   1.00
H740   H     0.04270   0.15278   0.89957   0.00000  Uiso   1.00
H741   H     0.01513   0.15361   0.98456   0.00000  Uiso   1.00
H742   H     0.30687   0.22111   0.52389   0.00000  Uiso   1.00
H743   H     0.09096   0.17228   0.59156   0.00000  Uiso   1.00
H744   H     0.22464   0.22369   0.92003   0.00000  Uiso   1.00
H745   H     0.31918   0.15077   0.67861   0.00000  Uiso   1.00
H746   H     0.01422   0.18274   0.82133   0.00000  Uiso   1.00
H747   H     0.06966   0.15006   0.67869   0.00000  Uiso   1.00
H748   H     0.26370   0.18270   0.82146   0.00000  Uiso   1.00
N749   N     0.04759   0.16668   0.75001   0.00000  Uiso   1.00
N750   N     0.28574   0.16666   0.74999   0.00000  Uiso   1.00
O751   O     0.12846   0.22775   0.75001   0.00000  Uiso   1.00
O752   O     0.20488   0.10558   0.74999   0.00000  Uiso   1.00
O753   O     0.20490   0.22774   0.75000   0.00000  Uiso   1.00
O754   O     0.12843   0.10559   0.75000   0.00000  Uiso   1.00
O755   O     0.10661   0.16667   0.81613   0.00000  Uiso   1.00
O756   O     0.22672   0.16666   0.68387   0.00000  Uiso   1.00
O757   O     0.18305   0.16666   0.81612   0.00000  Uiso   1.00
O758   O     0.15028   0.16667   0.68388   0.00000  Uiso   1.00
Zn759  Zn    0.11562   0.16667   0.75000   0.00000  Uiso   1.00
Zn760  Zn    0.21771   0.16666   0.75000   0.00000  Uiso   1.00
S761   S     0.25339   0.29394   0.76979   0.00000  Uiso   1.00
O762   O     0.29064   0.26855   0.73270   0.00000  Uiso   1.00
O763   O     0.27889   0.32888   0.78327   0.00000  Uiso   1.00
O764   O     0.22570   0.26468   0.81731   0.00000  Uiso   1.00
H765   H     0.25075   0.26036   0.83105   0.00000  Uiso   1.00
S766   S     0.06431   0.04161   0.79807   0.00000  Uiso   1.00
O767   O     0.04160   0.06455   0.76904   0.00000  Uiso   1.00
O768   O     0.03053   0.00749   0.82392   0.00000  Uiso   1.00
O769   O     0.07194   0.07407   0.83718   0.00000  Uiso   1.00
H770   H     0.03985   0.08782   0.85219   0.00000  Uiso   1.00
S771   S     0.26869   0.04201   0.69891   0.00000  Uiso   1.00
O772   O     0.29251   0.06468   0.72715   0.00000  Uiso   1.00
O773   O     0.30201   0.00794   0.67228   0.00000  Uiso   1.00
O774   O     0.25972   0.07475   0.66071   0.00000  Uiso   1.00
H775   H     0.29250   0.08617   0.64249   0.00000  Uiso   1.00
S776   S     0.08112   0.29337   0.72757   0.00000  Uiso   1.00
O777   O     0.04287   0.26934   0.76535   0.00000  Uiso   1.00
O778   O     0.05684   0.32800   0.71214   0.00000  Uiso   1.00
O779   O     0.10868   0.26251   0.68144   0.00000  Uiso   1.00
H780   H     0.08164   0.24823   0.67592   0.00000  Uiso   1.00
C781   C     0.50010   0.24686   0.74977   0.00000  Uiso   1.00
C782   C     0.50000   0.08668   0.74987   0.00000  Uiso   1.00
C783   C     0.43794   0.17514   0.55414   0.00000  Uiso   1.00
C784   C     0.54729   0.21206   0.95508   0.00000  Uiso   1.00
C785   C     0.40396   0.16998   0.53343   0.00000  Uiso   1.00
C786   C     0.58115   0.21702   0.97613   0.00000  Uiso   1.00
C787   C     0.54216   0.31334   0.74857   0.00000  Uiso   1.00
C788   C     0.45552   0.02092   0.76161   0.00000  Uiso   1.00
C789   C     0.54474   0.02113   0.73634   0.00000  Uiso   1.00
C790   C     0.45856   0.31315   0.74917   0.00000  Uiso   1.00
C791   C     0.50007   0.04265   0.74932   0.00000  Uiso   1.00
C792   C     0.50031   0.29125   0.74914   0.00000  Uiso   1.00
C793   C     0.65820   0.15788   0.71032   0.00000  Uiso   1.00
C794   C     0.34183   0.17554   0.78965   0.00000  Uiso   1.00
C795   C     0.37274   0.15764   0.71040   0.00000  Uiso   1.00
C796   C     0.62727   0.17551   0.78964   0.00000  Uiso   1.00
C797   C     0.46951   0.16743   0.83800   0.00000  Uiso   1.00
C798   C     0.53044   0.16720   0.66197   0.00000  Uiso   1.00
C799   C     0.45016   0.17118   0.88852   0.00000  Uiso   1.00
C800   C     0.54859   0.17426   0.61192   0.00000  Uiso   1.00
C801   C     0.38567   0.16268   0.96397   0.00000  Uiso   1.00
C802   C     0.60506   0.20672   0.54230   0.00000  Uiso   1.00
C803   C     0.40138   0.16194   0.91563   0.00000  Uiso   1.00
C804   C     0.59385   0.19300   0.58787   0.00000  Uiso   1.00
C805   C     0.48203   0.18377   0.90967   0.00000  Uiso   1.00
C806   C     0.51557   0.16853   0.59011   0.00000  Uiso   1.00
C807   C     0.46717   0.18501   0.95802   0.00000  Uiso   1.00
C808   C     0.52387   0.18565   0.54659   0.00000  Uiso   1.00
C809   C     0.41856   0.17296   0.98533   0.00000  Uiso   1.00
C810   C     0.57032   0.20316   0.52145   0.00000  Uiso   1.00
C811   C     0.50072   0.19431   0.97957   0.00000  Uiso   1.00
C812   C     0.48739   0.18476   0.52723   0.00000  Uiso   1.00
H813   H     0.36668   0.16177   0.55495   0.00000  Uiso   1.00
H814   H     0.61629   0.23097   0.95653   0.00000  Uiso   1.00
H815   H     0.48281   0.15102   0.60825   0.00000  Uiso   1.00
H816   H     0.51935   0.19022   0.88768   0.00000  Uiso   1.00
H817   H     0.61963   0.19821   0.60467   0.00000  Uiso   1.00
H818   H     0.37603   0.15278   0.89957   0.00000  Uiso   1.00
H819   H     0.34846   0.15361   0.98456   0.00000  Uiso   1.00
H820   H     0.64020   0.22111   0.52389   0.00000  Uiso   1.00
H821   H     0.42429   0.17228   0.59156   0.00000  Uiso   1.00
H822   H     0.55798   0.22369   0.92003   0.00000  Uiso   1.00
H823   H     0.65251   0.15077   0.67861   0.00000  Uiso   1.00
H824   H     0.34755   0.18274   0.82133   0.00000  Uiso   1.00
H825   H     0.40299   0.15006   0.67869   0.00000  Uiso   1.00
H826   H     0.59703   0.18270   0.82146   0.00000  Uiso   1.00
N827   N     0.38093   0.16668   0.75001   0.00000  Uiso   1.00
N828   N     0.61907   0.16666   0.74999   0.00000  Uiso   1.00
O829   O     0.46179   0.22775   0.75001   0.00000  Uiso   1.00
O830   O     0.53821   0.10558   0.74999   0.00000  Uiso   1.00
O831   O     0.53823   0.22774   0.75000   0.00000  Uiso   1.00
O832   O     0.46177   0.10559   0.75000   0.00000  Uiso   1.00
O833   O     0.43994   0.16667   0.81613   0.00000  Uiso   1.00
O834   O     0.56006   0.16666   0.68387   0.00000  Uiso   1.00
O835   O     0.51639   0.16666   0.81612   0.00000  Uiso   1.00
O836   O     0.48361   0.16667   0.68388   0.00000  Uiso   1.00
Zn837  Zn    0.44896   0.16667   0.75000   0.00000  Uiso   1.00
Zn838  Zn    0.55104   0.16666   0.75000   0.00000  Uiso   1.00
S839   S     0.58672   0.29394   0.76979   0.00000  Uiso   1.00
O840   O     0.62398   0.26855   0.73270   0.00000  Uiso   1.00
O841   O     0.61222   0.32888   0.78327   0.00000  Uiso   1.00
O842   O     0.55903   0.26468   0.81731   0.00000  Uiso   1.00
H843   H     0.58408   0.26036   0.83105   0.00000  Uiso   1.00
S844   S     0.39765   0.04161   0.79807   0.00000  Uiso   1.00
O845   O     0.37493   0.06455   0.76904   0.00000  Uiso   1.00
O846   O     0.36387   0.00749   0.82392   0.00000  Uiso   1.00
O847   O     0.40527   0.07407   0.83718   0.00000  Uiso   1.00
H848   H     0.37318   0.08782   0.85219   0.00000  Uiso   1.00
S849   S     0.60203   0.04201   0.69891   0.00000  Uiso   1.00
O850   O     0.62584   0.06468   0.72715   0.00000  Uiso   1.00
O851   O     0.63534   0.00794   0.67228   0.00000  Uiso   1.00
O852   O     0.59306   0.07475   0.66071   0.00000  Uiso   1.00
H853   H     0.62584   0.08617   0.64249   0.00000  Uiso   1.00
S854   S     0.41445   0.29337   0.72757   0.00000  Uiso   1.00
O855   O     0.37620   0.26934   0.76535   0.00000  Uiso   1.00
O856   O     0.39017   0.32800   0.71214   0.00000  Uiso   1.00
O857   O     0.44202   0.26251   0.68144   0.00000  Uiso   1.00
H858   H     0.41497   0.24823   0.67592   0.00000  Uiso   1.00
C859   C     0.83344   0.24686   0.74977   0.00000  Uiso   1.00
C860   C     0.83334   0.08668   0.74987   0.00000  Uiso   1.00
C861   C     0.77128   0.17514   0.55414   0.00000  Uiso   1.00
C862   C     0.88062   0.21206   0.95508   0.00000  Uiso   1.00
C863   C     0.73729   0.16998   0.53343   0.00000  Uiso   1.00
C864   C     0.91448   0.21702   0.97613   0.00000  Uiso   1.00
C865   C     0.87549   0.31334   0.74857   0.00000  Uiso   1.00
C866   C     0.78885   0.02092   0.76161   0.00000  Uiso   1.00
C867   C     0.87807   0.02113   0.73634   0.00000  Uiso   1.00
C868   C     0.79189   0.31315   0.74917   0.00000  Uiso   1.00
C869   C     0.83340   0.04265   0.74932   0.00000  Uiso   1.00
C870   C     0.83365   0.29125   0.74914   0.00000  Uiso   1.00
C871   C     0.99153   0.15788   0.71032   0.00000  Uiso   1.00
C872   C     0.67517   0.17554   0.78965   0.00000  Uiso   1.00
C873   C     0.70607   0.15764   0.71040   0.00000  Uiso   1.00
C874   C     0.96061   0.17551   0.78964   0.00000  Uiso   1.00
C875   C     0.80284   0.16743   0.83800   0.00000  Uiso   1.00
C876   C     0.86377   0.16720   0.66197   0.00000  Uiso   1.00
C877   C     0.78349   0.17118   0.88852   0.00000  Uiso   1.00
C878   C     0.88193   0.17426   0.61192   0.00000  Uiso   1.00
C879   C     0.71901   0.16268   0.96397   0.00000  Uiso   1.00
C880   C     0.93840   0.20672   0.54230   0.00000  Uiso   1.00
C881   C     0.73472   0.16194   0.91563   0.00000  Uiso   1.00
C882   C     0.92719   0.19300   0.58787   0.00000  Uiso   1.00
C883   C     0.81536   0.18377   0.90967   0.00000  Uiso   1.00
C884   C     0.84890   0.16853   0.59011   0.00000  Uiso   1.00
C885   C     0.80050   0.18501   0.95802   0.00000  Uiso   1.00
C886   C     0.85720   0.18565   0.54659   0.00000  Uiso   1.00
C887   C     0.75190   0.17296   0.98533   0.00000  Uiso   1.00
C888   C     0.90365   0.20316   0.52145   0.00000  Uiso   1.00
C889   C     0.83405   0.19431   0.97957   0.00000  Uiso   1.00
C890   C     0.82072   0.18476   0.52723   0.00000  Uiso   1.00
H891   H     0.70002   0.16177   0.55495   0.00000  Uiso   1.00
H892   H     0.94962   0.23097   0.95653   0.00000  Uiso   1.00
H893   H     0.81615   0.15102   0.60825   0.00000  Uiso   1.00
H894   H     0.85268   0.19022   0.88768   0.00000  Uiso   1.00
H895   H     0.95296   0.19821   0.60467   0.00000  Uiso   1.00
H896   H     0.70936   0.15278   0.89957   0.00000  Uiso   1.00
H897   H     0.68179   0.15361   0.98456   0.00000  Uiso   1.00
H898   H     0.97354   0.22111   0.52389   0.00000  Uiso   1.00
H899   H     0.75763   0.17228   0.59156   0.00000  Uiso   1.00
H900   H     0.89131   0.22369   0.92003   0.00000  Uiso   1.00
H901   H     0.98585   0.15077   0.67861   0.00000  Uiso   1.00
H902   H     0.68088   0.18274   0.82133   0.00000  Uiso   1.00
H903   H     0.73633   0.15006   0.67869   0.00000  Uiso   1.00
H904   H     0.93036   0.18270   0.82146   0.00000  Uiso   1.00
N905   N     0.71426   0.16668   0.75001   0.00000  Uiso   1.00
N906   N     0.95241   0.16666   0.74999   0.00000  Uiso   1.00
O907   O     0.79512   0.22775   0.75001   0.00000  Uiso   1.00
O908   O     0.87154   0.10558   0.74999   0.00000  Uiso   1.00
O909   O     0.87157   0.22774   0.75000   0.00000  Uiso   1.00
O910   O     0.79510   0.10559   0.75000   0.00000  Uiso   1.00
O911   O     0.77328   0.16667   0.81613   0.00000  Uiso   1.00
O912   O     0.89339   0.16666   0.68387   0.00000  Uiso   1.00
O913   O     0.84972   0.16666   0.81612   0.00000  Uiso   1.00
O914   O     0.81695   0.16667   0.68388   0.00000  Uiso   1.00
Zn915  Zn    0.78229   0.16667   0.75000   0.00000  Uiso   1.00
Zn916  Zn    0.88438   0.16666   0.75000   0.00000  Uiso   1.00
S917   S     0.92005   0.29394   0.76979   0.00000  Uiso   1.00
O918   O     0.95731   0.26855   0.73270   0.00000  Uiso   1.00
O919   O     0.94555   0.32888   0.78327   0.00000  Uiso   1.00
O920   O     0.89237   0.26468   0.81731   0.00000  Uiso   1.00
H921   H     0.91741   0.26036   0.83105   0.00000  Uiso   1.00
S922   S     0.73098   0.04161   0.79807   0.00000  Uiso   1.00
O923   O     0.70827   0.06455   0.76904   0.00000  Uiso   1.00
O924   O     0.69720   0.00749   0.82392   0.00000  Uiso   1.00
O925   O     0.73861   0.07407   0.83718   0.00000  Uiso   1.00
H926   H     0.70651   0.08782   0.85219   0.00000  Uiso   1.00
S927   S     0.93536   0.04201   0.69891   0.00000  Uiso   1.00
O928   O     0.95917   0.06468   0.72715   0.00000  Uiso   1.00
O929   O     0.96868   0.00794   0.67228   0.00000  Uiso   1.00
O930   O     0.92639   0.07475   0.66071   0.00000  Uiso   1.00
H931   H     0.95917   0.08617   0.64249   0.00000  Uiso   1.00
S932   S     0.74778   0.29337   0.72757   0.00000  Uiso   1.00
O933   O     0.70953   0.26934   0.76535   0.00000  Uiso   1.00
O934   O     0.72350   0.32800   0.71214   0.00000  Uiso   1.00
O935   O     0.77535   0.26251   0.68144   0.00000  Uiso   1.00
H936   H     0.74830   0.24823   0.67592   0.00000  Uiso   1.00
C937   C     0.16677   0.58019   0.74977   0.00000  Uiso   1.00
C938   C     0.16667   0.42001   0.74987   0.00000  Uiso   1.00
C939   C     0.10461   0.50847   0.55414   0.00000  Uiso   1.00
C940   C     0.21396   0.54539   0.95508   0.00000  Uiso   1.00
C941   C     0.07062   0.50331   0.53343   0.00000  Uiso   1.00
C942   C     0.24782   0.55035   0.97613   0.00000  Uiso   1.00
C943   C     0.20883   0.64667   0.74857   0.00000  Uiso   1.00
C944   C     0.12219   0.35425   0.76161   0.00000  Uiso   1.00
C945   C     0.21141   0.35446   0.73634   0.00000  Uiso   1.00
C946   C     0.12523   0.64648   0.74917   0.00000  Uiso   1.00
C947   C     0.16673   0.37598   0.74932   0.00000  Uiso   1.00
C948   C     0.16698   0.62458   0.74914   0.00000  Uiso   1.00
C949   C     0.32487   0.49121   0.71032   0.00000  Uiso   1.00
C950   C     0.00850   0.50887   0.78965   0.00000  Uiso   1.00
C951   C     0.03941   0.49097   0.71040   0.00000  Uiso   1.00
C952   C     0.29394   0.50885   0.78964   0.00000  Uiso   1.00
C953   C     0.13617   0.50077   0.83800   0.00000  Uiso   1.00
C954   C     0.19710   0.50053   0.66197   0.00000  Uiso   1.00
C955   C     0.11682   0.50451   0.88852   0.00000  Uiso   1.00
C956   C     0.21526   0.50759   0.61192   0.00000  Uiso   1.00
C957   C     0.05234   0.49601   0.96397   0.00000  Uiso   1.00
C958   C     0.27173   0.54005   0.54230   0.00000  Uiso   1.00
C959   C     0.06805   0.49527   0.91563   0.00000  Uiso   1.00
C960   C     0.26052   0.52633   0.58787   0.00000  Uiso   1.00
C961   C     0.14869   0.51710   0.90967   0.00000  Uiso   1.00
C962   C     0.18223   0.50186   0.59011   0.00000  Uiso   1.00
C963   C     0.13384   0.51835   0.95802   0.00000  Uiso   1.00
C964   C     0.19054   0.51898   0.54659   0.00000  Uiso   1.00
C965   C     0.08523   0.50630   0.98533   0.00000  Uiso   1.00
C966   C     0.23698   0.53649   0.52145   0.00000  Uiso   1.00
C967   C     0.16738   0.52764   0.97957   0.00000  Uiso   1.00
C968   C     0.15406   0.51810   0.52723   0.00000  Uiso   1.00
H969   H     0.03335   0.49510   0.55495   0.00000  Uiso   1.00
H970   H     0.28296   0.56430   0.95653   0.00000  Uiso   1.00
H971   H     0.14948   0.48435   0.60825   0.00000  Uiso   1.00
H972   H     0.18602   0.52356   0.88768   0.00000  Uiso   1.00
H973   H     0.28629   0.53154   0.60467   0.00000  Uiso   1.00
H974   H     0.04270   0.48612   0.89957   0.00000  Uiso   1.00
H975   H     0.01513   0.48694   0.98456   0.00000  Uiso   1.00
H976   H     0.30687   0.55445   0.52389   0.00000  Uiso   1.00
H977   H     0.09096   0.50562   0.59156   0.00000  Uiso   1.00
H978   H     0.22464   0.55702   0.92003   0.00000  Uiso   1.00
H979   H     0.31918   0.48411   0.67861   0.00000  Uiso   1.00
H980   H     0.01422   0.51608   0.82133   0.00000  Uiso   1.00
H981   H     0.06966   0.48339   0.67869   0.00000  Uiso   1.00
H982   H     0.26370   0.51604   0.82146   0.00000  Uiso   1.00
N983   N     0.04759   0.50001   0.75001   0.00000  Uiso   1.00
N984   N     0.28574   0.49999   0.74999   0.00000  Uiso   1.00
O985   O     0.12846   0.56108   0.75001   0.00000  Uiso   1.00
O986   O     0.20488   0.43892   0.74999   0.00000  Uiso   1.00
O987   O     0.20490   0.56107   0.75000   0.00000  Uiso   1.00
O988   O     0.12843   0.43893   0.75000   0.00000  Uiso   1.00
O989   O     0.10661   0.50001   0.81613   0.00000  Uiso   1.00
O990   O     0.22672   0.49999   0.68387   0.00000  Uiso   1.00
O991   O     0.18305   0.50000   0.81612   0.00000  Uiso   1.00
O992   O     0.15028   0.50000   0.68388   0.00000  Uiso   1.00
Zn993  Zn    0.11562   0.50001   0.75000   0.00000  Uiso   1.00
Zn994  Zn    0.21771   0.49999   0.75000   0.00000  Uiso   1.00
S995   S     0.25339   0.62728   0.76979   0.00000  Uiso   1.00
O996   O     0.29064   0.60188   0.73270   0.00000  Uiso   1.00
O997   O     0.27889   0.66222   0.78327   0.00000  Uiso   1.00
O998   O     0.22570   0.59801   0.81731   0.00000  Uiso   1.00
H999   H     0.25075   0.59370   0.83105   0.00000  Uiso   1.00
S1000  S     0.06431   0.37494   0.79807   0.00000  Uiso   1.00
O1001  O     0.04160   0.39788   0.76904   0.00000  Uiso   1.00
O1002  O     0.03053   0.34083   0.82392   0.00000  Uiso   1.00
O1003  O     0.07194   0.40740   0.83718   0.00000  Uiso   1.00
H1004  H     0.03985   0.42115   0.85219   0.00000  Uiso   1.00
S1005  S     0.26869   0.37534   0.69891   0.00000  Uiso   1.00
O1006  O     0.29251   0.39801   0.72715   0.00000  Uiso   1.00
O1007  O     0.30201   0.34127   0.67228   0.00000  Uiso   1.00
O1008  O     0.25972   0.40809   0.66071   0.00000  Uiso   1.00
H1009  H     0.29250   0.41950   0.64249   0.00000  Uiso   1.00
S1010  S     0.08112   0.62670   0.72757   0.00000  Uiso   1.00
O1011  O     0.04287   0.60267   0.76535   0.00000  Uiso   1.00
O1012  O     0.05684   0.66133   0.71214   0.00000  Uiso   1.00
O1013  O     0.10868   0.59584   0.68144   0.00000  Uiso   1.00
H1014  H     0.08164   0.58157   0.67592   0.00000  Uiso   1.00
C1015  C     0.50010   0.58019   0.74977   0.00000  Uiso   1.00
C1016  C     0.50000   0.42001   0.74987   0.00000  Uiso   1.00
C1017  C     0.43794   0.50847   0.55414   0.00000  Uiso   1.00
C1018  C     0.54729   0.54539   0.95508   0.00000  Uiso   1.00
C1019  C     0.40396   0.50331   0.53343   0.00000  Uiso   1.00
C1020  C     0.58115   0.55035   0.97613   0.00000  Uiso   1.00
C1021  C     0.54216   0.64667   0.74857   0.00000  Uiso   1.00
C1022  C     0.45552   0.35425   0.76161   0.00000  Uiso   1.00
C1023  C     0.54474   0.35446   0.73634   0.00000  Uiso   1.00
C1024  C     0.45856   0.64648   0.74917   0.00000  Uiso   1.00
C1025  C     0.50007   0.37598   0.74932   0.00000  Uiso   1.00
C1026  C     0.50031   0.62458   0.74914   0.00000  Uiso   1.00
C1027  C     0.65820   0.49121   0.71032   0.00000  Uiso   1.00
C1028  C     0.34183   0.50887   0.78965   0.00000  Uiso   1.00
C1029  C     0.37274   0.49097   0.71040   0.00000  Uiso   1.00
C1030  C     0.62727   0.50885   0.78964   0.00000  Uiso   1.00
C1031  C     0.46951   0.50077   0.83800   0.00000  Uiso   1.00
C1032  C     0.53044   0.50053   0.66197   0.00000  Uiso   1.00
C1033  C     0.45016   0.50451   0.88852   0.00000  Uiso   1.00
C1034  C     0.54859   0.50759   0.61192   0.00000  Uiso   1.00
C1035  C     0.38567   0.49601   0.96397   0.00000  Uiso   1.00
C1036  C     0.60506   0.54005   0.54230   0.00000  Uiso   1.00
C1037  C     0.40138   0.49527   0.91563   0.00000  Uiso   1.00
C1038  C     0.59385   0.52633   0.58787   0.00000  Uiso   1.00
C1039  C     0.48203   0.51710   0.90967   0.00000  Uiso   1.00
C1040  C     0.51557   0.50186   0.59011   0.00000  Uiso   1.00
C1041  C     0.46717   0.51835   0.95802   0.00000  Uiso   1.00
C1042  C     0.52387   0.51898   0.54659   0.00000  Uiso   1.00
C1043  C     0.41856   0.50630   0.98533   0.00000  Uiso   1.00
C1044  C     0.57032   0.53649   0.52145   0.00000  Uiso   1.00
C1045  C     0.50072   0.52764   0.97957   0.00000  Uiso   1.00
C1046  C     0.48739   0.51810   0.52723   0.00000  Uiso   1.00
H1047  H     0.36668   0.49510   0.55495   0.00000  Uiso   1.00
H1048  H     0.61629   0.56430   0.95653   0.00000  Uiso   1.00
H1049  H     0.48281   0.48435   0.60825   0.00000  Uiso   1.00
H1050  H     0.51935   0.52356   0.88768   0.00000  Uiso   1.00
H1051  H     0.61963   0.53154   0.60467   0.00000  Uiso   1.00
H1052  H     0.37603   0.48612   0.89957   0.00000  Uiso   1.00
H1053  H     0.34846   0.48694   0.98456   0.00000  Uiso   1.00
H1054  H     0.64020   0.55445   0.52389   0.00000  Uiso   1.00
H1055  H     0.42429   0.50562   0.59156   0.00000  Uiso   1.00
H1056  H     0.55798   0.55702   0.92003   0.00000  Uiso   1.00
H1057  H     0.65251   0.48411   0.67861   0.00000  Uiso   1.00
H1058  H     0.34755   0.51608   0.82133   0.00000  Uiso   1.00
H1059  H     0.40299   0.48339   0.67869   0.00000  Uiso   1.00
H1060  H     0.59703   0.51604   0.82146   0.00000  Uiso   1.00
N1061  N     0.38093   0.50001   0.75001   0.00000  Uiso   1.00
N1062  N     0.61907   0.49999   0.74999   0.00000  Uiso   1.00
O1063  O     0.46179   0.56108   0.75001   0.00000  Uiso   1.00
O1064  O     0.53821   0.43892   0.74999   0.00000  Uiso   1.00
O1065  O     0.53823   0.56107   0.75000   0.00000  Uiso   1.00
O1066  O     0.46177   0.43893   0.75000   0.00000  Uiso   1.00
O1067  O     0.43994   0.50001   0.81613   0.00000  Uiso   1.00
O1068  O     0.56006   0.49999   0.68387   0.00000  Uiso   1.00
O1069  O     0.51639   0.50000   0.81612   0.00000  Uiso   1.00
O1070  O     0.48361   0.50000   0.68388   0.00000  Uiso   1.00
Zn1071 Zn    0.44896   0.50001   0.75000   0.00000  Uiso   1.00
Zn1072 Zn    0.55104   0.49999   0.75000   0.00000  Uiso   1.00
S1073  S     0.58672   0.62728   0.76979   0.00000  Uiso   1.00
O1074  O     0.62398   0.60188   0.73270   0.00000  Uiso   1.00
O1075  O     0.61222   0.66222   0.78327   0.00000  Uiso   1.00
O1076  O     0.55903   0.59801   0.81731   0.00000  Uiso   1.00
H1077  H     0.58408   0.59370   0.83105   0.00000  Uiso   1.00
S1078  S     0.39765   0.37494   0.79807   0.00000  Uiso   1.00
O1079  O     0.37493   0.39788   0.76904   0.00000  Uiso   1.00
O1080  O     0.36387   0.34083   0.82392   0.00000  Uiso   1.00
O1081  O     0.40527   0.40740   0.83718   0.00000  Uiso   1.00
H1082  H     0.37318   0.42115   0.85219   0.00000  Uiso   1.00
S1083  S     0.60203   0.37534   0.69891   0.00000  Uiso   1.00
O1084  O     0.62584   0.39801   0.72715   0.00000  Uiso   1.00
O1085  O     0.63534   0.34127   0.67228   0.00000  Uiso   1.00
O1086  O     0.59306   0.40809   0.66071   0.00000  Uiso   1.00
H1087  H     0.62584   0.41950   0.64249   0.00000  Uiso   1.00
S1088  S     0.41445   0.62670   0.72757   0.00000  Uiso   1.00
O1089  O     0.37620   0.60267   0.76535   0.00000  Uiso   1.00
O1090  O     0.39017   0.66133   0.71214   0.00000  Uiso   1.00
O1091  O     0.44202   0.59584   0.68144   0.00000  Uiso   1.00
H1092  H     0.41497   0.58157   0.67592   0.00000  Uiso   1.00
C1093  C     0.83344   0.58019   0.74977   0.00000  Uiso   1.00
C1094  C     0.83334   0.42001   0.74987   0.00000  Uiso   1.00
C1095  C     0.77128   0.50847   0.55414   0.00000  Uiso   1.00
C1096  C     0.88062   0.54539   0.95508   0.00000  Uiso   1.00
C1097  C     0.73729   0.50331   0.53343   0.00000  Uiso   1.00
C1098  C     0.91448   0.55035   0.97613   0.00000  Uiso   1.00
C1099  C     0.87549   0.64667   0.74857   0.00000  Uiso   1.00
C1100  C     0.78885   0.35425   0.76161   0.00000  Uiso   1.00
C1101  C     0.87807   0.35446   0.73634   0.00000  Uiso   1.00
C1102  C     0.79189   0.64648   0.74917   0.00000  Uiso   1.00
C1103  C     0.83340   0.37598   0.74932   0.00000  Uiso   1.00
C1104  C     0.83365   0.62458   0.74914   0.00000  Uiso   1.00
C1105  C     0.99153   0.49121   0.71032   0.00000  Uiso   1.00
C1106  C     0.67517   0.50887   0.78965   0.00000  Uiso   1.00
C1107  C     0.70607   0.49097   0.71040   0.00000  Uiso   1.00
C1108  C     0.96061   0.50885   0.78964   0.00000  Uiso   1.00
C1109  C     0.80284   0.50077   0.83800   0.00000  Uiso   1.00
C1110  C     0.86377   0.50053   0.66197   0.00000  Uiso   1.00
C1111  C     0.78349   0.50451   0.88852   0.00000  Uiso   1.00
C1112  C     0.88193   0.50759   0.61192   0.00000  Uiso   1.00
C1113  C     0.71901   0.49601   0.96397   0.00000  Uiso   1.00
C1114  C     0.93840   0.54005   0.54230   0.00000  Uiso   1.00
C1115  C     0.73472   0.49527   0.91563   0.00000  Uiso   1.00
C1116  C     0.92719   0.52633   0.58787   0.00000  Uiso   1.00
C1117  C     0.81536   0.51710   0.90967   0.00000  Uiso   1.00
C1118  C     0.84890   0.50186   0.59011   0.00000  Uiso   1.00
C1119  C     0.80050   0.51835   0.95802   0.00000  Uiso   1.00
C1120  C     0.85720   0.51898   0.54659   0.00000  Uiso   1.00
C1121  C     0.75190   0.50630   0.98533   0.00000  Uiso   1.00
C1122  C     0.90365   0.53649   0.52145   0.00000  Uiso   1.00
C1123  C     0.83405   0.52764   0.97957   0.00000  Uiso   1.00
C1124  C     0.82072   0.51810   0.52723   0.00000  Uiso   1.00
H1125  H     0.70002   0.49510   0.55495   0.00000  Uiso   1.00
H1126  H     0.94962   0.56430   0.95653   0.00000  Uiso   1.00
H1127  H     0.81615   0.48435   0.60825   0.00000  Uiso   1.00
H1128  H     0.85268   0.52356   0.88768   0.00000  Uiso   1.00
H1129  H     0.95296   0.53154   0.60467   0.00000  Uiso   1.00
H1130  H     0.70936   0.48612   0.89957   0.00000  Uiso   1.00
H1131  H     0.68179   0.48694   0.98456   0.00000  Uiso   1.00
H1132  H     0.97354   0.55445   0.52389   0.00000  Uiso   1.00
H1133  H     0.75763   0.50562   0.59156   0.00000  Uiso   1.00
H1134  H     0.89131   0.55702   0.92003   0.00000  Uiso   1.00
H1135  H     0.98585   0.48411   0.67861   0.00000  Uiso   1.00
H1136  H     0.68088   0.51608   0.82133   0.00000  Uiso   1.00
H1137  H     0.73633   0.48339   0.67869   0.00000  Uiso   1.00
H1138  H     0.93036   0.51604   0.82146   0.00000  Uiso   1.00
N1139  N     0.71426   0.50001   0.75001   0.00000  Uiso   1.00
N1140  N     0.95241   0.49999   0.74999   0.00000  Uiso   1.00
O1141  O     0.79512   0.56108   0.75001   0.00000  Uiso   1.00
O1142  O     0.87154   0.43892   0.74999   0.00000  Uiso   1.00
O1143  O     0.87157   0.56107   0.75000   0.00000  Uiso   1.00
O1144  O     0.79510   0.43893   0.75000   0.00000  Uiso   1.00
O1145  O     0.77328   0.50001   0.81613   0.00000  Uiso   1.00
O1146  O     0.89339   0.49999   0.68387   0.00000  Uiso   1.00
O1147  O     0.84972   0.50000   0.81612   0.00000  Uiso   1.00
O1148  O     0.81695   0.50000   0.68388   0.00000  Uiso   1.00
Zn1149 Zn    0.78229   0.50001   0.75000   0.00000  Uiso   1.00
Zn1150 Zn    0.88438   0.49999   0.75000   0.00000  Uiso   1.00
S1151  S     0.92005   0.62728   0.76979   0.00000  Uiso   1.00
O1152  O     0.95731   0.60188   0.73270   0.00000  Uiso   1.00
O1153  O     0.94555   0.66222   0.78327   0.00000  Uiso   1.00
O1154  O     0.89237   0.59801   0.81731   0.00000  Uiso   1.00
H1155  H     0.91741   0.59370   0.83105   0.00000  Uiso   1.00
S1156  S     0.73098   0.37494   0.79807   0.00000  Uiso   1.00
O1157  O     0.70827   0.39788   0.76904   0.00000  Uiso   1.00
O1158  O     0.69720   0.34083   0.82392   0.00000  Uiso   1.00
O1159  O     0.73861   0.40740   0.83718   0.00000  Uiso   1.00
H1160  H     0.70651   0.42115   0.85219   0.00000  Uiso   1.00
S1161  S     0.93536   0.37534   0.69891   0.00000  Uiso   1.00
O1162  O     0.95917   0.39801   0.72715   0.00000  Uiso   1.00
O1163  O     0.96868   0.34127   0.67228   0.00000  Uiso   1.00
O1164  O     0.92639   0.40809   0.66071   0.00000  Uiso   1.00
H1165  H     0.95917   0.41950   0.64249   0.00000  Uiso   1.00
S1166  S     0.74778   0.62670   0.72757   0.00000  Uiso   1.00
O1167  O     0.70953   0.60267   0.76535   0.00000  Uiso   1.00
O1168  O     0.72350   0.66133   0.71214   0.00000  Uiso   1.00
O1169  O     0.77535   0.59584   0.68144   0.00000  Uiso   1.00
H1170  H     0.74830   0.58157   0.67592   0.00000  Uiso   1.00
C1171  C     0.16677   0.91353   0.74977   0.00000  Uiso   1.00
C1172  C     0.16667   0.75335   0.74987   0.00000  Uiso   1.00
C1173  C     0.10461   0.84180   0.55414   0.00000  Uiso   1.00
C1174  C     0.21396   0.87873   0.95508   0.00000  Uiso   1.00
C1175  C     0.07062   0.83664   0.53343   0.00000  Uiso   1.00
C1176  C     0.24782   0.88369   0.97613   0.00000  Uiso   1.00
C1177  C     0.20883   0.98001   0.74857   0.00000  Uiso   1.00
C1178  C     0.12219   0.68759   0.76161   0.00000  Uiso   1.00
C1179  C     0.21141   0.68779   0.73634   0.00000  Uiso   1.00
C1180  C     0.12523   0.97982   0.74917   0.00000  Uiso   1.00
C1181  C     0.16673   0.70932   0.74932   0.00000  Uiso   1.00
C1182  C     0.16698   0.95791   0.74914   0.00000  Uiso   1.00
C1183  C     0.32487   0.82454   0.71032   0.00000  Uiso   1.00
C1184  C     0.00850   0.84220   0.78965   0.00000  Uiso   1.00
C1185  C     0.03941   0.82430   0.71040   0.00000  Uiso   1.00
C1186  C     0.29394   0.84218   0.78964   0.00000  Uiso   1.00
C1187  C     0.13617   0.83410   0.83800   0.00000  Uiso   1.00
C1188  C     0.19710   0.83387   0.66197   0.00000  Uiso   1.00
C1189  C     0.11682   0.83784   0.88852   0.00000  Uiso   1.00
C1190  C     0.21526   0.84092   0.61192   0.00000  Uiso   1.00
C1191  C     0.05234   0.82935   0.96397   0.00000  Uiso   1.00
C1192  C     0.27173   0.87339   0.54230   0.00000  Uiso   1.00
C1193  C     0.06805   0.82861   0.91563   0.00000  Uiso   1.00
C1194  C     0.26052   0.85966   0.58787   0.00000  Uiso   1.00
C1195  C     0.14869   0.85043   0.90967   0.00000  Uiso   1.00
C1196  C     0.18223   0.83519   0.59011   0.00000  Uiso   1.00
C1197  C     0.13384   0.85168   0.95802   0.00000  Uiso   1.00
C1198  C     0.19054   0.85232   0.54659   0.00000  Uiso   1.00
C1199  C     0.08523   0.83963   0.98533   0.00000  Uiso   1.00
C1200  C     0.23698   0.86983   0.52145   0.00000  Uiso   1.00
C1201  C     0.16738   0.86098   0.97957   0.00000  Uiso   1.00
C1202  C     0.15406   0.85143   0.52723   0.00000  Uiso   1.00
H1203  H     0.03335   0.82844   0.55495   0.00000  Uiso   1.00
H1204  H     0.28296   0.89763   0.95653   0.00000  Uiso   1.00
H1205  H     0.14948   0.81769   0.60825   0.00000  Uiso   1.00
H1206  H     0.18602   0.85689   0.88768   0.00000  Uiso   1.00
H1207  H     0.28629   0.86487   0.60467   0.00000  Uiso   1.00
H1208  H     0.04270   0.81945   0.89957   0.00000  Uiso   1.00
H1209  H     0.01513   0.82028   0.98456   0.00000  Uiso   1.00
H1210  H     0.30687   0.88778   0.52389   0.00000  Uiso   1.00
H1211  H     0.09096   0.83895   0.59156   0.00000  Uiso   1.00
H1212  H     0.22464   0.89035   0.92003   0.00000  Uiso   1.00
H1213  H     0.31918   0.81744   0.67861   0.00000  Uiso   1.00
H1214  H     0.01422   0.84941   0.82133   0.00000  Uiso   1.00
H1215  H     0.06966   0.81673   0.67869   0.00000  Uiso   1.00
H1216  H     0.26370   0.84937   0.82146   0.00000  Uiso   1.00
N1217  N     0.04759   0.83334   0.75001   0.00000  Uiso   1.00
N1218  N     0.28574   0.83332   0.74999   0.00000  Uiso   1.00
O1219  O     0.12846   0.89442   0.75001   0.00000  Uiso   1.00
O1220  O     0.20488   0.77225   0.74999   0.00000  Uiso   1.00
O1221  O     0.20490   0.89441   0.75000   0.00000  Uiso   1.00
O1222  O     0.12843   0.77226   0.75000   0.00000  Uiso   1.00
O1223  O     0.10661   0.83334   0.81613   0.00000  Uiso   1.00
O1224  O     0.22672   0.83333   0.68387   0.00000  Uiso   1.00
O1225  O     0.18305   0.83333   0.81612   0.00000  Uiso   1.00
O1226  O     0.15028   0.83334   0.68388   0.00000  Uiso   1.00
Zn1227 Zn    0.11562   0.83334   0.75000   0.00000  Uiso   1.00
Zn1228 Zn    0.21771   0.83333   0.75000   0.00000  Uiso   1.00
S1229  S     0.25339   0.96061   0.76979   0.00000  Uiso   1.00
O1230  O     0.29064   0.93521   0.73270   0.00000  Uiso   1.00
O1231  O     0.27889   0.99555   0.78327   0.00000  Uiso   1.00
O1232  O     0.22570   0.93135   0.81731   0.00000  Uiso   1.00
H1233  H     0.25075   0.92703   0.83105   0.00000  Uiso   1.00
S1234  S     0.06431   0.70828   0.79807   0.00000  Uiso   1.00
O1235  O     0.04160   0.73121   0.76904   0.00000  Uiso   1.00
O1236  O     0.03053   0.67416   0.82392   0.00000  Uiso   1.00
O1237  O     0.07194   0.74074   0.83718   0.00000  Uiso   1.00
H1238  H     0.03985   0.75448   0.85219   0.00000  Uiso   1.00
S1239  S     0.26869   0.70867   0.69891   0.00000  Uiso   1.00
O1240  O     0.29251   0.73135   0.72715   0.00000  Uiso   1.00
O1241  O     0.30201   0.67460   0.67228   0.00000  Uiso   1.00
O1242  O     0.25972   0.74142   0.66071   0.00000  Uiso   1.00
H1243  H     0.29250   0.75283   0.64249   0.00000  Uiso   1.00
S1244  S     0.08112   0.96003   0.72757   0.00000  Uiso   1.00
O1245  O     0.04287   0.93600   0.76535   0.00000  Uiso   1.00
O1246  O     0.05684   0.99466   0.71214   0.00000  Uiso   1.00
O1247  O     0.10868   0.92918   0.68144   0.00000  Uiso   1.00
H1248  H     0.08164   0.91490   0.67592   0.00000  Uiso   1.00
C1249  C     0.50010   0.91353   0.74977   0.00000  Uiso   1.00
C1250  C     0.50000   0.75335   0.74987   0.00000  Uiso   1.00
C1251  C     0.43794   0.84180   0.55414   0.00000  Uiso   1.00
C1252  C     0.54729   0.87873   0.95508   0.00000  Uiso   1.00
C1253  C     0.40396   0.83664   0.53343   0.00000  Uiso   1.00
C1254  C     0.58115   0.88369   0.97613   0.00000  Uiso   1.00
C1255  C     0.54216   0.98001   0.74857   0.00000  Uiso   1.00
C1256  C     0.45552   0.68759   0.76161   0.00000  Uiso   1.00
C1257  C     0.54474   0.68779   0.73634   0.00000  Uiso   1.00
C1258  C     0.45856   0.97982   0.74917   0.00000  Uiso   1.00
C1259  C     0.50007   0.70932   0.74932   0.00000  Uiso   1.00
C1260  C     0.50031   0.95791   0.74914   0.00000  Uiso   1.00
C1261  C     0.65820   0.82454   0.71032   0.00000  Uiso   1.00
C1262  C     0.34183   0.84220   0.78965   0.00000  Uiso   1.00
C1263  C     0.37274   0.82430   0.71040   0.00000  Uiso   1.00
C1264  C     0.62727   0.84218   0.78964   0.00000  Uiso   1.00
C1265  C     0.46951   0.83410   0.83800   0.00000  Uiso   1.00
C1266  C     0.53044   0.83387   0.66197   0.00000  Uiso   1.00
C1267  C     0.45016   0.83784   0.88852   0.00000  Uiso   1.00
C1268  C     0.54859   0.84092   0.61192   0.00000  Uiso   1.00
C1269  C     0.38567   0.82935   0.96397   0.00000  Uiso   1.00
C1270  C     0.60506   0.87339   0.54230   0.00000  Uiso   1.00
C1271  C     0.40138   0.82861   0.91563   0.00000  Uiso   1.00
C1272  C     0.59385   0.85966   0.58787   0.00000  Uiso   1.00
C1273  C     0.48203   0.85043   0.90967   0.00000  Uiso   1.00
C1274  C     0.51557   0.83519   0.59011   0.00000  Uiso   1.00
C1275  C     0.46717   0.85168   0.95802   0.00000  Uiso   1.00
C1276  C     0.52387   0.85232   0.54659   0.00000  Uiso   1.00
C1277  C     0.41856   0.83963   0.98533   0.00000  Uiso   1.00
C1278  C     0.57032   0.86983   0.52145   0.00000  Uiso   1.00
C1279  C     0.50072   0.86098   0.97957   0.00000  Uiso   1.00
C1280  C     0.48739   0.85143   0.52723   0.00000  Uiso   1.00
H1281  H     0.36668   0.82844   0.55495   0.00000  Uiso   1.00
H1282  H     0.61629   0.89763   0.95653   0.00000  Uiso   1.00
H1283  H     0.48281   0.81769   0.60825   0.00000  Uiso   1.00
H1284  H     0.51935   0.85689   0.88768   0.00000  Uiso   1.00
H1285  H     0.61963   0.86487   0.60467   0.00000  Uiso   1.00
H1286  H     0.37603   0.81945   0.89957   0.00000  Uiso   1.00
H1287  H     0.34846   0.82028   0.98456   0.00000  Uiso   1.00
H1288  H     0.64020   0.88778   0.52389   0.00000  Uiso   1.00
H1289  H     0.42429   0.83895   0.59156   0.00000  Uiso   1.00
H1290  H     0.55798   0.89035   0.92003   0.00000  Uiso   1.00
H1291  H     0.65251   0.81744   0.67861   0.00000  Uiso   1.00
H1292  H     0.34755   0.84941   0.82133   0.00000  Uiso   1.00
H1293  H     0.40299   0.81673   0.67869   0.00000  Uiso   1.00
H1294  H     0.59703   0.84937   0.82146   0.00000  Uiso   1.00
N1295  N     0.38093   0.83334   0.75001   0.00000  Uiso   1.00
N1296  N     0.61907   0.83332   0.74999   0.00000  Uiso   1.00
O1297  O     0.46179   0.89442   0.75001   0.00000  Uiso   1.00
O1298  O     0.53821   0.77225   0.74999   0.00000  Uiso   1.00
O1299  O     0.53823   0.89441   0.75000   0.00000  Uiso   1.00
O1300  O     0.46177   0.77226   0.75000   0.00000  Uiso   1.00
O1301  O     0.43994   0.83334   0.81613   0.00000  Uiso   1.00
O1302  O     0.56006   0.83333   0.68387   0.00000  Uiso   1.00
O1303  O     0.51639   0.83333   0.81612   0.00000  Uiso   1.00
O1304  O     0.48361   0.83334   0.68388   0.00000  Uiso   1.00
Zn1305 Zn    0.44896   0.83334   0.75000   0.00000  Uiso   1.00
Zn1306 Zn    0.55104   0.83333   0.75000   0.00000  Uiso   1.00
S1307  S     0.58672   0.96061   0.76979   0.00000  Uiso   1.00
O1308  O     0.62398   0.93521   0.73270   0.00000  Uiso   1.00
O1309  O     0.61222   0.99555   0.78327   0.00000  Uiso   1.00
O1310  O     0.55903   0.93135   0.81731   0.00000  Uiso   1.00
H1311  H     0.58408   0.92703   0.83105   0.00000  Uiso   1.00
S1312  S     0.39765   0.70828   0.79807   0.00000  Uiso   1.00
O1313  O     0.37493   0.73121   0.76904   0.00000  Uiso   1.00
O1314  O     0.36387   0.67416   0.82392   0.00000  Uiso   1.00
O1315  O     0.40527   0.74074   0.83718   0.00000  Uiso   1.00
H1316  H     0.37318   0.75448   0.85219   0.00000  Uiso   1.00
S1317  S     0.60203   0.70867   0.69891   0.00000  Uiso   1.00
O1318  O     0.62584   0.73135   0.72715   0.00000  Uiso   1.00
O1319  O     0.63534   0.67460   0.67228   0.00000  Uiso   1.00
O1320  O     0.59306   0.74142   0.66071   0.00000  Uiso   1.00
H1321  H     0.62584   0.75283   0.64249   0.00000  Uiso   1.00
S1322  S     0.41445   0.96003   0.72757   0.00000  Uiso   1.00
O1323  O     0.37620   0.93600   0.76535   0.00000  Uiso   1.00
O1324  O     0.39017   0.99466   0.71214   0.00000  Uiso   1.00
O1325  O     0.44202   0.92918   0.68144   0.00000  Uiso   1.00
H1326  H     0.41497   0.91490   0.67592   0.00000  Uiso   1.00
C1327  C     0.83344   0.91353   0.74977   0.00000  Uiso   1.00
C1328  C     0.83334   0.75335   0.74987   0.00000  Uiso   1.00
C1329  C     0.77128   0.84180   0.55414   0.00000  Uiso   1.00
C1330  C     0.88062   0.87873   0.95508   0.00000  Uiso   1.00
C1331  C     0.73729   0.83664   0.53343   0.00000  Uiso   1.00
C1332  C     0.91448   0.88369   0.97613   0.00000  Uiso   1.00
C1333  C     0.87549   0.98001   0.74857   0.00000  Uiso   1.00
C1334  C     0.78885   0.68759   0.76161   0.00000  Uiso   1.00
C1335  C     0.87807   0.68779   0.73634   0.00000  Uiso   1.00
C1336  C     0.79189   0.97982   0.74917   0.00000  Uiso   1.00
C1337  C     0.83340   0.70932   0.74932   0.00000  Uiso   1.00
C1338  C     0.83365   0.95791   0.74914   0.00000  Uiso   1.00
C1339  C     0.99153   0.82454   0.71032   0.00000  Uiso   1.00
C1340  C     0.67517   0.84220   0.78965   0.00000  Uiso   1.00
C1341  C     0.70607   0.82430   0.71040   0.00000  Uiso   1.00
C1342  C     0.96061   0.84218   0.78964   0.00000  Uiso   1.00
C1343  C     0.80284   0.83410   0.83800   0.00000  Uiso   1.00
C1344  C     0.86377   0.83387   0.66197   0.00000  Uiso   1.00
C1345  C     0.78349   0.83784   0.88852   0.00000  Uiso   1.00
C1346  C     0.88193   0.84092   0.61192   0.00000  Uiso   1.00
C1347  C     0.71901   0.82935   0.96397   0.00000  Uiso   1.00
C1348  C     0.93840   0.87339   0.54230   0.00000  Uiso   1.00
C1349  C     0.73472   0.82861   0.91563   0.00000  Uiso   1.00
C1350  C     0.92719   0.85966   0.58787   0.00000  Uiso   1.00
C1351  C     0.81536   0.85043   0.90967   0.00000  Uiso   1.00
C1352  C     0.84890   0.83519   0.59011   0.00000  Uiso   1.00
C1353  C     0.80050   0.85168   0.95802   0.00000  Uiso   1.00
C1354  C     0.85720   0.85232   0.54659   0.00000  Uiso   1.00
C1355  C     0.75190   0.83963   0.98533   0.00000  Uiso   1.00
C1356  C     0.90365   0.86983   0.52145   0.00000  Uiso   1.00
C1357  C     0.83405   0.86098   0.97957   0.00000  Uiso   1.00
C1358  C     0.82072   0.85143   0.52723   0.00000  Uiso   1.00
H1359  H     0.70002   0.82844   0.55495   0.00000  Uiso   1.00
H1360  H     0.94962   0.89763   0.95653   0.00000  Uiso   1.00
H1361  H     0.81615   0.81769   0.60825   0.00000  Uiso   1.00
H1362  H     0.85268   0.85689   0.88768   0.00000  Uiso   1.00
H1363  H     0.95296   0.86487   0.60467   0.00000  Uiso   1.00
H1364  H     0.70936   0.81945   0.89957   0.00000  Uiso   1.00
H1365  H     0.68179   0.82028   0.98456   0.00000  Uiso   1.00
H1366  H     0.97354   0.88778   0.52389   0.00000  Uiso   1.00
H1367  H     0.75763   0.83895   0.59156   0.00000  Uiso   1.00
H1368  H     0.89131   0.89035   0.92003   0.00000  Uiso   1.00
H1369  H     0.98585   0.81744   0.67861   0.00000  Uiso   1.00
H1370  H     0.68088   0.84941   0.82133   0.00000  Uiso   1.00
H1371  H     0.73633   0.81673   0.67869   0.00000  Uiso   1.00
H1372  H     0.93036   0.84937   0.82146   0.00000  Uiso   1.00
N1373  N     0.71426   0.83334   0.75001   0.00000  Uiso   1.00
N1374  N     0.95241   0.83332   0.74999   0.00000  Uiso   1.00
O1375  O     0.79512   0.89442   0.75001   0.00000  Uiso   1.00
O1376  O     0.87154   0.77225   0.74999   0.00000  Uiso   1.00
O1377  O     0.87157   0.89441   0.75000   0.00000  Uiso   1.00
O1378  O     0.79510   0.77226   0.75000   0.00000  Uiso   1.00
O1379  O     0.77328   0.83334   0.81613   0.00000  Uiso   1.00
O1380  O     0.89339   0.83333   0.68387   0.00000  Uiso   1.00
O1381  O     0.84972   0.83333   0.81612   0.00000  Uiso   1.00
O1382  O     0.81695   0.83334   0.68388   0.00000  Uiso   1.00
Zn1383 Zn    0.78229   0.83334   0.75000   0.00000  Uiso   1.00
Zn1384 Zn    0.88438   0.83333   0.75000   0.00000  Uiso   1.00
S1385  S     0.92005   0.96061   0.76979   0.00000  Uiso   1.00
O1386  O     0.95731   0.93521   0.73270   0.00000  Uiso   1.00
O1387  O     0.94555   0.99555   0.78327   0.00000  Uiso   1.00
O1388  O     0.89237   0.93135   0.81731   0.00000  Uiso   1.00
H1389  H     0.91741   0.92703   0.83105   0.00000  Uiso   1.00
S1390  S     0.73098   0.70828   0.79807   0.00000  Uiso   1.00
O1391  O     0.70827   0.73121   0.76904   0.00000  Uiso   1.00
O1392  O     0.69720   0.67416   0.82392   0.00000  Uiso   1.00
O1393  O     0.73861   0.74074   0.83718   0.00000  Uiso   1.00
H1394  H     0.70651   0.75448   0.85219   0.00000  Uiso   1.00
S1395  S     0.93536   0.70867   0.69891   0.00000  Uiso   1.00
O1396  O     0.95917   0.73135   0.72715   0.00000  Uiso   1.00
O1397  O     0.96868   0.67460   0.67228   0.00000  Uiso   1.00
O1398  O     0.92639   0.74142   0.66071   0.00000  Uiso   1.00
H1399  H     0.95917   0.75283   0.64249   0.00000  Uiso   1.00
S1400  S     0.74778   0.96003   0.72757   0.00000  Uiso   1.00
O1401  O     0.70953   0.93600   0.76535   0.00000  Uiso   1.00
O1402  O     0.72350   0.99466   0.71214   0.00000  Uiso   1.00
O1403  O     0.77535   0.92918   0.68144   0.00000  Uiso   1.00
H1404  H     0.74830   0.91490   0.67592   0.00000  Uiso   1.00
loop_
_geom_bond_atom_site_label_1
_geom_bond_atom_site_label_2
_geom_bond_distance
_geom_bond_site_symmetry_2
_ccdc_geom_bond_type
C1     C12     1.439   .     S
C1     O51     1.286   .     A
C1     O49     1.286   .     A
C2     O50     1.284   .     A
C2     C11     1.428   .     S
C2     O52     1.282   .     A
C3     C32     1.417   .     A
C3     H41     1.079   .     S
C3     C5      1.387   .     A
C4     H42     1.079   .     S
C4     C6      1.391   .     A
C4     C31     1.418   .     A
C5     H33     1.084   .     S
C5     C731    1.391   1_554 S
C6     H34     1.084   .     S
C6     C732    1.392   .     S
C7     S59     1.789   .     S
C7     C12     1.421   .     A
C7     C243    1.380   .     S
C8     S64     1.787   .     S
C8     C11     1.411   .     A
C8     C478    1.381   1_545 S
C9     S69     1.786   .     S
C9     C11     1.410   .     A
C9     C475    1.380   1_545 S
C10    C12     1.421   .     A
C10    S74     1.789   .     S
C10    C242    1.381   .     S
C13    H43     1.081   .     S
C13    N48     1.364   .     A
C13    C93     1.412   .     S
C14    H44     1.081   .     S
C14    N47     1.364   .     A
C14    C172    1.412   1_455 S
C15    N47     1.368   .     A
C15    H45     1.079   .     S
C15    C169    1.412   1_455 S
C16    N48     1.368   .     A
C16    H46     1.079   .     S
C16    C92     1.412   .     S
C17    O55     1.292   .     A
C17    O53     1.289   .     A
C17    C19     1.456   .     S
C18    O56     1.290   .     A
C18    C20     1.456   .     S
C18    O54     1.291   .     A
C19    C23     1.399   .     A
C19    C25     1.393   .     A
C20    C24     1.400   .     A
C20    C26     1.390   .     A
C21    C23     1.392   .     A
C21    C29     1.403   .     A
C21    H39     1.083   .     S
C22    H40     1.084   .     S
C22    C24     1.396   .     A
C22    C30     1.405   .     A
C23    H38     1.083   .     S
C24    H37     1.083   .     S
C25    C27     1.394   .     A
C25    H36     1.076   .     S
C26    C28     1.392   .     A
C26    H35     1.079   .     S
C27    C29     1.419   .     A
C27    C31     1.417   .     A
C28    C32     1.414   .     A
C28    C30     1.416   .     A
C29    C707    1.391   .     S
C30    C708    1.392   1_554 S
C31    C734    1.412   .     S
C32    C733    1.412   1_554 S
N47    Zn57    2.006   .     S
N48    Zn58    2.006   .     S
O49    Zn57    2.016   .     S
O50    Zn58    2.016   .     S
O51    Zn58    2.016   .     S
O52    Zn57    2.016   .     S
O53    Zn57    1.964   .     S
O54    Zn58    1.964   .     S
O55    Zn58    1.916   .     S
O56    Zn57    1.916   .     S
S59    O60     1.503   .     D
S59    O61     1.503   .     D
S59    O62     1.683   .     S
O62    H63     0.990   .     S
S64    O67     1.682   .     S
S64    O66     1.503   .     D
S64    O65     1.503   .     D
O67    H68     0.990   .     S
S69    O71     1.503   .     D
S69    O72     1.683   .     S
S69    O70     1.503   .     D
O72    H73     0.990   .     S
S74    O77     1.684   .     S
S74    O76     1.503   .     D
S74    O75     1.503   .     D
O77    H78     0.991   .     S
C79    C90     1.439   .     S
C79    O129    1.286   .     A
C79    O127    1.286   .     A
C80    O128    1.284   .     A
C80    C89     1.428   .     S
C80    O130    1.282   .     A
C81    C110    1.417   .     A
C81    H119    1.079   .     S
C81    C83     1.387   .     A
C82    H120    1.079   .     S
C82    C84     1.391   .     A
C82    C109    1.418   .     A
C83    H111    1.084   .     S
C83    C809    1.391   1_554 S
C84    H112    1.084   .     S
C84    C810    1.392   .     S
C85    S137    1.789   .     S
C85    C90     1.421   .     A
C85    C321    1.380   .     S
C86    S142    1.787   .     S
C86    C89     1.411   .     A
C86    C556    1.381   1_545 S
C87    S147    1.786   .     S
C87    C89     1.410   .     A
C87    C553    1.380   1_545 S
C88    C90     1.421   .     A
C88    S152    1.789   .     S
C88    C320    1.381   .     S
C91    H121    1.081   .     S
C91    N126    1.364   .     A
C91    C171    1.412   .     S
C92    H122    1.081   .     S
C92    N125    1.364   .     A
C93    N125    1.368   .     A
C93    H123    1.079   .     S
C94    N126    1.368   .     A
C94    H124    1.079   .     S
C94    C170    1.412   .     S
C95    O133    1.292   .     A
C95    O131    1.289   .     A
C95    C97     1.456   .     S
C96    O134    1.290   .     A
C96    C98     1.456   .     S
C96    O132    1.291   .     A
C97    C101    1.399   .     A
C97    C103    1.393   .     A
C98    C102    1.400   .     A
C98    C104    1.390   .     A
C99    C101    1.392   .     A
C99    C107    1.403   .     A
C99    H117    1.083   .     S
C100   H118    1.084   .     S
C100   C102    1.396   .     A
C100   C108    1.405   .     A
C101   H116    1.083   .     S
C102   H115    1.083   .     S
C103   C105    1.394   .     A
C103   H114    1.076   .     S
C104   C106    1.392   .     A
C104   H113    1.079   .     S
C105   C107    1.419   .     A
C105   C109    1.417   .     A
C106   C110    1.414   .     A
C106   C108    1.416   .     A
C107   C785    1.391   .     S
C108   C786    1.392   1_554 S
C109   C812    1.412   .     S
C110   C811    1.412   1_554 S
N125   Zn135   2.006   .     S
N126   Zn136   2.006   .     S
O127   Zn135   2.016   .     S
O128   Zn136   2.016   .     S
O129   Zn136   2.016   .     S
O130   Zn135   2.016   .     S
O131   Zn135   1.964   .     S
O132   Zn136   1.964   .     S
O133   Zn136   1.916   .     S
O134   Zn135   1.916   .     S
S137   O138    1.503   .     D
S137   O139    1.503   .     D
S137   O140    1.683   .     S
O140   H141    0.990   .     S
S142   O145    1.682   .     S
S142   O144    1.503   .     D
S142   O143    1.503   .     D
O145   H146    0.990   .     S
S147   O149    1.503   .     D
S147   O150    1.683   .     S
S147   O148    1.503   .     D
O150   H151    0.990   .     S
S152   O155    1.684   .     S
S152   O154    1.503   .     D
S152   O153    1.503   .     D
O155   H156    0.991   .     S
C157   C168    1.439   .     S
C157   O207    1.286   .     A
C157   O205    1.286   .     A
C158   O206    1.284   .     A
C158   C167    1.428   .     S
C158   O208    1.282   .     A
C159   C188    1.417   .     A
C159   H197    1.079   .     S
C159   C161    1.387   .     A
C160   H198    1.079   .     S
C160   C162    1.391   .     A
C160   C187    1.418   .     A
C161   H189    1.084   .     S
C161   C887    1.391   1_554 S
C162   H190    1.084   .     S
C162   C888    1.392   .     S
C163   S215    1.789   .     S
C163   C168    1.421   .     A
C163   C399    1.380   .     S
C164   S220    1.787   .     S
C164   C167    1.411   .     A
C164   C634    1.381   1_545 S
C165   S225    1.786   .     S
C165   C167    1.410   .     A
C165   C631    1.380   1_545 S
C166   C168    1.421   .     A
C166   S230    1.789   .     S
C166   C398    1.381   .     S
C169   H199    1.081   .     S
C169   N204    1.364   .     A
C169   C15     1.412   1_655 S
C170   H200    1.081   .     S
C170   N203    1.364   .     A
C171   N203    1.368   .     A
C171   H201    1.079   .     S
C172   N204    1.368   .     A
C172   H202    1.079   .     S
C172   C14     1.412   1_655 S
C173   O211    1.292   .     A
C173   O209    1.289   .     A
C173   C175    1.456   .     S
C174   O212    1.290   .     A
C174   C176    1.456   .     S
C174   O210    1.291   .     A
C175   C179    1.399   .     A
C175   C181    1.393   .     A
C176   C180    1.400   .     A
C176   C182    1.390   .     A
C177   C179    1.392   .     A
C177   C185    1.403   .     A
C177   H195    1.083   .     S
C178   H196    1.084   .     S
C178   C180    1.396   .     A
C178   C186    1.405   .     A
C179   H194    1.083   .     S
C180   H193    1.083   .     S
C181   C183    1.394   .     A
C181   H192    1.076   .     S
C182   C184    1.392   .     A
C182   H191    1.079   .     S
C183   C185    1.419   .     A
C183   C187    1.417   .     A
C184   C188    1.414   .     A
C184   C186    1.416   .     A
C185   C863    1.391   .     S
C186   C864    1.392   1_554 S
C187   C890    1.412   .     S
C188   C889    1.412   1_554 S
N203   Zn213   2.006   .     S
N204   Zn214   2.006   .     S
O205   Zn213   2.016   .     S
O206   Zn214   2.016   .     S
O207   Zn214   2.016   .     S
O208   Zn213   2.016   .     S
O209   Zn213   1.964   .     S
O210   Zn214   1.964   .     S
O211   Zn214   1.916   .     S
O212   Zn213   1.916   .     S
S215   O216    1.503   .     D
S215   O217    1.503   .     D
S215   O218    1.683   .     S
O218   H219    0.990   .     S
S220   O223    1.682   .     S
S220   O222    1.503   .     D
S220   O221    1.503   .     D
O223   H224    0.990   .     S
S225   O227    1.503   .     D
S225   O228    1.683   .     S
S225   O226    1.503   .     D
O228   H229    0.990   .     S
S230   O233    1.684   .     S
S230   O232    1.503   .     D
S230   O231    1.503   .     D
O233   H234    0.991   .     S
C235   C246    1.439   .     S
C235   O285    1.286   .     A
C235   O283    1.286   .     A
C236   O284    1.284   .     A
C236   C245    1.428   .     S
C236   O286    1.282   .     A
C237   C266    1.417   .     A
C237   H275    1.079   .     S
C237   C239    1.387   .     A
C238   H276    1.079   .     S
C238   C240    1.391   .     A
C238   C265    1.418   .     A
C239   H267    1.084   .     S
C239   C965    1.391   1_554 S
C240   H268    1.084   .     S
C240   C966    1.392   .     S
C241   S293    1.789   .     S
C241   C246    1.421   .     A
C241   C477    1.380   .     S
C242   S298    1.787   .     S
C242   C245    1.411   .     A
C243   S303    1.786   .     S
C243   C245    1.410   .     A
C244   C246    1.421   .     A
C244   S308    1.789   .     S
C244   C476    1.381   .     S
C247   H277    1.081   .     S
C247   N282    1.364   .     A
C247   C327    1.412   .     S
C248   H278    1.081   .     S
C248   N281    1.364   .     A
C248   C406    1.412   1_455 S
C249   N281    1.368   .     A
C249   H279    1.079   .     S
C249   C403    1.412   1_455 S
C250   N282    1.368   .     A
C250   H280    1.079   .     S
C250   C326    1.412   .     S
C251   O289    1.292   .     A
C251   O287    1.289   .     A
C251   C253    1.456   .     S
C252   O290    1.290   .     A
C252   C254    1.456   .     S
C252   O288    1.291   .     A
C253   C257    1.399   .     A
C253   C259    1.393   .     A
C254   C258    1.400   .     A
C254   C260    1.390   .     A
C255   C257    1.392   .     A
C255   C263    1.403   .     A
C255   H273    1.083   .     S
C256   H274    1.084   .     S
C256   C258    1.396   .     A
C256   C264    1.405   .     A
C257   H272    1.083   .     S
C258   H271    1.083   .     S
C259   C261    1.394   .     A
C259   H270    1.076   .     S
C260   C262    1.392   .     A
C260   H269    1.079   .     S
C261   C263    1.419   .     A
C261   C265    1.417   .     A
C262   C266    1.414   .     A
C262   C264    1.416   .     A
C263   C941    1.391   .     S
C264   C942    1.392   1_554 S
C265   C968    1.412   .     S
C266   C967    1.412   1_554 S
N281   Zn291   2.006   .     S
N282   Zn292   2.006   .     S
O283   Zn291   2.016   .     S
O284   Zn292   2.016   .     S
O285   Zn292   2.016   .     S
O286   Zn291   2.016   .     S
O287   Zn291   1.964   .     S
O288   Zn292   1.964   .     S
O289   Zn292   1.916   .     S
O290   Zn291   1.916   .     S
S293   O294    1.503   .     D
S293   O295    1.503   .     D
S293   O296    1.683   .     S
O296   H297    0.990   .     S
S298   O301    1.682   .     S
S298   O300    1.503   .     D
S298   O299    1.503   .     D
O301   H302    0.990   .     S
S303   O305    1.503   .     D
S303   O306    1.683   .     S
S303   O304    1.503   .     D
O306   H307    0.990   .     S
S308   O311    1.684   .     S
S308   O310    1.503   .     D
S308   O309    1.503   .     D
O311   H312    0.991   .     S
C313   C324    1.439   .     S
C313   O363    1.286   .     A
C313   O361    1.286   .     A
C314   O362    1.284   .     A
C314   C323    1.428   .     S
C314   O364    1.282   .     A
C315   C344    1.417   .     A
C315   H353    1.079   .     S
C315   C317    1.387   .     A
C316   H354    1.079   .     S
C316   C318    1.391   .     A
C316   C343    1.418   .     A
C317   H345    1.084   .     S
C317   C1043   1.391   1_554 S
C318   H346    1.084   .     S
C318   C1044   1.392   .     S
C319   S371    1.789   .     S
C319   C324    1.421   .     A
C319   C555    1.380   .     S
C320   S376    1.787   .     S
C320   C323    1.411   .     A
C321   S381    1.786   .     S
C321   C323    1.410   .     A
C322   C324    1.421   .     A
C322   S386    1.789   .     S
C322   C554    1.381   .     S
C325   H355    1.081   .     S
C325   N360    1.364   .     A
C325   C405    1.412   .     S
C326   H356    1.081   .     S
C326   N359    1.364   .     A
C327   N359    1.368   .     A
C327   H357    1.079   .     S
C328   N360    1.368   .     A
C328   H358    1.079   .     S
C328   C404    1.412   .     S
C329   O367    1.292   .     A
C329   O365    1.289   .     A
C329   C331    1.456   .     S
C330   O368    1.290   .     A
C330   C332    1.456   .     S
C330   O366    1.291   .     A
C331   C335    1.399   .     A
C331   C337    1.393   .     A
C332   C336    1.400   .     A
C332   C338    1.390   .     A
C333   C335    1.392   .     A
C333   C341    1.403   .     A
C333   H351    1.083   .     S
C334   H352    1.084   .     S
C334   C336    1.396   .     A
C334   C342    1.405   .     A
C335   H350    1.083   .     S
C336   H349    1.083   .     S
C337   C339    1.394   .     A
C337   H348    1.076   .     S
C338   C340    1.392   .     A
C338   H347    1.079   .     S
C339   C341    1.419   .     A
C339   C343    1.417   .     A
C340   C344    1.414   .     A
C340   C342    1.416   .     A
C341   C1019   1.391   .     S
C342   C1020   1.392   1_554 S
C343   C1046   1.412   .     S
C344   C1045   1.412   1_554 S
N359   Zn369   2.006   .     S
N360   Zn370   2.006   .     S
O361   Zn369   2.016   .     S
O362   Zn370   2.016   .     S
O363   Zn370   2.016   .     S
O364   Zn369   2.016   .     S
O365   Zn369   1.964   .     S
O366   Zn370   1.964   .     S
O367   Zn370   1.916   .     S
O368   Zn369   1.916   .     S
S371   O372    1.503   .     D
S371   O373    1.503   .     D
S371   O374    1.683   .     S
O374   H375    0.990   .     S
S376   O379    1.682   .     S
S376   O378    1.503   .     D
S376   O377    1.503   .     D
O379   H380    0.990   .     S
S381   O383    1.503   .     D
S381   O384    1.683   .     S
S381   O382    1.503   .     D
O384   H385    0.990   .     S
S386   O389    1.684   .     S
S386   O388    1.503   .     D
S386   O387    1.503   .     D
O389   H390    0.991   .     S
C391   C402    1.439   .     S
C391   O441    1.286   .     A
C391   O439    1.286   .     A
C392   O440    1.284   .     A
C392   C401    1.428   .     S
C392   O442    1.282   .     A
C393   C422    1.417   .     A
C393   H431    1.079   .     S
C393   C395    1.387   .     A
C394   H432    1.079   .     S
C394   C396    1.391   .     A
C394   C421    1.418   .     A
C395   H423    1.084   .     S
C395   C1121   1.391   1_554 S
C396   H424    1.084   .     S
C396   C1122   1.392   .     S
C397   S449    1.789   .     S
C397   C402    1.421   .     A
C397   C633    1.380   .     S
C398   S454    1.787   .     S
C398   C401    1.411   .     A
C399   S459    1.786   .     S
C399   C401    1.410   .     A
C400   C402    1.421   .     A
C400   S464    1.789   .     S
C400   C632    1.381   .     S
C403   H433    1.081   .     S
C403   N438    1.364   .     A
C403   C249    1.412   1_655 S
C404   H434    1.081   .     S
C404   N437    1.364   .     A
C405   N437    1.368   .     A
C405   H435    1.079   .     S
C406   N438    1.368   .     A
C406   H436    1.079   .     S
C406   C248    1.412   1_655 S
C407   O445    1.292   .     A
C407   O443    1.289   .     A
C407   C409    1.456   .     S
C408   O446    1.290   .     A
C408   C410    1.456   .     S
C408   O444    1.291   .     A
C409   C413    1.399   .     A
C409   C415    1.393   .     A
C410   C414    1.400   .     A
C410   C416    1.390   .     A
C411   C413    1.392   .     A
C411   C419    1.403   .     A
C411   H429    1.083   .     S
C412   H430    1.084   .     S
C412   C414    1.396   .     A
C412   C420    1.405   .     A
C413   H428    1.083   .     S
C414   H427    1.083   .     S
C415   C417    1.394   .     A
C415   H426    1.076   .     S
C416   C418    1.392   .     A
C416   H425    1.079   .     S
C417   C419    1.419   .     A
C417   C421    1.417   .     A
C418   C422    1.414   .     A
C418   C420    1.416   .     A
C419   C1097   1.391   .     S
C420   C1098   1.392   1_554 S
C421   C1124   1.412   .     S
C422   C1123   1.412   1_554 S
N437   Zn447   2.006   .     S
N438   Zn448   2.006   .     S
O439   Zn447   2.016   .     S
O440   Zn448   2.016   .     S
O441   Zn448   2.016   .     S
O442   Zn447   2.016   .     S
O443   Zn447   1.964   .     S
O444   Zn448   1.964   .     S
O445   Zn448   1.916   .     S
O446   Zn447   1.916   .     S
S449   O450    1.503   .     D
S449   O451    1.503   .     D
S449   O452    1.683   .     S
O452   H453    0.990   .     S
S454   O457    1.682   .     S
S454   O456    1.503   .     D
S454   O455    1.503   .     D
O457   H458    0.990   .     S
S459   O461    1.503   .     D
S459   O462    1.683   .     S
S459   O460    1.503   .     D
O462   H463    0.990   .     S
S464   O467    1.684   .     S
S464   O466    1.503   .     D
S464   O465    1.503   .     D
O467   H468    0.991   .     S
C469   C480    1.439   .     S
C469   O519    1.286   .     A
C469   O517    1.286   .     A
C470   O518    1.284   .     A
C470   C479    1.428   .     S
C470   O520    1.282   .     A
C471   C500    1.417   .     A
C471   H509    1.079   .     S
C471   C473    1.387   .     A
C472   H510    1.079   .     S
C472   C474    1.391   .     A
C472   C499    1.418   .     A
C473   H501    1.084   .     S
C473   C1199   1.391   1_554 S
C474   H502    1.084   .     S
C474   C1200   1.392   .     S
C475   S527    1.789   .     S
C475   C480    1.421   .     A
C475   C9      1.380   1_565 S
C476   S532    1.787   .     S
C476   C479    1.411   .     A
C477   S537    1.786   .     S
C477   C479    1.410   .     A
C478   C480    1.421   .     A
C478   S542    1.789   .     S
C478   C8      1.381   1_565 S
C481   H511    1.081   .     S
C481   N516    1.364   .     A
C481   C561    1.412   .     S
C482   H512    1.081   .     S
C482   N515    1.364   .     A
C482   C640    1.412   1_455 S
C483   N515    1.368   .     A
C483   H513    1.079   .     S
C483   C637    1.412   1_455 S
C484   N516    1.368   .     A
C484   H514    1.079   .     S
C484   C560    1.412   .     S
C485   O523    1.292   .     A
C485   O521    1.289   .     A
C485   C487    1.456   .     S
C486   O524    1.290   .     A
C486   C488    1.456   .     S
C486   O522    1.291   .     A
C487   C491    1.399   .     A
C487   C493    1.393   .     A
C488   C492    1.400   .     A
C488   C494    1.390   .     A
C489   C491    1.392   .     A
C489   C497    1.403   .     A
C489   H507    1.083   .     S
C490   H508    1.084   .     S
C490   C492    1.396   .     A
C490   C498    1.405   .     A
C491   H506    1.083   .     S
C492   H505    1.083   .     S
C493   C495    1.394   .     A
C493   H504    1.076   .     S
C494   C496    1.392   .     A
C494   H503    1.079   .     S
C495   C497    1.419   .     A
C495   C499    1.417   .     A
C496   C500    1.414   .     A
C496   C498    1.416   .     A
C497   C1175   1.391   .     S
C498   C1176   1.392   1_554 S
C499   C1202   1.412   .     S
C500   C1201   1.412   1_554 S
N515   Zn525   2.006   .     S
N516   Zn526   2.006   .     S
O517   Zn525   2.016   .     S
O518   Zn526   2.016   .     S
O519   Zn526   2.016   .     S
O520   Zn525   2.016   .     S
O521   Zn525   1.964   .     S
O522   Zn526   1.964   .     S
O523   Zn526   1.916   .     S
O524   Zn525   1.916   .     S
S527   O528    1.503   .     D
S527   O529    1.503   .     D
S527   O530    1.683   .     S
O530   H531    0.990   .     S
S532   O535    1.682   .     S
S532   O534    1.503   .     D
S532   O533    1.503   .     D
O535   H536    0.990   .     S
S537   O539    1.503   .     D
S537   O540    1.683   .     S
S537   O538    1.503   .     D
O540   H541    0.990   .     S
S542   O545    1.684   .     S
S542   O544    1.503   .     D
S542   O543    1.503   .     D
O545   H546    0.991   .     S
C547   C558    1.439   .     S
C547   O597    1.286   .     A
C547   O595    1.286   .     A
C548   O596    1.284   .     A
C548   C557    1.428   .     S
C548   O598    1.282   .     A
C549   C578    1.417   .     A
C549   H587    1.079   .     S
C549   C551    1.387   .     A
C550   H588    1.079   .     S
C550   C552    1.391   .     A
C550   C577    1.418   .     A
C551   H579    1.084   .     S
C551   C1277   1.391   1_554 S
C552   H580    1.084   .     S
C552   C1278   1.392   .     S
C553   S605    1.789   .     S
C553   C558    1.421   .     A
C553   C87     1.380   1_565 S
C554   S610    1.787   .     S
C554   C557    1.411   .     A
C555   S615    1.786   .     S
C555   C557    1.410   .     A
C556   C558    1.421   .     A
C556   S620    1.789   .     S
C556   C86     1.381   1_565 S
C559   H589    1.081   .     S
C559   N594    1.364   .     A
C559   C639    1.412   .     S
C560   H590    1.081   .     S
C560   N593    1.364   .     A
C561   N593    1.368   .     A
C561   H591    1.079   .     S
C562   N594    1.368   .     A
C562   H592    1.079   .     S
C562   C638    1.412   .     S
C563   O601    1.292   .     A
C563   O599    1.289   .     A
C563   C565    1.456   .     S
C564   O602    1.290   .     A
C564   C566    1.456   .     S
C564   O600    1.291   .     A
C565   C569    1.399   .     A
C565   C571    1.393   .     A
C566   C570    1.400   .     A
C566   C572    1.390   .     A
C567   C569    1.392   .     A
C567   C575    1.403   .     A
C567   H585    1.083   .     S
C568   H586    1.084   .     S
C568   C570    1.396   .     A
C568   C576    1.405   .     A
C569   H584    1.083   .     S
C570   H583    1.083   .     S
C571   C573    1.394   .     A
C571   H582    1.076   .     S
C572   C574    1.392   .     A
C572   H581    1.079   .     S
C573   C575    1.419   .     A
C573   C577    1.417   .     A
C574   C578    1.414   .     A
C574   C576    1.416   .     A
C575   C1253   1.391   .     S
C576   C1254   1.392   1_554 S
C577   C1280   1.412   .     S
C578   C1279   1.412   1_554 S
N593   Zn603   2.006   .     S
N594   Zn604   2.006   .     S
O595   Zn603   2.016   .     S
O596   Zn604   2.016   .     S
O597   Zn604   2.016   .     S
O598   Zn603   2.016   .     S
O599   Zn603   1.964   .     S
O600   Zn604   1.964   .     S
O601   Zn604   1.916   .     S
O602   Zn603   1.916   .     S
S605   O606    1.503   .     D
S605   O607    1.503   .     D
S605   O608    1.683   .     S
O608   H609    0.990   .     S
S610   O613    1.682   .     S
S610   O612    1.503   .     D
S610   O611    1.503   .     D
O613   H614    0.990   .     S
S615   O617    1.503   .     D
S615   O618    1.683   .     S
S615   O616    1.503   .     D
O618   H619    0.990   .     S
S620   O623    1.684   .     S
S620   O622    1.503   .     D
S620   O621    1.503   .     D
O623   H624    0.991   .     S
C625   C636    1.439   .     S
C625   O675    1.286   .     A
C625   O673    1.286   .     A
C626   O674    1.284   .     A
C626   C635    1.428   .     S
C626   O676    1.282   .     A
C627   C656    1.417   .     A
C627   H665    1.079   .     S
C627   C629    1.387   .     A
C628   H666    1.079   .     S
C628   C630    1.391   .     A
C628   C655    1.418   .     A
C629   H657    1.084   .     S
C629   C1355   1.391   1_554 S
C630   H658    1.084   .     S
C630   C1356   1.392   .     S
C631   S683    1.789   .     S
C631   C636    1.421   .     A
C631   C165    1.380   1_565 S
C632   S688    1.787   .     S
C632   C635    1.411   .     A
C633   S693    1.786   .     S
C633   C635    1.410   .     A
C634   C636    1.421   .     A
C634   S698    1.789   .     S
C634   C164    1.381   1_565 S
C637   H667    1.081   .     S
C637   N672    1.364   .     A
C637   C483    1.412   1_655 S
C638   H668    1.081   .     S
C638   N671    1.364   .     A
C639   N671    1.368   .     A
C639   H669    1.079   .     S
C640   N672    1.368   .     A
C640   H670    1.079   .     S
C640   C482    1.412   1_655 S
C641   O679    1.292   .     A
C641   O677    1.289   .     A
C641   C643    1.456   .     S
C642   O680    1.290   .     A
C642   C644    1.456   .     S
C642   O678    1.291   .     A
C643   C647    1.399   .     A
C643   C649    1.393   .     A
C644   C648    1.400   .     A
C644   C650    1.390   .     A
C645   C647    1.392   .     A
C645   C653    1.403   .     A
C645   H663    1.083   .     S
C646   H664    1.084   .     S
C646   C648    1.396   .     A
C646   C654    1.405   .     A
C647   H662    1.083   .     S
C648   H661    1.083   .     S
C649   C651    1.394   .     A
C649   H660    1.076   .     S
C650   C652    1.392   .     A
C650   H659    1.079   .     S
C651   C653    1.419   .     A
C651   C655    1.417   .     A
C652   C656    1.414   .     A
C652   C654    1.416   .     A
C653   C1331   1.391   .     S
C654   C1332   1.392   1_554 S
C655   C1358   1.412   .     S
C656   C1357   1.412   1_554 S
N671   Zn681   2.006   .     S
N672   Zn682   2.006   .     S
O673   Zn681   2.016   .     S
O674   Zn682   2.016   .     S
O675   Zn682   2.016   .     S
O676   Zn681   2.016   .     S
O677   Zn681   1.964   .     S
O678   Zn682   1.964   .     S
O679   Zn682   1.916   .     S
O680   Zn681   1.916   .     S
S683   O684    1.503   .     D
S683   O685    1.503   .     D
S683   O686    1.683   .     S
O686   H687    0.990   .     S
S688   O691    1.682   .     S
S688   O690    1.503   .     D
S688   O689    1.503   .     D
O691   H692    0.990   .     S
S693   O695    1.503   .     D
S693   O696    1.683   .     S
S693   O694    1.503   .     D
O696   H697    0.990   .     S
S698   O701    1.684   .     S
S698   O700    1.503   .     D
S698   O699    1.503   .     D
O701   H702    0.991   .     S
C703   C714    1.439   .     S
C703   O753    1.286   .     A
C703   O751    1.286   .     A
C704   O752    1.284   .     A
C704   C713    1.428   .     S
C704   O754    1.282   .     A
C705   C734    1.417   .     A
C705   H743    1.079   .     S
C705   C707    1.387   .     A
C706   H744    1.079   .     S
C706   C708    1.391   .     A
C706   C733    1.418   .     A
C707   H735    1.084   .     S
C708   H736    1.084   .     S
C708   C30     1.392   1_556 S
C709   S761    1.789   .     S
C709   C714    1.421   .     A
C709   C945    1.380   .     S
C710   S766    1.787   .     S
C710   C713    1.411   .     A
C710   C1180   1.381   1_545 S
C711   S771    1.786   .     S
C711   C713    1.410   .     A
C711   C1177   1.380   1_545 S
C712   C714    1.421   .     A
C712   S776    1.789   .     S
C712   C944    1.381   .     S
C715   H745    1.081   .     S
C715   N750    1.364   .     A
C715   C795    1.412   .     S
C716   H746    1.081   .     S
C716   N749    1.364   .     A
C716   C874    1.412   1_455 S
C717   N749    1.368   .     A
C717   H747    1.079   .     S
C717   C871    1.412   1_455 S
C718   N750    1.368   .     A
C718   H748    1.079   .     S
C718   C794    1.412   .     S
C719   O757    1.292   .     A
C719   O755    1.289   .     A
C719   C721    1.456   .     S
C720   O758    1.290   .     A
C720   C722    1.456   .     S
C720   O756    1.291   .     A
C721   C725    1.399   .     A
C721   C727    1.393   .     A
C722   C726    1.400   .     A
C722   C728    1.390   .     A
C723   C725    1.392   .     A
C723   C731    1.403   .     A
C723   H741    1.083   .     S
C724   H742    1.084   .     S
C724   C726    1.396   .     A
C724   C732    1.405   .     A
C725   H740    1.083   .     S
C726   H739    1.083   .     S
C727   C729    1.394   .     A
C727   H738    1.076   .     S
C728   C730    1.392   .     A
C728   H737    1.079   .     S
C729   C731    1.419   .     A
C729   C733    1.417   .     A
C730   C734    1.414   .     A
C730   C732    1.416   .     A
C731   C5      1.391   1_556 S
C733   C32     1.412   1_556 S
N749   Zn759   2.006   .     S
N750   Zn760   2.006   .     S
O751   Zn759   2.016   .     S
O752   Zn760   2.016   .     S
O753   Zn760   2.016   .     S
O754   Zn759   2.016   .     S
O755   Zn759   1.964   .     S
O756   Zn760   1.964   .     S
O757   Zn760   1.916   .     S
O758   Zn759   1.916   .     S
S761   O762    1.503   .     D
S761   O763    1.503   .     D
S761   O764    1.683   .     S
O764   H765    0.990   .     S
S766   O769    1.682   .     S
S766   O768    1.503   .     D
S766   O767    1.503   .     D
O769   H770    0.990   .     S
S771   O773    1.503   .     D
S771   O774    1.683   .     S
S771   O772    1.503   .     D
O774   H775    0.990   .     S
S776   O779    1.684   .     S
S776   O778    1.503   .     D
S776   O777    1.503   .     D
O779   H780    0.991   .     S
C781   C792    1.439   .     S
C781   O831    1.286   .     A
C781   O829    1.286   .     A
C782   O830    1.284   .     A
C782   C791    1.428   .     S
C782   O832    1.282   .     A
C783   C812    1.417   .     A
C783   H821    1.079   .     S
C783   C785    1.387   .     A
C784   H822    1.079   .     S
C784   C786    1.391   .     A
C784   C811    1.418   .     A
C785   H813    1.084   .     S
C786   H814    1.084   .     S
C786   C108    1.392   1_556 S
C787   S839    1.789   .     S
C787   C792    1.421   .     A
C787   C1023   1.380   .     S
C788   S844    1.787   .     S
C788   C791    1.411   .     A
C788   C1258   1.381   1_545 S
C789   S849    1.786   .     S
C789   C791    1.410   .     A
C789   C1255   1.380   1_545 S
C790   C792    1.421   .     A
C790   S854    1.789   .     S
C790   C1022   1.381   .     S
C793   H823    1.081   .     S
C793   N828    1.364   .     A
C793   C873    1.412   .     S
C794   H824    1.081   .     S
C794   N827    1.364   .     A
C795   N827    1.368   .     A
C795   H825    1.079   .     S
C796   N828    1.368   .     A
C796   H826    1.079   .     S
C796   C872    1.412   .     S
C797   O835    1.292   .     A
C797   O833    1.289   .     A
C797   C799    1.456   .     S
C798   O836    1.290   .     A
C798   C800    1.456   .     S
C798   O834    1.291   .     A
C799   C803    1.399   .     A
C799   C805    1.393   .     A
C800   C804    1.400   .     A
C800   C806    1.390   .     A
C801   C803    1.392   .     A
C801   C809    1.403   .     A
C801   H819    1.083   .     S
C802   H820    1.084   .     S
C802   C804    1.396   .     A
C802   C810    1.405   .     A
C803   H818    1.083   .     S
C804   H817    1.083   .     S
C805   C807    1.394   .     A
C805   H816    1.076   .     S
C806   C808    1.392   .     A
C806   H815    1.079   .     S
C807   C809    1.419   .     A
C807   C811    1.417   .     A
C808   C812    1.414   .     A
C808   C810    1.416   .     A
C809   C83     1.391   1_556 S
C811   C110    1.412   1_556 S
N827   Zn837   2.006   .     S
N828   Zn838   2.006   .     S
O829   Zn837   2.016   .     S
O830   Zn838   2.016   .     S
O831   Zn838   2.016   .     S
O832   Zn837   2.016   .     S
O833   Zn837   1.964   .     S
O834   Zn838   1.964   .     S
O835   Zn838   1.916   .     S
O836   Zn837   1.916   .     S
S839   O840    1.503   .     D
S839   O841    1.503   .     D
S839   O842    1.683   .     S
O842   H843    0.990   .     S
S844   O847    1.682   .     S
S844   O846    1.503   .     D
S844   O845    1.503   .     D
O847   H848    0.990   .     S
S849   O851    1.503   .     D
S849   O852    1.683   .     S
S849   O850    1.503   .     D
O852   H853    0.990   .     S
S854   O857    1.684   .     S
S854   O856    1.503   .     D
S854   O855    1.503   .     D
O857   H858    0.991   .     S
C859   C870    1.439   .     S
C859   O909    1.286   .     A
C859   O907    1.286   .     A
C860   O908    1.284   .     A
C860   C869    1.428   .     S
C860   O910    1.282   .     A
C861   C890    1.417   .     A
C861   H899    1.079   .     S
C861   C863    1.387   .     A
C862   H900    1.079   .     S
C862   C864    1.391   .     A
C862   C889    1.418   .     A
C863   H891    1.084   .     S
C864   H892    1.084   .     S
C864   C186    1.392   1_556 S
C865   S917    1.789   .     S
C865   C870    1.421   .     A
C865   C1101   1.380   .     S
C866   S922    1.787   .     S
C866   C869    1.411   .     A
C866   C1336   1.381   1_545 S
C867   S927    1.786   .     S
C867   C869    1.410   .     A
C867   C1333   1.380   1_545 S
C868   C870    1.421   .     A
C868   S932    1.789   .     S
C868   C1100   1.381   .     S
C871   H901    1.081   .     S
C871   N906    1.364   .     A
C871   C717    1.412   1_655 S
C872   H902    1.081   .     S
C872   N905    1.364   .     A
C873   N905    1.368   .     A
C873   H903    1.079   .     S
C874   N906    1.368   .     A
C874   H904    1.079   .     S
C874   C716    1.412   1_655 S
C875   O913    1.292   .     A
C875   O911    1.289   .     A
C875   C877    1.456   .     S
C876   O914    1.290   .     A
C876   C878    1.456   .     S
C876   O912    1.291   .     A
C877   C881    1.399   .     A
C877   C883    1.393   .     A
C878   C882    1.400   .     A
C878   C884    1.390   .     A
C879   C881    1.392   .     A
C879   C887    1.403   .     A
C879   H897    1.083   .     S
C880   H898    1.084   .     S
C880   C882    1.396   .     A
C880   C888    1.405   .     A
C881   H896    1.083   .     S
C882   H895    1.083   .     S
C883   C885    1.394   .     A
C883   H894    1.076   .     S
C884   C886    1.392   .     A
C884   H893    1.079   .     S
C885   C887    1.419   .     A
C885   C889    1.417   .     A
C886   C890    1.414   .     A
C886   C888    1.416   .     A
C887   C161    1.391   1_556 S
C889   C188    1.412   1_556 S
N905   Zn915   2.006   .     S
N906   Zn916   2.006   .     S
O907   Zn915   2.016   .     S
O908   Zn916   2.016   .     S
O909   Zn916   2.016   .     S
O910   Zn915   2.016   .     S
O911   Zn915   1.964   .     S
O912   Zn916   1.964   .     S
O913   Zn916   1.916   .     S
O914   Zn915   1.916   .     S
S917   O918    1.503   .     D
S917   O919    1.503   .     D
S917   O920    1.683   .     S
O920   H921    0.990   .     S
S922   O925    1.682   .     S
S922   O924    1.503   .     D
S922   O923    1.503   .     D
O925   H926    0.990   .     S
S927   O929    1.503   .     D
S927   O930    1.683   .     S
S927   O928    1.503   .     D
O930   H931    0.990   .     S
S932   O935    1.684   .     S
S932   O934    1.503   .     D
S932   O933    1.503   .     D
O935   H936    0.991   .     S
C937   C948    1.439   .     S
C937   O987    1.286   .     A
C937   O985    1.286   .     A
C938   O986    1.284   .     A
C938   C947    1.428   .     S
C938   O988    1.282   .     A
C939   C968    1.417   .     A
C939   H977    1.079   .     S
C939   C941    1.387   .     A
C940   H978    1.079   .     S
C940   C942    1.391   .     A
C940   C967    1.418   .     A
C941   H969    1.084   .     S
C942   H970    1.084   .     S
C942   C264    1.392   1_556 S
C943   S995    1.789   .     S
C943   C948    1.421   .     A
C943   C1179   1.380   .     S
C944   S1000   1.787   .     S
C944   C947    1.411   .     A
C945   S1005   1.786   .     S
C945   C947    1.410   .     A
C946   C948    1.421   .     A
C946   S1010   1.789   .     S
C946   C1178   1.381   .     S
C949   H979    1.081   .     S
C949   N984    1.364   .     A
C949   C1029   1.412   .     S
C950   H980    1.081   .     S
C950   N983    1.364   .     A
C950   C1108   1.412   1_455 S
C951   N983    1.368   .     A
C951   H981    1.079   .     S
C951   C1105   1.412   1_455 S
C952   N984    1.368   .     A
C952   H982    1.079   .     S
C952   C1028   1.412   .     S
C953   O991    1.292   .     A
C953   O989    1.289   .     A
C953   C955    1.456   .     S
C954   O992    1.290   .     A
C954   C956    1.456   .     S
C954   O990    1.291   .     A
C955   C959    1.399   .     A
C955   C961    1.393   .     A
C956   C960    1.400   .     A
C956   C962    1.390   .     A
C957   C959    1.392   .     A
C957   C965    1.403   .     A
C957   H975    1.083   .     S
C958   H976    1.084   .     S
C958   C960    1.396   .     A
C958   C966    1.405   .     A
C959   H974    1.083   .     S
C960   H973    1.083   .     S
C961   C963    1.394   .     A
C961   H972    1.076   .     S
C962   C964    1.392   .     A
C962   H971    1.079   .     S
C963   C965    1.419   .     A
C963   C967    1.417   .     A
C964   C968    1.414   .     A
C964   C966    1.416   .     A
C965   C239    1.391   1_556 S
C967   C266    1.412   1_556 S
N983   Zn993   2.006   .     S
N984   Zn994   2.006   .     S
O985   Zn993   2.016   .     S
O986   Zn994   2.016   .     S
O987   Zn994   2.016   .     S
O988   Zn993   2.016   .     S
O989   Zn993   1.964   .     S
O990   Zn994   1.964   .     S
O991   Zn994   1.916   .     S
O992   Zn993   1.916   .     S
S995   O996    1.503   .     D
S995   O997    1.503   .     D
S995   O998    1.683   .     S
O998   H999    0.990   .     S
S1000  O1003   1.682   .     S
S1000  O1002   1.503   .     D
S1000  O1001   1.503   .     D
O1003  H1004   0.990   .     S
S1005  O1007   1.503   .     D
S1005  O1008   1.683   .     S
S1005  O1006   1.503   .     D
O1008  H1009   0.990   .     S
S1010  O1013   1.684   .     S
S1010  O1012   1.503   .     D
S1010  O1011   1.503   .     D
O1013  H1014   0.991   .     S
C1015  C1026   1.439   .     S
C1015  O1065   1.286   .     A
C1015  O1063   1.286   .     A
C1016  O1064   1.284   .     A
C1016  C1025   1.428   .     S
C1016  O1066   1.282   .     A
C1017  C1046   1.417   .     A
C1017  H1055   1.079   .     S
C1017  C1019   1.387   .     A
C1018  H1056   1.079   .     S
C1018  C1020   1.391   .     A
C1018  C1045   1.418   .     A
C1019  H1047   1.084   .     S
C1020  H1048   1.084   .     S
C1020  C342    1.392   1_556 S
C1021  S1073   1.789   .     S
C1021  C1026   1.421   .     A
C1021  C1257   1.380   .     S
C1022  S1078   1.787   .     S
C1022  C1025   1.411   .     A
C1023  S1083   1.786   .     S
C1023  C1025   1.410   .     A
C1024  C1026   1.421   .     A
C1024  S1088   1.789   .     S
C1024  C1256   1.381   .     S
C1027  H1057   1.081   .     S
C1027  N1062   1.364   .     A
C1027  C1107   1.412   .     S
C1028  H1058   1.081   .     S
C1028  N1061   1.364   .     A
C1029  N1061   1.368   .     A
C1029  H1059   1.079   .     S
C1030  N1062   1.368   .     A
C1030  H1060   1.079   .     S
C1030  C1106   1.412   .     S
C1031  O1069   1.292   .     A
C1031  O1067   1.289   .     A
C1031  C1033   1.456   .     S
C1032  O1070   1.290   .     A
C1032  C1034   1.456   .     S
C1032  O1068   1.291   .     A
C1033  C1037   1.399   .     A
C1033  C1039   1.393   .     A
C1034  C1038   1.400   .     A
C1034  C1040   1.390   .     A
C1035  C1037   1.392   .     A
C1035  C1043   1.403   .     A
C1035  H1053   1.083   .     S
C1036  H1054   1.084   .     S
C1036  C1038   1.396   .     A
C1036  C1044   1.405   .     A
C1037  H1052   1.083   .     S
C1038  H1051   1.083   .     S
C1039  C1041   1.394   .     A
C1039  H1050   1.076   .     S
C1040  C1042   1.392   .     A
C1040  H1049   1.079   .     S
C1041  C1043   1.419   .     A
C1041  C1045   1.417   .     A
C1042  C1046   1.414   .     A
C1042  C1044   1.416   .     A
C1043  C317    1.391   1_556 S
C1045  C344    1.412   1_556 S
N1061  Zn1071  2.006   .     S
N1062  Zn1072  2.006   .     S
O1063  Zn1071  2.016   .     S
O1064  Zn1072  2.016   .     S
O1065  Zn1072  2.016   .     S
O1066  Zn1071  2.016   .     S
O1067  Zn1071  1.964   .     S
O1068  Zn1072  1.964   .     S
O1069  Zn1072  1.916   .     S
O1070  Zn1071  1.916   .     S
S1073  O1074   1.503   .     D
S1073  O1075   1.503   .     D
S1073  O1076   1.683   .     S
O1076  H1077   0.990   .     S
S1078  O1081   1.682   .     S
S1078  O1080   1.503   .     D
S1078  O1079   1.503   .     D
O1081  H1082   0.990   .     S
S1083  O1085   1.503   .     D
S1083  O1086   1.683   .     S
S1083  O1084   1.503   .     D
O1086  H1087   0.990   .     S
S1088  O1091   1.684   .     S
S1088  O1090   1.503   .     D
S1088  O1089   1.503   .     D
O1091  H1092   0.991   .     S
C1093  C1104   1.439   .     S
C1093  O1143   1.286   .     A
C1093  O1141   1.286   .     A
C1094  O1142   1.284   .     A
C1094  C1103   1.428   .     S
C1094  O1144   1.282   .     A
C1095  C1124   1.417   .     A
C1095  H1133   1.079   .     S
C1095  C1097   1.387   .     A
C1096  H1134   1.079   .     S
C1096  C1098   1.391   .     A
C1096  C1123   1.418   .     A
C1097  H1125   1.084   .     S
C1098  H1126   1.084   .     S
C1098  C420    1.392   1_556 S
C1099  S1151   1.789   .     S
C1099  C1104   1.421   .     A
C1099  C1335   1.380   .     S
C1100  S1156   1.787   .     S
C1100  C1103   1.411   .     A
C1101  S1161   1.786   .     S
C1101  C1103   1.410   .     A
C1102  C1104   1.421   .     A
C1102  S1166   1.789   .     S
C1102  C1334   1.381   .     S
C1105  H1135   1.081   .     S
C1105  N1140   1.364   .     A
C1105  C951    1.412   1_655 S
C1106  H1136   1.081   .     S
C1106  N1139   1.364   .     A
C1107  N1139   1.368   .     A
C1107  H1137   1.079   .     S
C1108  N1140   1.368   .     A
C1108  H1138   1.079   .     S
C1108  C950    1.412   1_655 S
C1109  O1147   1.292   .     A
C1109  O1145   1.289   .     A
C1109  C1111   1.456   .     S
C1110  O1148   1.290   .     A
C1110  C1112   1.456   .     S
C1110  O1146   1.291   .     A
C1111  C1115   1.399   .     A
C1111  C1117   1.393   .     A
C1112  C1116   1.400   .     A
C1112  C1118   1.390   .     A
C1113  C1115   1.392   .     A
C1113  C1121   1.403   .     A
C1113  H1131   1.083   .     S
C1114  H1132   1.084   .     S
C1114  C1116   1.396   .     A
C1114  C1122   1.405   .     A
C1115  H1130   1.083   .     S
C1116  H1129   1.083   .     S
C1117  C1119   1.394   .     A
C1117  H1128   1.076   .     S
C1118  C1120   1.392   .     A
C1118  H1127   1.079   .     S
C1119  C1121   1.419   .     A
C1119  C1123   1.417   .     A
C1120  C1124   1.414   .     A
C1120  C1122   1.416   .     A
C1121  C395    1.391   1_556 S
C1123  C422    1.412   1_556 S
N1139  Zn1149  2.006   .     S
N1140  Zn1150  2.006   .     S
O1141  Zn1149  2.016   .     S
O1142  Zn1150  2.016   .     S
O1143  Zn1150  2.016   .     S
O1144  Zn1149  2.016   .     S
O1145  Zn1149  1.964   .     S
O1146  Zn1150  1.964   .     S
O1147  Zn1150  1.916   .     S
O1148  Zn1149  1.916   .     S
S1151  O1152   1.503   .     D
S1151  O1153   1.503   .     D
S1151  O1154   1.683   .     S
O1154  H1155   0.990   .     S
S1156  O1159   1.682   .     S
S1156  O1158   1.503   .     D
S1156  O1157   1.503   .     D
O1159  H1160   0.990   .     S
S1161  O1163   1.503   .     D
S1161  O1164   1.683   .     S
S1161  O1162   1.503   .     D
O1164  H1165   0.990   .     S
S1166  O1169   1.684   .     S
S1166  O1168   1.503   .     D
S1166  O1167   1.503   .     D
O1169  H1170   0.991   .     S
C1171  C1182   1.439   .     S
C1171  O1221   1.286   .     A
C1171  O1219   1.286   .     A
C1172  O1220   1.284   .     A
C1172  C1181   1.428   .     S
C1172  O1222   1.282   .     A
C1173  C1202   1.417   .     A
C1173  H1211   1.079   .     S
C1173  C1175   1.387   .     A
C1174  H1212   1.079   .     S
C1174  C1176   1.391   .     A
C1174  C1201   1.418   .     A
C1175  H1203   1.084   .     S
C1176  H1204   1.084   .     S
C1176  C498    1.392   1_556 S
C1177  S1229   1.789   .     S
C1177  C1182   1.421   .     A
C1177  C711    1.380   1_565 S
C1178  S1234   1.787   .     S
C1178  C1181   1.411   .     A
C1179  S1239   1.786   .     S
C1179  C1181   1.410   .     A
C1180  C1182   1.421   .     A
C1180  S1244   1.789   .     S
C1180  C710    1.381   1_565 S
C1183  H1213   1.081   .     S
C1183  N1218   1.364   .     A
C1183  C1263   1.412   .     S
C1184  H1214   1.081   .     S
C1184  N1217   1.364   .     A
C1184  C1342   1.412   1_455 S
C1185  N1217   1.368   .     A
C1185  H1215   1.079   .     S
C1185  C1339   1.412   1_455 S
C1186  N1218   1.368   .     A
C1186  H1216   1.079   .     S
C1186  C1262   1.412   .     S
C1187  O1225   1.292   .     A
C1187  O1223   1.289   .     A
C1187  C1189   1.456   .     S
C1188  O1226   1.290   .     A
C1188  C1190   1.456   .     S
C1188  O1224   1.291   .     A
C1189  C1193   1.399   .     A
C1189  C1195   1.393   .     A
C1190  C1194   1.400   .     A
C1190  C1196   1.390   .     A
C1191  C1193   1.392   .     A
C1191  C1199   1.403   .     A
C1191  H1209   1.083   .     S
C1192  H1210   1.084   .     S
C1192  C1194   1.396   .     A
C1192  C1200   1.405   .     A
C1193  H1208   1.083   .     S
C1194  H1207   1.083   .     S
C1195  C1197   1.394   .     A
C1195  H1206   1.076   .     S
C1196  C1198   1.392   .     A
C1196  H1205   1.079   .     S
C1197  C1199   1.419   .     A
C1197  C1201   1.417   .     A
C1198  C1202   1.414   .     A
C1198  C1200   1.416   .     A
C1199  C473    1.391   1_556 S
C1201  C500    1.412   1_556 S
N1217  Zn1227  2.006   .     S
N1218  Zn1228  2.006   .     S
O1219  Zn1227  2.016   .     S
O1220  Zn1228  2.016   .     S
O1221  Zn1228  2.016   .     S
O1222  Zn1227  2.016   .     S
O1223  Zn1227  1.964   .     S
O1224  Zn1228  1.964   .     S
O1225  Zn1228  1.916   .     S
O1226  Zn1227  1.916   .     S
S1229  O1230   1.503   .     D
S1229  O1231   1.503   .     D
S1229  O1232   1.683   .     S
O1232  H1233   0.990   .     S
S1234  O1237   1.682   .     S
S1234  O1236   1.503   .     D
S1234  O1235   1.503   .     D
O1237  H1238   0.990   .     S
S1239  O1241   1.503   .     D
S1239  O1242   1.683   .     S
S1239  O1240   1.503   .     D
O1242  H1243   0.990   .     S
S1244  O1247   1.684   .     S
S1244  O1246   1.503   .     D
S1244  O1245   1.503   .     D
O1247  H1248   0.991   .     S
C1249  C1260   1.439   .     S
C1249  O1299   1.286   .     A
C1249  O1297   1.286   .     A
C1250  O1298   1.284   .     A
C1250  C1259   1.428   .     S
C1250  O1300   1.282   .     A
C1251  C1280   1.417   .     A
C1251  H1289   1.079   .     S
C1251  C1253   1.387   .     A
C1252  H1290   1.079   .     S
C1252  C1254   1.391   .     A
C1252  C1279   1.418   .     A
C1253  H1281   1.084   .     S
C1254  H1282   1.084   .     S
C1254  C576    1.392   1_556 S
C1255  S1307   1.789   .     S
C1255  C1260   1.421   .     A
C1255  C789    1.380   1_565 S
C1256  S1312   1.787   .     S
C1256  C1259   1.411   .     A
C1257  S1317   1.786   .     S
C1257  C1259   1.410   .     A
C1258  C1260   1.421   .     A
C1258  S1322   1.789   .     S
C1258  C788    1.381   1_565 S
C1261  H1291   1.081   .     S
C1261  N1296   1.364   .     A
C1261  C1341   1.412   .     S
C1262  H1292   1.081   .     S
C1262  N1295   1.364   .     A
C1263  N1295   1.368   .     A
C1263  H1293   1.079   .     S
C1264  N1296   1.368   .     A
C1264  H1294   1.079   .     S
C1264  C1340   1.412   .     S
C1265  O1303   1.292   .     A
C1265  O1301   1.289   .     A
C1265  C1267   1.456   .     S
C1266  O1304   1.290   .     A
C1266  C1268   1.456   .     S
C1266  O1302   1.291   .     A
C1267  C1271   1.399   .     A
C1267  C1273   1.393   .     A
C1268  C1272   1.400   .     A
C1268  C1274   1.390   .     A
C1269  C1271   1.392   .     A
C1269  C1277   1.403   .     A
C1269  H1287   1.083   .     S
C1270  H1288   1.084   .     S
C1270  C1272   1.396   .     A
C1270  C1278   1.405   .     A
C1271  H1286   1.083   .     S
C1272  H1285   1.083   .     S
C1273  C1275   1.394   .     A
C1273  H1284   1.076   .     S
C1274  C1276   1.392   .     A
C1274  H1283   1.079   .     S
C1275  C1277   1.419   .     A
C1275  C1279   1.417   .     A
C1276  C1280   1.414   .     A
C1276  C1278   1.416   .     A
C1277  C551    1.391   1_556 S
C1279  C578    1.412   1_556 S
N1295  Zn1305  2.006   .     S
N1296  Zn1306  2.006   .     S
O1297  Zn1305  2.016   .     S
O1298  Zn1306  2.016   .     S
O1299  Zn1306  2.016   .     S
O1300  Zn1305  2.016   .     S
O1301  Zn1305  1.964   .     S
O1302  Zn1306  1.964   .     S
O1303  Zn1306  1.916   .     S
O1304  Zn1305  1.916   .     S
S1307  O1308   1.503   .     D
S1307  O1309   1.503   .     D
S1307  O1310   1.683   .     S
O1310  H1311   0.990   .     S
S1312  O1315   1.682   .     S
S1312  O1314   1.503   .     D
S1312  O1313   1.503   .     D
O1315  H1316   0.990   .     S
S1317  O1319   1.503   .     D
S1317  O1320   1.683   .     S
S1317  O1318   1.503   .     D
O1320  H1321   0.990   .     S
S1322  O1325   1.684   .     S
S1322  O1324   1.503   .     D
S1322  O1323   1.503   .     D
O1325  H1326   0.991   .     S
C1327  C1338   1.439   .     S
C1327  O1377   1.286   .     A
C1327  O1375   1.286   .     A
C1328  O1376   1.284   .     A
C1328  C1337   1.428   .     S
C1328  O1378   1.282   .     A
C1329  C1358   1.417   .     A
C1329  H1367   1.079   .     S
C1329  C1331   1.387   .     A
C1330  H1368   1.079   .     S
C1330  C1332   1.391   .     A
C1330  C1357   1.418   .     A
C1331  H1359   1.084   .     S
C1332  H1360   1.084   .     S
C1332  C654    1.392   1_556 S
C1333  S1385   1.789   .     S
C1333  C1338   1.421   .     A
C1333  C867    1.380   1_565 S
C1334  S1390   1.787   .     S
C1334  C1337   1.411   .     A
C1335  S1395   1.786   .     S
C1335  C1337   1.410   .     A
C1336  C1338   1.421   .     A
C1336  S1400   1.789   .     S
C1336  C866    1.381   1_565 S
C1339  H1369   1.081   .     S
C1339  N1374   1.364   .     A
C1339  C1185   1.412   1_655 S
C1340  H1370   1.081   .     S
C1340  N1373   1.364   .     A
C1341  N1373   1.368   .     A
C1341  H1371   1.079   .     S
C1342  N1374   1.368   .     A
C1342  H1372   1.079   .     S
C1342  C1184   1.412   1_655 S
C1343  O1381   1.292   .     A
C1343  O1379   1.289   .     A
C1343  C1345   1.456   .     S
C1344  O1382   1.290   .     A
C1344  C1346   1.456   .     S
C1344  O1380   1.291   .     A
C1345  C1349   1.399   .     A
C1345  C1351   1.393   .     A
C1346  C1350   1.400   .     A
C1346  C1352   1.390   .     A
C1347  C1349   1.392   .     A
C1347  C1355   1.403   .     A
C1347  H1365   1.083   .     S
C1348  H1366   1.084   .     S
C1348  C1350   1.396   .     A
C1348  C1356   1.405   .     A
C1349  H1364   1.083   .     S
C1350  H1363   1.083   .     S
C1351  C1353   1.394   .     A
C1351  H1362   1.076   .     S
C1352  C1354   1.392   .     A
C1352  H1361   1.079   .     S
C1353  C1355   1.419   .     A
C1353  C1357   1.417   .     A
C1354  C1358   1.414   .     A
C1354  C1356   1.416   .     A
C1355  C629    1.391   1_556 S
C1357  C656    1.412   1_556 S
N1373  Zn1383  2.006   .     S
N1374  Zn1384  2.006   .     S
O1375  Zn1383  2.016   .     S
O1376  Zn1384  2.016   .     S
O1377  Zn1384  2.016   .     S
O1378  Zn1383  2.016   .     S
O1379  Zn1383  1.964   .     S
O1380  Zn1384  1.964   .     S
O1381  Zn1384  1.916   .     S
O1382  Zn1383  1.916   .     S
S1385  O1386   1.503   .     D
S1385  O1387   1.503   .     D
S1385  O1388   1.683   .     S
O1388  H1389   0.990   .     S
S1390  O1393   1.682   .     S
S1390  O1392   1.503   .     D
S1390  O1391   1.503   .     D
O1393  H1394   0.990   .     S
S1395  O1397   1.503   .     D
S1395  O1398   1.683   .     S
S1395  O1396   1.503   .     D
O1398  H1399   0.990   .     S
S1400  O1403   1.684   .     S
S1400  O1402   1.503   .     D
S1400  O1401   1.503   .     D
O1403  H1404   0.991   .     S
