data_str_m3_o1_o16_pcu_sym.167
_audit_creation_date              2020-01-03
_audit_creation_method            'Materials Studio'
_symmetry_space_group_name_H-M    'P1'
_symmetry_Int_Tables_number       1
_symmetry_cell_setting            triclinic
loop_
_symmetry_equiv_pos_as_xyz
  x,y,z
_cell_length_a                    29.5731
_cell_length_b                    32.1270
_cell_length_c                    26.1105
_cell_angle_alpha                 90.0180
_cell_angle_beta                  71.6122
_cell_angle_gamma                 90.3625
loop_
_atom_site_label
_atom_site_type_symbol
_atom_site_fract_x
_atom_site_fract_y
_atom_site_fract_z
_atom_site_U_iso_or_equiv
_atom_site_adp_type
_atom_site_occupancy
O1     O     0.12846   0.22775   0.25000   0.00000  Uiso   1.00
O2     O     0.20490   0.22774   0.25000   0.00000  Uiso   1.00
C3     C     0.16679   0.24668   0.24988   0.00000  Uiso   1.00
O4     O     0.10947   0.16666   0.32681   0.00000  Uiso   1.00
O5     O     0.18591   0.16665   0.32681   0.00000  Uiso   1.00
C6     C     0.14194   0.15517   0.34836   0.00000  Uiso   1.00
Zn7    Zn    0.11562   0.16667   0.25000   0.00000  Uiso   1.00
Zn8    Zn    0.21771   0.16666   0.25000   0.00000  Uiso   1.00
O9     O     0.12843   0.10559   0.24999   0.00000  Uiso   1.00
O10    O     0.20488   0.10558   0.24999   0.00000  Uiso   1.00
O11    O     0.14742   0.16668   0.17319   0.00000  Uiso   1.00
O12    O     0.22387   0.16667   0.17319   0.00000  Uiso   1.00
C13    C     0.16671   0.08664   0.24941   0.00000  Uiso   1.00
C14    C     0.19266   0.16664   0.14794   0.00000  Uiso   1.00
C15    C     0.26734   0.17067   0.00139   0.00000  Uiso   1.00
H16    H     0.27867   0.18677   0.07682   0.00000  Uiso   1.00
H17    H     0.28428   0.14276   0.39780   0.00000  Uiso   1.00
C18    C     0.20786   0.16345   0.08947   0.00000  Uiso   1.00
C19    C     0.08239   0.12226   0.43149   0.00000  Uiso   1.00
C20    C     0.06952   0.11864   0.48774   0.00000  Uiso   1.00
C21    C     0.10221   0.12730   0.01475   0.00000  Uiso   1.00
C22    C     0.15075   0.13510   0.48573   0.00000  Uiso   1.00
C23    C     0.16457   0.13359   0.42914   0.00000  Uiso   1.00
C24    C     0.18605   0.14553   0.01024   0.00000  Uiso   1.00
C25    C     0.23409   0.15353   0.47782   0.00000  Uiso   1.00
C26    C     0.24760   0.14248   0.42332   0.00000  Uiso   1.00
C27    C     0.21353   0.13008   0.40038   0.00000  Uiso   1.00
C28    C     0.17450   0.14971   0.06581   0.00000  Uiso   1.00
C29    C     0.25385   0.17441   0.05767   0.00000  Uiso   1.00
C30    C     0.12920   0.13598   0.40295   0.00000  Uiso   1.00
H31    H     0.13945   0.14202   0.09199   0.00000  Uiso   1.00
H32    H     0.08837   0.12577   0.05808   0.00000  Uiso   1.00
H33    H     0.03369   0.10947   0.01128   0.00000  Uiso   1.00
H34    H     0.22601   0.11887   0.35925   0.00000  Uiso   1.00
C35    C     0.21030   0.31226   0.23346   0.00000  Uiso   1.00
H36    H     0.24407   0.29614   0.22067   0.00000  Uiso   1.00
C37    C     0.21025   0.02160   0.23345   0.00000  Uiso   1.00
H38    H     0.24404   0.03812   0.22112   0.00000  Uiso   1.00
C39    C     0.16673   0.04249   0.24872   0.00000  Uiso   1.00
C40    C     0.12331   0.02104   0.26348   0.00000  Uiso   1.00
H41    H     0.08948   0.03706   0.27514   0.00000  Uiso   1.00
C42    C     0.12338   0.31174   0.26405   0.00000  Uiso   1.00
H43    H     0.08956   0.29525   0.27637   0.00000  Uiso   1.00
C44    C     0.16688   0.29083   0.24930   0.00000  Uiso   1.00
C45    C     0.31611   0.13567   0.22492   0.00000  Uiso   1.00
H46    H     0.30348   0.11092   0.20475   0.00000  Uiso   1.00
C47    C     0.03069   0.13569   0.22494   0.00000  Uiso   1.00
H48    H     0.05423   0.11093   0.20477   0.00000  Uiso   1.00
N49    N     0.04760   0.16668   0.25001   0.00000  Uiso   1.00
C50    C     0.01762   0.19765   0.27483   0.00000  Uiso   1.00
H51    H     0.03070   0.22221   0.29492   0.00000  Uiso   1.00
C52    C     0.30303   0.19786   0.27513   0.00000  Uiso   1.00
N53    N     0.28573   0.16665   0.25000   0.00000  Uiso   1.00
N54    N     0.27341   0.23148   0.30164   0.00000  Uiso   1.00
O55    O     0.24037   0.22474   0.34735   0.00000  Uiso   1.00
O56    O     0.28821   0.26949   0.28921   0.00000  Uiso   1.00
C57    C     0.31451   0.18771   0.46839   0.00000  Uiso   1.00
H58    H     0.32400   0.19033   0.42493   0.00000  Uiso   1.00
O59    O     0.00995   0.20028   0.48972   0.00000  Uiso   1.00
N60    N     0.04952   0.10798   0.40443   0.00000  Uiso   1.00
O61    O     0.00618   0.09771   0.43262   0.00000  Uiso   1.00
O62    O     0.06534   0.09494   0.35488   0.00000  Uiso   1.00
O63    O     0.46179   0.22775   0.25000   0.00000  Uiso   1.00
O64    O     0.53823   0.22774   0.25000   0.00000  Uiso   1.00
C65    C     0.50012   0.24668   0.24988   0.00000  Uiso   1.00
O66    O     0.44280   0.16666   0.32681   0.00000  Uiso   1.00
O67    O     0.51924   0.16665   0.32681   0.00000  Uiso   1.00
C68    C     0.47528   0.15517   0.34836   0.00000  Uiso   1.00
Zn69   Zn    0.44896   0.16667   0.25000   0.00000  Uiso   1.00
Zn70   Zn    0.55104   0.16666   0.25000   0.00000  Uiso   1.00
O71    O     0.46177   0.10559   0.24999   0.00000  Uiso   1.00
O72    O     0.53821   0.10558   0.24999   0.00000  Uiso   1.00
O73    O     0.48076   0.16668   0.17319   0.00000  Uiso   1.00
O74    O     0.55720   0.16667   0.17319   0.00000  Uiso   1.00
C75    C     0.50004   0.08664   0.24941   0.00000  Uiso   1.00
C76    C     0.52599   0.16664   0.14794   0.00000  Uiso   1.00
C77    C     0.60067   0.17067   0.00139   0.00000  Uiso   1.00
H78    H     0.61201   0.18677   0.07682   0.00000  Uiso   1.00
H79    H     0.61762   0.14276   0.39780   0.00000  Uiso   1.00
C80    C     0.54119   0.16345   0.08947   0.00000  Uiso   1.00
C81    C     0.41572   0.12226   0.43149   0.00000  Uiso   1.00
C82    C     0.40286   0.11864   0.48774   0.00000  Uiso   1.00
C83    C     0.43554   0.12730   0.01475   0.00000  Uiso   1.00
C84    C     0.48409   0.13510   0.48573   0.00000  Uiso   1.00
C85    C     0.49791   0.13359   0.42914   0.00000  Uiso   1.00
C86    C     0.51939   0.14553   0.01024   0.00000  Uiso   1.00
C87    C     0.56743   0.15353   0.47782   0.00000  Uiso   1.00
C88    C     0.58093   0.14248   0.42332   0.00000  Uiso   1.00
C89    C     0.54686   0.13008   0.40038   0.00000  Uiso   1.00
C90    C     0.50783   0.14971   0.06581   0.00000  Uiso   1.00
C91    C     0.58718   0.17441   0.05767   0.00000  Uiso   1.00
C92    C     0.46254   0.13598   0.40295   0.00000  Uiso   1.00
H93    H     0.47278   0.14202   0.09199   0.00000  Uiso   1.00
H94    H     0.42170   0.12577   0.05808   0.00000  Uiso   1.00
H95    H     0.36702   0.10947   0.01128   0.00000  Uiso   1.00
H96    H     0.55935   0.11887   0.35925   0.00000  Uiso   1.00
C97    C     0.54364   0.31226   0.23346   0.00000  Uiso   1.00
H98    H     0.57740   0.29614   0.22067   0.00000  Uiso   1.00
C99    C     0.54358   0.02160   0.23345   0.00000  Uiso   1.00
H100   H     0.57737   0.03812   0.22112   0.00000  Uiso   1.00
C101   C     0.50007   0.04249   0.24872   0.00000  Uiso   1.00
C102   C     0.45665   0.02104   0.26348   0.00000  Uiso   1.00
H103   H     0.42281   0.03706   0.27514   0.00000  Uiso   1.00
C104   C     0.45671   0.31174   0.26405   0.00000  Uiso   1.00
H105   H     0.42289   0.29525   0.27637   0.00000  Uiso   1.00
C106   C     0.50022   0.29083   0.24930   0.00000  Uiso   1.00
C107   C     0.64945   0.13567   0.22492   0.00000  Uiso   1.00
H108   H     0.63681   0.11092   0.20475   0.00000  Uiso   1.00
C109   C     0.36403   0.13569   0.22494   0.00000  Uiso   1.00
H110   H     0.38756   0.11093   0.20477   0.00000  Uiso   1.00
N111   N     0.38093   0.16668   0.25001   0.00000  Uiso   1.00
C112   C     0.35096   0.19765   0.27483   0.00000  Uiso   1.00
H113   H     0.36404   0.22221   0.29492   0.00000  Uiso   1.00
C114   C     0.63637   0.19786   0.27513   0.00000  Uiso   1.00
N115   N     0.61906   0.16665   0.25000   0.00000  Uiso   1.00
N116   N     0.60675   0.23148   0.30164   0.00000  Uiso   1.00
O117   O     0.57371   0.22474   0.34735   0.00000  Uiso   1.00
O118   O     0.62155   0.26949   0.28921   0.00000  Uiso   1.00
C119   C     0.64784   0.18771   0.46839   0.00000  Uiso   1.00
H120   H     0.65734   0.19033   0.42493   0.00000  Uiso   1.00
O121   O     0.34329   0.20028   0.48972   0.00000  Uiso   1.00
N122   N     0.38286   0.10798   0.40443   0.00000  Uiso   1.00
O123   O     0.33952   0.09771   0.43262   0.00000  Uiso   1.00
O124   O     0.39868   0.09494   0.35488   0.00000  Uiso   1.00
O125   O     0.79512   0.22775   0.25000   0.00000  Uiso   1.00
O126   O     0.87157   0.22774   0.25000   0.00000  Uiso   1.00
C127   C     0.83346   0.24668   0.24988   0.00000  Uiso   1.00
O128   O     0.77613   0.16666   0.32681   0.00000  Uiso   1.00
O129   O     0.85258   0.16665   0.32681   0.00000  Uiso   1.00
C130   C     0.80861   0.15517   0.34836   0.00000  Uiso   1.00
Zn131  Zn    0.78229   0.16667   0.25000   0.00000  Uiso   1.00
Zn132  Zn    0.88438   0.16666   0.25000   0.00000  Uiso   1.00
O133   O     0.79510   0.10559   0.24999   0.00000  Uiso   1.00
O134   O     0.87154   0.10558   0.24999   0.00000  Uiso   1.00
O135   O     0.81409   0.16668   0.17319   0.00000  Uiso   1.00
O136   O     0.89053   0.16667   0.17319   0.00000  Uiso   1.00
C137   C     0.83337   0.08664   0.24941   0.00000  Uiso   1.00
C138   C     0.85932   0.16664   0.14794   0.00000  Uiso   1.00
C139   C     0.93401   0.17067   0.00139   0.00000  Uiso   1.00
H140   H     0.94534   0.18677   0.07682   0.00000  Uiso   1.00
H141   H     0.95095   0.14276   0.39780   0.00000  Uiso   1.00
C142   C     0.87453   0.16345   0.08947   0.00000  Uiso   1.00
C143   C     0.74905   0.12226   0.43149   0.00000  Uiso   1.00
C144   C     0.73619   0.11864   0.48774   0.00000  Uiso   1.00
C145   C     0.76888   0.12730   0.01475   0.00000  Uiso   1.00
C146   C     0.81742   0.13510   0.48573   0.00000  Uiso   1.00
C147   C     0.83124   0.13359   0.42914   0.00000  Uiso   1.00
C148   C     0.85272   0.14553   0.01024   0.00000  Uiso   1.00
C149   C     0.90076   0.15353   0.47782   0.00000  Uiso   1.00
C150   C     0.91426   0.14248   0.42332   0.00000  Uiso   1.00
C151   C     0.88019   0.13008   0.40038   0.00000  Uiso   1.00
C152   C     0.84117   0.14971   0.06581   0.00000  Uiso   1.00
C153   C     0.92051   0.17441   0.05767   0.00000  Uiso   1.00
C154   C     0.79587   0.13598   0.40295   0.00000  Uiso   1.00
H155   H     0.80611   0.14202   0.09199   0.00000  Uiso   1.00
H156   H     0.75504   0.12577   0.05808   0.00000  Uiso   1.00
H157   H     0.70036   0.10947   0.01128   0.00000  Uiso   1.00
H158   H     0.89268   0.11887   0.35925   0.00000  Uiso   1.00
C159   C     0.87697   0.31226   0.23346   0.00000  Uiso   1.00
H160   H     0.91073   0.29614   0.22067   0.00000  Uiso   1.00
C161   C     0.87692   0.02160   0.23345   0.00000  Uiso   1.00
H162   H     0.91070   0.03812   0.22112   0.00000  Uiso   1.00
C163   C     0.83340   0.04249   0.24872   0.00000  Uiso   1.00
C164   C     0.78998   0.02104   0.26348   0.00000  Uiso   1.00
H165   H     0.75614   0.03706   0.27514   0.00000  Uiso   1.00
C166   C     0.79004   0.31174   0.26405   0.00000  Uiso   1.00
H167   H     0.75623   0.29525   0.27637   0.00000  Uiso   1.00
C168   C     0.83355   0.29083   0.24930   0.00000  Uiso   1.00
C169   C     0.98278   0.13567   0.22492   0.00000  Uiso   1.00
H170   H     0.97015   0.11092   0.20475   0.00000  Uiso   1.00
C171   C     0.69736   0.13569   0.22494   0.00000  Uiso   1.00
H172   H     0.72089   0.11093   0.20477   0.00000  Uiso   1.00
N173   N     0.71426   0.16668   0.25001   0.00000  Uiso   1.00
C174   C     0.68429   0.19765   0.27483   0.00000  Uiso   1.00
H175   H     0.69737   0.22221   0.29492   0.00000  Uiso   1.00
C176   C     0.96970   0.19786   0.27513   0.00000  Uiso   1.00
N177   N     0.95239   0.16665   0.25000   0.00000  Uiso   1.00
N178   N     0.94008   0.23148   0.30164   0.00000  Uiso   1.00
O179   O     0.90704   0.22474   0.34735   0.00000  Uiso   1.00
O180   O     0.95488   0.26949   0.28921   0.00000  Uiso   1.00
C181   C     0.98118   0.18771   0.46839   0.00000  Uiso   1.00
H182   H     0.99067   0.19033   0.42493   0.00000  Uiso   1.00
O183   O     0.67662   0.20028   0.48972   0.00000  Uiso   1.00
N184   N     0.71619   0.10798   0.40443   0.00000  Uiso   1.00
O185   O     0.67285   0.09771   0.43262   0.00000  Uiso   1.00
O186   O     0.73201   0.09494   0.35488   0.00000  Uiso   1.00
O187   O     0.12846   0.56108   0.25000   0.00000  Uiso   1.00
O188   O     0.20490   0.56107   0.25000   0.00000  Uiso   1.00
C189   C     0.16679   0.58002   0.24988   0.00000  Uiso   1.00
O190   O     0.10947   0.50000   0.32681   0.00000  Uiso   1.00
O191   O     0.18591   0.49999   0.32681   0.00000  Uiso   1.00
C192   C     0.14194   0.48850   0.34836   0.00000  Uiso   1.00
Zn193  Zn    0.11562   0.50001   0.25000   0.00000  Uiso   1.00
Zn194  Zn    0.21771   0.49999   0.25000   0.00000  Uiso   1.00
O195   O     0.12843   0.43893   0.24999   0.00000  Uiso   1.00
O196   O     0.20488   0.43892   0.24999   0.00000  Uiso   1.00
O197   O     0.14742   0.50001   0.17319   0.00000  Uiso   1.00
O198   O     0.22387   0.50000   0.17319   0.00000  Uiso   1.00
C199   C     0.16671   0.41997   0.24941   0.00000  Uiso   1.00
C200   C     0.19266   0.49997   0.14794   0.00000  Uiso   1.00
C201   C     0.26734   0.50401   0.00139   0.00000  Uiso   1.00
H202   H     0.27867   0.52010   0.07682   0.00000  Uiso   1.00
H203   H     0.28428   0.47609   0.39780   0.00000  Uiso   1.00
C204   C     0.20786   0.49678   0.08947   0.00000  Uiso   1.00
C205   C     0.08239   0.45559   0.43149   0.00000  Uiso   1.00
C206   C     0.06952   0.45198   0.48774   0.00000  Uiso   1.00
C207   C     0.10221   0.46063   0.01475   0.00000  Uiso   1.00
C208   C     0.15075   0.46843   0.48573   0.00000  Uiso   1.00
C209   C     0.16457   0.46692   0.42914   0.00000  Uiso   1.00
C210   C     0.18605   0.47886   0.01024   0.00000  Uiso   1.00
C211   C     0.23409   0.48687   0.47782   0.00000  Uiso   1.00
C212   C     0.24760   0.47581   0.42332   0.00000  Uiso   1.00
C213   C     0.21353   0.46341   0.40038   0.00000  Uiso   1.00
C214   C     0.17450   0.48304   0.06581   0.00000  Uiso   1.00
C215   C     0.25385   0.50775   0.05767   0.00000  Uiso   1.00
C216   C     0.12920   0.46931   0.40295   0.00000  Uiso   1.00
H217   H     0.13945   0.47535   0.09199   0.00000  Uiso   1.00
H218   H     0.08837   0.45910   0.05808   0.00000  Uiso   1.00
H219   H     0.03369   0.44281   0.01128   0.00000  Uiso   1.00
H220   H     0.22601   0.45220   0.35925   0.00000  Uiso   1.00
C221   C     0.21030   0.64559   0.23346   0.00000  Uiso   1.00
H222   H     0.24407   0.62947   0.22067   0.00000  Uiso   1.00
C223   C     0.21025   0.35493   0.23345   0.00000  Uiso   1.00
H224   H     0.24404   0.37146   0.22112   0.00000  Uiso   1.00
C225   C     0.16673   0.37582   0.24872   0.00000  Uiso   1.00
C226   C     0.12331   0.35437   0.26348   0.00000  Uiso   1.00
H227   H     0.08948   0.37040   0.27514   0.00000  Uiso   1.00
C228   C     0.12338   0.64507   0.26405   0.00000  Uiso   1.00
H229   H     0.08956   0.62859   0.27637   0.00000  Uiso   1.00
C230   C     0.16688   0.62417   0.24930   0.00000  Uiso   1.00
C231   C     0.31611   0.46901   0.22492   0.00000  Uiso   1.00
H232   H     0.30348   0.44425   0.20475   0.00000  Uiso   1.00
C233   C     0.03069   0.46903   0.22494   0.00000  Uiso   1.00
H234   H     0.05423   0.44426   0.20477   0.00000  Uiso   1.00
N235   N     0.04760   0.50001   0.25001   0.00000  Uiso   1.00
C236   C     0.01762   0.53098   0.27483   0.00000  Uiso   1.00
H237   H     0.03070   0.55555   0.29492   0.00000  Uiso   1.00
C238   C     0.30303   0.53120   0.27513   0.00000  Uiso   1.00
N239   N     0.28573   0.49998   0.25000   0.00000  Uiso   1.00
N240   N     0.27341   0.56481   0.30164   0.00000  Uiso   1.00
O241   O     0.24037   0.55808   0.34735   0.00000  Uiso   1.00
O242   O     0.28821   0.60282   0.28921   0.00000  Uiso   1.00
C243   C     0.31451   0.52104   0.46839   0.00000  Uiso   1.00
H244   H     0.32400   0.52367   0.42493   0.00000  Uiso   1.00
O245   O     0.00995   0.53362   0.48972   0.00000  Uiso   1.00
N246   N     0.04952   0.44132   0.40443   0.00000  Uiso   1.00
O247   O     0.00618   0.43105   0.43262   0.00000  Uiso   1.00
O248   O     0.06534   0.42828   0.35488   0.00000  Uiso   1.00
O249   O     0.46179   0.56108   0.25000   0.00000  Uiso   1.00
O250   O     0.53823   0.56107   0.25000   0.00000  Uiso   1.00
C251   C     0.50012   0.58002   0.24988   0.00000  Uiso   1.00
O252   O     0.44280   0.50000   0.32681   0.00000  Uiso   1.00
O253   O     0.51924   0.49999   0.32681   0.00000  Uiso   1.00
C254   C     0.47528   0.48850   0.34836   0.00000  Uiso   1.00
Zn255  Zn    0.44896   0.50001   0.25000   0.00000  Uiso   1.00
Zn256  Zn    0.55104   0.49999   0.25000   0.00000  Uiso   1.00
O257   O     0.46177   0.43893   0.24999   0.00000  Uiso   1.00
O258   O     0.53821   0.43892   0.24999   0.00000  Uiso   1.00
O259   O     0.48076   0.50001   0.17319   0.00000  Uiso   1.00
O260   O     0.55720   0.50000   0.17319   0.00000  Uiso   1.00
C261   C     0.50004   0.41997   0.24941   0.00000  Uiso   1.00
C262   C     0.52599   0.49997   0.14794   0.00000  Uiso   1.00
C263   C     0.60067   0.50401   0.00139   0.00000  Uiso   1.00
H264   H     0.61201   0.52010   0.07682   0.00000  Uiso   1.00
H265   H     0.61762   0.47609   0.39780   0.00000  Uiso   1.00
C266   C     0.54119   0.49678   0.08947   0.00000  Uiso   1.00
C267   C     0.41572   0.45559   0.43149   0.00000  Uiso   1.00
C268   C     0.40286   0.45198   0.48774   0.00000  Uiso   1.00
C269   C     0.43554   0.46063   0.01475   0.00000  Uiso   1.00
C270   C     0.48409   0.46843   0.48573   0.00000  Uiso   1.00
C271   C     0.49791   0.46692   0.42914   0.00000  Uiso   1.00
C272   C     0.51939   0.47886   0.01024   0.00000  Uiso   1.00
C273   C     0.56743   0.48687   0.47782   0.00000  Uiso   1.00
C274   C     0.58093   0.47581   0.42332   0.00000  Uiso   1.00
C275   C     0.54686   0.46341   0.40038   0.00000  Uiso   1.00
C276   C     0.50783   0.48304   0.06581   0.00000  Uiso   1.00
C277   C     0.58718   0.50775   0.05767   0.00000  Uiso   1.00
C278   C     0.46254   0.46931   0.40295   0.00000  Uiso   1.00
H279   H     0.47278   0.47535   0.09199   0.00000  Uiso   1.00
H280   H     0.42170   0.45910   0.05808   0.00000  Uiso   1.00
H281   H     0.36702   0.44281   0.01128   0.00000  Uiso   1.00
H282   H     0.55935   0.45220   0.35925   0.00000  Uiso   1.00
C283   C     0.54364   0.64559   0.23346   0.00000  Uiso   1.00
H284   H     0.57740   0.62947   0.22067   0.00000  Uiso   1.00
C285   C     0.54358   0.35493   0.23345   0.00000  Uiso   1.00
H286   H     0.57737   0.37146   0.22112   0.00000  Uiso   1.00
C287   C     0.50007   0.37582   0.24872   0.00000  Uiso   1.00
C288   C     0.45665   0.35437   0.26348   0.00000  Uiso   1.00
H289   H     0.42281   0.37040   0.27514   0.00000  Uiso   1.00
C290   C     0.45671   0.64507   0.26405   0.00000  Uiso   1.00
H291   H     0.42289   0.62859   0.27637   0.00000  Uiso   1.00
C292   C     0.50022   0.62417   0.24930   0.00000  Uiso   1.00
C293   C     0.64945   0.46901   0.22492   0.00000  Uiso   1.00
H294   H     0.63681   0.44425   0.20475   0.00000  Uiso   1.00
C295   C     0.36403   0.46903   0.22494   0.00000  Uiso   1.00
H296   H     0.38756   0.44426   0.20477   0.00000  Uiso   1.00
N297   N     0.38093   0.50001   0.25001   0.00000  Uiso   1.00
C298   C     0.35096   0.53098   0.27483   0.00000  Uiso   1.00
H299   H     0.36404   0.55555   0.29492   0.00000  Uiso   1.00
C300   C     0.63637   0.53120   0.27513   0.00000  Uiso   1.00
N301   N     0.61906   0.49998   0.25000   0.00000  Uiso   1.00
N302   N     0.60675   0.56481   0.30164   0.00000  Uiso   1.00
O303   O     0.57371   0.55808   0.34735   0.00000  Uiso   1.00
O304   O     0.62155   0.60282   0.28921   0.00000  Uiso   1.00
C305   C     0.64784   0.52104   0.46839   0.00000  Uiso   1.00
H306   H     0.65734   0.52367   0.42493   0.00000  Uiso   1.00
O307   O     0.34329   0.53362   0.48972   0.00000  Uiso   1.00
N308   N     0.38286   0.44132   0.40443   0.00000  Uiso   1.00
O309   O     0.33952   0.43105   0.43262   0.00000  Uiso   1.00
O310   O     0.39868   0.42828   0.35488   0.00000  Uiso   1.00
O311   O     0.79512   0.56108   0.25000   0.00000  Uiso   1.00
O312   O     0.87157   0.56107   0.25000   0.00000  Uiso   1.00
C313   C     0.83346   0.58002   0.24988   0.00000  Uiso   1.00
O314   O     0.77613   0.50000   0.32681   0.00000  Uiso   1.00
O315   O     0.85258   0.49999   0.32681   0.00000  Uiso   1.00
C316   C     0.80861   0.48850   0.34836   0.00000  Uiso   1.00
Zn317  Zn    0.78229   0.50001   0.25000   0.00000  Uiso   1.00
Zn318  Zn    0.88438   0.49999   0.25000   0.00000  Uiso   1.00
O319   O     0.79510   0.43893   0.24999   0.00000  Uiso   1.00
O320   O     0.87154   0.43892   0.24999   0.00000  Uiso   1.00
O321   O     0.81409   0.50001   0.17319   0.00000  Uiso   1.00
O322   O     0.89053   0.50000   0.17319   0.00000  Uiso   1.00
C323   C     0.83337   0.41997   0.24941   0.00000  Uiso   1.00
C324   C     0.85932   0.49997   0.14794   0.00000  Uiso   1.00
C325   C     0.93401   0.50401   0.00139   0.00000  Uiso   1.00
H326   H     0.94534   0.52010   0.07682   0.00000  Uiso   1.00
H327   H     0.95095   0.47609   0.39780   0.00000  Uiso   1.00
C328   C     0.87453   0.49678   0.08947   0.00000  Uiso   1.00
C329   C     0.74905   0.45559   0.43149   0.00000  Uiso   1.00
C330   C     0.73619   0.45198   0.48774   0.00000  Uiso   1.00
C331   C     0.76888   0.46063   0.01475   0.00000  Uiso   1.00
C332   C     0.81742   0.46843   0.48573   0.00000  Uiso   1.00
C333   C     0.83124   0.46692   0.42914   0.00000  Uiso   1.00
C334   C     0.85272   0.47886   0.01024   0.00000  Uiso   1.00
C335   C     0.90076   0.48687   0.47782   0.00000  Uiso   1.00
C336   C     0.91426   0.47581   0.42332   0.00000  Uiso   1.00
C337   C     0.88019   0.46341   0.40038   0.00000  Uiso   1.00
C338   C     0.84117   0.48304   0.06581   0.00000  Uiso   1.00
C339   C     0.92051   0.50775   0.05767   0.00000  Uiso   1.00
C340   C     0.79587   0.46931   0.40295   0.00000  Uiso   1.00
H341   H     0.80611   0.47535   0.09199   0.00000  Uiso   1.00
H342   H     0.75504   0.45910   0.05808   0.00000  Uiso   1.00
H343   H     0.70036   0.44281   0.01128   0.00000  Uiso   1.00
H344   H     0.89268   0.45220   0.35925   0.00000  Uiso   1.00
C345   C     0.87697   0.64559   0.23346   0.00000  Uiso   1.00
H346   H     0.91073   0.62947   0.22067   0.00000  Uiso   1.00
C347   C     0.87692   0.35493   0.23345   0.00000  Uiso   1.00
H348   H     0.91070   0.37146   0.22112   0.00000  Uiso   1.00
C349   C     0.83340   0.37582   0.24872   0.00000  Uiso   1.00
C350   C     0.78998   0.35437   0.26348   0.00000  Uiso   1.00
H351   H     0.75614   0.37040   0.27514   0.00000  Uiso   1.00
C352   C     0.79004   0.64507   0.26405   0.00000  Uiso   1.00
H353   H     0.75623   0.62859   0.27637   0.00000  Uiso   1.00
C354   C     0.83355   0.62417   0.24930   0.00000  Uiso   1.00
C355   C     0.98278   0.46901   0.22492   0.00000  Uiso   1.00
H356   H     0.97015   0.44425   0.20475   0.00000  Uiso   1.00
C357   C     0.69736   0.46903   0.22494   0.00000  Uiso   1.00
H358   H     0.72089   0.44426   0.20477   0.00000  Uiso   1.00
N359   N     0.71426   0.50001   0.25001   0.00000  Uiso   1.00
C360   C     0.68429   0.53098   0.27483   0.00000  Uiso   1.00
H361   H     0.69737   0.55555   0.29492   0.00000  Uiso   1.00
C362   C     0.96970   0.53120   0.27513   0.00000  Uiso   1.00
N363   N     0.95239   0.49998   0.25000   0.00000  Uiso   1.00
N364   N     0.94008   0.56481   0.30164   0.00000  Uiso   1.00
O365   O     0.90704   0.55808   0.34735   0.00000  Uiso   1.00
O366   O     0.95488   0.60282   0.28921   0.00000  Uiso   1.00
C367   C     0.98118   0.52104   0.46839   0.00000  Uiso   1.00
H368   H     0.99067   0.52367   0.42493   0.00000  Uiso   1.00
O369   O     0.67662   0.53362   0.48972   0.00000  Uiso   1.00
N370   N     0.71619   0.44132   0.40443   0.00000  Uiso   1.00
O371   O     0.67285   0.43105   0.43262   0.00000  Uiso   1.00
O372   O     0.73201   0.42828   0.35488   0.00000  Uiso   1.00
O373   O     0.12846   0.89442   0.25000   0.00000  Uiso   1.00
O374   O     0.20490   0.89441   0.25000   0.00000  Uiso   1.00
C375   C     0.16679   0.91335   0.24988   0.00000  Uiso   1.00
O376   O     0.10947   0.83333   0.32681   0.00000  Uiso   1.00
O377   O     0.18591   0.83332   0.32681   0.00000  Uiso   1.00
C378   C     0.14194   0.82183   0.34836   0.00000  Uiso   1.00
Zn379  Zn    0.11562   0.83334   0.25000   0.00000  Uiso   1.00
Zn380  Zn    0.21771   0.83333   0.25000   0.00000  Uiso   1.00
O381   O     0.12843   0.77226   0.24999   0.00000  Uiso   1.00
O382   O     0.20488   0.77225   0.24999   0.00000  Uiso   1.00
O383   O     0.14742   0.83335   0.17319   0.00000  Uiso   1.00
O384   O     0.22387   0.83334   0.17319   0.00000  Uiso   1.00
C385   C     0.16671   0.75330   0.24941   0.00000  Uiso   1.00
C386   C     0.19266   0.83331   0.14794   0.00000  Uiso   1.00
C387   C     0.26734   0.83734   0.00139   0.00000  Uiso   1.00
H388   H     0.27867   0.85344   0.07682   0.00000  Uiso   1.00
H389   H     0.28428   0.80943   0.39780   0.00000  Uiso   1.00
C390   C     0.20786   0.83011   0.08947   0.00000  Uiso   1.00
C391   C     0.08239   0.78893   0.43149   0.00000  Uiso   1.00
C392   C     0.06952   0.78531   0.48774   0.00000  Uiso   1.00
C393   C     0.10221   0.79397   0.01475   0.00000  Uiso   1.00
C394   C     0.15075   0.80177   0.48573   0.00000  Uiso   1.00
C395   C     0.16457   0.80025   0.42914   0.00000  Uiso   1.00
C396   C     0.18605   0.81220   0.01024   0.00000  Uiso   1.00
C397   C     0.23409   0.82020   0.47782   0.00000  Uiso   1.00
C398   C     0.24760   0.80915   0.42332   0.00000  Uiso   1.00
C399   C     0.21353   0.79675   0.40038   0.00000  Uiso   1.00
C400   C     0.17450   0.81637   0.06581   0.00000  Uiso   1.00
C401   C     0.25385   0.84108   0.05767   0.00000  Uiso   1.00
C402   C     0.12920   0.80265   0.40295   0.00000  Uiso   1.00
H403   H     0.13945   0.80869   0.09199   0.00000  Uiso   1.00
H404   H     0.08837   0.79243   0.05808   0.00000  Uiso   1.00
H405   H     0.03369   0.77614   0.01128   0.00000  Uiso   1.00
H406   H     0.22601   0.78553   0.35925   0.00000  Uiso   1.00
C407   C     0.21030   0.97892   0.23346   0.00000  Uiso   1.00
H408   H     0.24407   0.96281   0.22067   0.00000  Uiso   1.00
C409   C     0.21025   0.68826   0.23345   0.00000  Uiso   1.00
H410   H     0.24404   0.70479   0.22112   0.00000  Uiso   1.00
C411   C     0.16673   0.70916   0.24872   0.00000  Uiso   1.00
C412   C     0.12331   0.68771   0.26348   0.00000  Uiso   1.00
H413   H     0.08948   0.70373   0.27514   0.00000  Uiso   1.00
C414   C     0.12338   0.97840   0.26405   0.00000  Uiso   1.00
H415   H     0.08956   0.96192   0.27637   0.00000  Uiso   1.00
C416   C     0.16688   0.95750   0.24930   0.00000  Uiso   1.00
C417   C     0.31611   0.80234   0.22492   0.00000  Uiso   1.00
H418   H     0.30348   0.77759   0.20475   0.00000  Uiso   1.00
C419   C     0.03069   0.80236   0.22494   0.00000  Uiso   1.00
H420   H     0.05423   0.77760   0.20477   0.00000  Uiso   1.00
N421   N     0.04760   0.83334   0.25001   0.00000  Uiso   1.00
C422   C     0.01762   0.86432   0.27483   0.00000  Uiso   1.00
H423   H     0.03070   0.88888   0.29492   0.00000  Uiso   1.00
C424   C     0.30303   0.86453   0.27513   0.00000  Uiso   1.00
N425   N     0.28573   0.83331   0.25000   0.00000  Uiso   1.00
N426   N     0.27341   0.89814   0.30164   0.00000  Uiso   1.00
O427   O     0.24037   0.89141   0.34735   0.00000  Uiso   1.00
O428   O     0.28821   0.93616   0.28921   0.00000  Uiso   1.00
C429   C     0.31451   0.85438   0.46839   0.00000  Uiso   1.00
H430   H     0.32400   0.85700   0.42493   0.00000  Uiso   1.00
O431   O     0.00995   0.86695   0.48972   0.00000  Uiso   1.00
N432   N     0.04952   0.77465   0.40443   0.00000  Uiso   1.00
O433   O     0.00618   0.76438   0.43262   0.00000  Uiso   1.00
O434   O     0.06534   0.76161   0.35488   0.00000  Uiso   1.00
O435   O     0.46179   0.89442   0.25000   0.00000  Uiso   1.00
O436   O     0.53823   0.89441   0.25000   0.00000  Uiso   1.00
C437   C     0.50012   0.91335   0.24988   0.00000  Uiso   1.00
O438   O     0.44280   0.83333   0.32681   0.00000  Uiso   1.00
O439   O     0.51924   0.83332   0.32681   0.00000  Uiso   1.00
C440   C     0.47528   0.82183   0.34836   0.00000  Uiso   1.00
Zn441  Zn    0.44896   0.83334   0.25000   0.00000  Uiso   1.00
Zn442  Zn    0.55104   0.83333   0.25000   0.00000  Uiso   1.00
O443   O     0.46177   0.77226   0.24999   0.00000  Uiso   1.00
O444   O     0.53821   0.77225   0.24999   0.00000  Uiso   1.00
O445   O     0.48076   0.83335   0.17319   0.00000  Uiso   1.00
O446   O     0.55720   0.83334   0.17319   0.00000  Uiso   1.00
C447   C     0.50004   0.75330   0.24941   0.00000  Uiso   1.00
C448   C     0.52599   0.83331   0.14794   0.00000  Uiso   1.00
C449   C     0.60067   0.83734   0.00139   0.00000  Uiso   1.00
H450   H     0.61201   0.85344   0.07682   0.00000  Uiso   1.00
H451   H     0.61762   0.80943   0.39780   0.00000  Uiso   1.00
C452   C     0.54119   0.83011   0.08947   0.00000  Uiso   1.00
C453   C     0.41572   0.78893   0.43149   0.00000  Uiso   1.00
C454   C     0.40286   0.78531   0.48774   0.00000  Uiso   1.00
C455   C     0.43554   0.79397   0.01475   0.00000  Uiso   1.00
C456   C     0.48409   0.80177   0.48573   0.00000  Uiso   1.00
C457   C     0.49791   0.80025   0.42914   0.00000  Uiso   1.00
C458   C     0.51939   0.81220   0.01024   0.00000  Uiso   1.00
C459   C     0.56743   0.82020   0.47782   0.00000  Uiso   1.00
C460   C     0.58093   0.80915   0.42332   0.00000  Uiso   1.00
C461   C     0.54686   0.79675   0.40038   0.00000  Uiso   1.00
C462   C     0.50783   0.81637   0.06581   0.00000  Uiso   1.00
C463   C     0.58718   0.84108   0.05767   0.00000  Uiso   1.00
C464   C     0.46254   0.80265   0.40295   0.00000  Uiso   1.00
H465   H     0.47278   0.80869   0.09199   0.00000  Uiso   1.00
H466   H     0.42170   0.79243   0.05808   0.00000  Uiso   1.00
H467   H     0.36702   0.77614   0.01128   0.00000  Uiso   1.00
H468   H     0.55935   0.78553   0.35925   0.00000  Uiso   1.00
C469   C     0.54364   0.97892   0.23346   0.00000  Uiso   1.00
H470   H     0.57740   0.96281   0.22067   0.00000  Uiso   1.00
C471   C     0.54358   0.68826   0.23345   0.00000  Uiso   1.00
H472   H     0.57737   0.70479   0.22112   0.00000  Uiso   1.00
C473   C     0.50007   0.70916   0.24872   0.00000  Uiso   1.00
C474   C     0.45665   0.68771   0.26348   0.00000  Uiso   1.00
H475   H     0.42281   0.70373   0.27514   0.00000  Uiso   1.00
C476   C     0.45671   0.97840   0.26405   0.00000  Uiso   1.00
H477   H     0.42289   0.96192   0.27637   0.00000  Uiso   1.00
C478   C     0.50022   0.95750   0.24930   0.00000  Uiso   1.00
C479   C     0.64945   0.80234   0.22492   0.00000  Uiso   1.00
H480   H     0.63681   0.77759   0.20475   0.00000  Uiso   1.00
C481   C     0.36403   0.80236   0.22494   0.00000  Uiso   1.00
H482   H     0.38756   0.77760   0.20477   0.00000  Uiso   1.00
N483   N     0.38093   0.83334   0.25001   0.00000  Uiso   1.00
C484   C     0.35096   0.86432   0.27483   0.00000  Uiso   1.00
H485   H     0.36404   0.88888   0.29492   0.00000  Uiso   1.00
C486   C     0.63637   0.86453   0.27513   0.00000  Uiso   1.00
N487   N     0.61906   0.83331   0.25000   0.00000  Uiso   1.00
N488   N     0.60675   0.89814   0.30164   0.00000  Uiso   1.00
O489   O     0.57371   0.89141   0.34735   0.00000  Uiso   1.00
O490   O     0.62155   0.93616   0.28921   0.00000  Uiso   1.00
C491   C     0.64784   0.85438   0.46839   0.00000  Uiso   1.00
H492   H     0.65734   0.85700   0.42493   0.00000  Uiso   1.00
O493   O     0.34329   0.86695   0.48972   0.00000  Uiso   1.00
N494   N     0.38286   0.77465   0.40443   0.00000  Uiso   1.00
O495   O     0.33952   0.76438   0.43262   0.00000  Uiso   1.00
O496   O     0.39868   0.76161   0.35488   0.00000  Uiso   1.00
O497   O     0.79512   0.89442   0.25000   0.00000  Uiso   1.00
O498   O     0.87157   0.89441   0.25000   0.00000  Uiso   1.00
C499   C     0.83346   0.91335   0.24988   0.00000  Uiso   1.00
O500   O     0.77613   0.83333   0.32681   0.00000  Uiso   1.00
O501   O     0.85258   0.83332   0.32681   0.00000  Uiso   1.00
C502   C     0.80861   0.82183   0.34836   0.00000  Uiso   1.00
Zn503  Zn    0.78229   0.83334   0.25000   0.00000  Uiso   1.00
Zn504  Zn    0.88438   0.83333   0.25000   0.00000  Uiso   1.00
O505   O     0.79510   0.77226   0.24999   0.00000  Uiso   1.00
O506   O     0.87154   0.77225   0.24999   0.00000  Uiso   1.00
O507   O     0.81409   0.83335   0.17319   0.00000  Uiso   1.00
O508   O     0.89053   0.83334   0.17319   0.00000  Uiso   1.00
C509   C     0.83337   0.75330   0.24941   0.00000  Uiso   1.00
C510   C     0.85932   0.83331   0.14794   0.00000  Uiso   1.00
C511   C     0.93401   0.83734   0.00139   0.00000  Uiso   1.00
H512   H     0.94534   0.85344   0.07682   0.00000  Uiso   1.00
H513   H     0.95095   0.80943   0.39780   0.00000  Uiso   1.00
C514   C     0.87453   0.83011   0.08947   0.00000  Uiso   1.00
C515   C     0.74905   0.78893   0.43149   0.00000  Uiso   1.00
C516   C     0.73619   0.78531   0.48774   0.00000  Uiso   1.00
C517   C     0.76888   0.79397   0.01475   0.00000  Uiso   1.00
C518   C     0.81742   0.80177   0.48573   0.00000  Uiso   1.00
C519   C     0.83124   0.80025   0.42914   0.00000  Uiso   1.00
C520   C     0.85272   0.81220   0.01024   0.00000  Uiso   1.00
C521   C     0.90076   0.82020   0.47782   0.00000  Uiso   1.00
C522   C     0.91426   0.80915   0.42332   0.00000  Uiso   1.00
C523   C     0.88019   0.79675   0.40038   0.00000  Uiso   1.00
C524   C     0.84117   0.81637   0.06581   0.00000  Uiso   1.00
C525   C     0.92051   0.84108   0.05767   0.00000  Uiso   1.00
C526   C     0.79587   0.80265   0.40295   0.00000  Uiso   1.00
H527   H     0.80611   0.80869   0.09199   0.00000  Uiso   1.00
H528   H     0.75504   0.79243   0.05808   0.00000  Uiso   1.00
H529   H     0.70036   0.77614   0.01128   0.00000  Uiso   1.00
H530   H     0.89268   0.78553   0.35925   0.00000  Uiso   1.00
C531   C     0.87697   0.97892   0.23346   0.00000  Uiso   1.00
H532   H     0.91073   0.96281   0.22067   0.00000  Uiso   1.00
C533   C     0.87692   0.68826   0.23345   0.00000  Uiso   1.00
H534   H     0.91070   0.70479   0.22112   0.00000  Uiso   1.00
C535   C     0.83340   0.70916   0.24872   0.00000  Uiso   1.00
C536   C     0.78998   0.68771   0.26348   0.00000  Uiso   1.00
H537   H     0.75614   0.70373   0.27514   0.00000  Uiso   1.00
C538   C     0.79004   0.97840   0.26405   0.00000  Uiso   1.00
H539   H     0.75623   0.96192   0.27637   0.00000  Uiso   1.00
C540   C     0.83355   0.95750   0.24930   0.00000  Uiso   1.00
C541   C     0.98278   0.80234   0.22492   0.00000  Uiso   1.00
H542   H     0.97015   0.77759   0.20475   0.00000  Uiso   1.00
C543   C     0.69736   0.80236   0.22494   0.00000  Uiso   1.00
H544   H     0.72089   0.77760   0.20477   0.00000  Uiso   1.00
N545   N     0.71426   0.83334   0.25001   0.00000  Uiso   1.00
C546   C     0.68429   0.86432   0.27483   0.00000  Uiso   1.00
H547   H     0.69737   0.88888   0.29492   0.00000  Uiso   1.00
C548   C     0.96970   0.86453   0.27513   0.00000  Uiso   1.00
N549   N     0.95239   0.83331   0.25000   0.00000  Uiso   1.00
N550   N     0.94008   0.89814   0.30164   0.00000  Uiso   1.00
O551   O     0.90704   0.89141   0.34735   0.00000  Uiso   1.00
O552   O     0.95488   0.93616   0.28921   0.00000  Uiso   1.00
C553   C     0.98118   0.85438   0.46839   0.00000  Uiso   1.00
H554   H     0.99067   0.85700   0.42493   0.00000  Uiso   1.00
O555   O     0.67662   0.86695   0.48972   0.00000  Uiso   1.00
N556   N     0.71619   0.77465   0.40443   0.00000  Uiso   1.00
O557   O     0.67285   0.76438   0.43262   0.00000  Uiso   1.00
O558   O     0.73201   0.76161   0.35488   0.00000  Uiso   1.00
O559   O     0.12846   0.22775   0.75000   0.00000  Uiso   1.00
O560   O     0.20490   0.22774   0.75000   0.00000  Uiso   1.00
C561   C     0.16679   0.24668   0.74988   0.00000  Uiso   1.00
O562   O     0.10947   0.16666   0.82681   0.00000  Uiso   1.00
O563   O     0.18591   0.16665   0.82681   0.00000  Uiso   1.00
C564   C     0.14194   0.15517   0.84836   0.00000  Uiso   1.00
Zn565  Zn    0.11562   0.16667   0.75000   0.00000  Uiso   1.00
Zn566  Zn    0.21771   0.16666   0.75000   0.00000  Uiso   1.00
O567   O     0.12843   0.10559   0.74999   0.00000  Uiso   1.00
O568   O     0.20488   0.10558   0.74999   0.00000  Uiso   1.00
O569   O     0.14742   0.16668   0.67319   0.00000  Uiso   1.00
O570   O     0.22387   0.16667   0.67319   0.00000  Uiso   1.00
C571   C     0.16671   0.08664   0.74941   0.00000  Uiso   1.00
C572   C     0.19266   0.16664   0.64794   0.00000  Uiso   1.00
C573   C     0.26734   0.17067   0.50139   0.00000  Uiso   1.00
H574   H     0.27867   0.18677   0.57682   0.00000  Uiso   1.00
H575   H     0.28428   0.14276   0.89780   0.00000  Uiso   1.00
C576   C     0.20786   0.16345   0.58947   0.00000  Uiso   1.00
C577   C     0.08239   0.12226   0.93149   0.00000  Uiso   1.00
C578   C     0.06952   0.11864   0.98774   0.00000  Uiso   1.00
C579   C     0.10221   0.12730   0.51475   0.00000  Uiso   1.00
C580   C     0.15075   0.13510   0.98573   0.00000  Uiso   1.00
C581   C     0.16457   0.13359   0.92914   0.00000  Uiso   1.00
C582   C     0.18605   0.14553   0.51024   0.00000  Uiso   1.00
C583   C     0.23409   0.15353   0.97782   0.00000  Uiso   1.00
C584   C     0.24760   0.14248   0.92332   0.00000  Uiso   1.00
C585   C     0.21353   0.13008   0.90038   0.00000  Uiso   1.00
C586   C     0.17450   0.14971   0.56581   0.00000  Uiso   1.00
C587   C     0.25385   0.17441   0.55767   0.00000  Uiso   1.00
C588   C     0.12920   0.13598   0.90295   0.00000  Uiso   1.00
H589   H     0.13945   0.14202   0.59199   0.00000  Uiso   1.00
H590   H     0.08837   0.12577   0.55808   0.00000  Uiso   1.00
H591   H     0.03369   0.10947   0.51128   0.00000  Uiso   1.00
H592   H     0.22601   0.11887   0.85925   0.00000  Uiso   1.00
C593   C     0.21030   0.31226   0.73346   0.00000  Uiso   1.00
H594   H     0.24407   0.29614   0.72067   0.00000  Uiso   1.00
C595   C     0.21025   0.02160   0.73345   0.00000  Uiso   1.00
H596   H     0.24404   0.03812   0.72112   0.00000  Uiso   1.00
C597   C     0.16673   0.04249   0.74872   0.00000  Uiso   1.00
C598   C     0.12331   0.02104   0.76348   0.00000  Uiso   1.00
H599   H     0.08948   0.03706   0.77514   0.00000  Uiso   1.00
C600   C     0.12338   0.31174   0.76405   0.00000  Uiso   1.00
H601   H     0.08956   0.29525   0.77637   0.00000  Uiso   1.00
C602   C     0.16688   0.29083   0.74930   0.00000  Uiso   1.00
C603   C     0.31611   0.13567   0.72492   0.00000  Uiso   1.00
H604   H     0.30348   0.11092   0.70475   0.00000  Uiso   1.00
C605   C     0.03069   0.13569   0.72494   0.00000  Uiso   1.00
H606   H     0.05423   0.11093   0.70477   0.00000  Uiso   1.00
N607   N     0.04760   0.16668   0.75001   0.00000  Uiso   1.00
C608   C     0.01762   0.19765   0.77483   0.00000  Uiso   1.00
H609   H     0.03070   0.22221   0.79492   0.00000  Uiso   1.00
C610   C     0.30303   0.19786   0.77513   0.00000  Uiso   1.00
N611   N     0.28573   0.16665   0.75000   0.00000  Uiso   1.00
N612   N     0.27341   0.23148   0.80164   0.00000  Uiso   1.00
O613   O     0.24037   0.22474   0.84735   0.00000  Uiso   1.00
O614   O     0.28821   0.26949   0.78921   0.00000  Uiso   1.00
C615   C     0.31451   0.18771   0.96839   0.00000  Uiso   1.00
H616   H     0.32400   0.19033   0.92493   0.00000  Uiso   1.00
O617   O     0.00995   0.20028   0.98972   0.00000  Uiso   1.00
N618   N     0.04952   0.10798   0.90443   0.00000  Uiso   1.00
O619   O     0.00618   0.09771   0.93262   0.00000  Uiso   1.00
O620   O     0.06534   0.09494   0.85488   0.00000  Uiso   1.00
O621   O     0.46179   0.22775   0.75000   0.00000  Uiso   1.00
O622   O     0.53823   0.22774   0.75000   0.00000  Uiso   1.00
C623   C     0.50012   0.24668   0.74988   0.00000  Uiso   1.00
O624   O     0.44280   0.16666   0.82681   0.00000  Uiso   1.00
O625   O     0.51924   0.16665   0.82681   0.00000  Uiso   1.00
C626   C     0.47528   0.15517   0.84836   0.00000  Uiso   1.00
Zn627  Zn    0.44896   0.16667   0.75000   0.00000  Uiso   1.00
Zn628  Zn    0.55104   0.16666   0.75000   0.00000  Uiso   1.00
O629   O     0.46177   0.10559   0.74999   0.00000  Uiso   1.00
O630   O     0.53821   0.10558   0.74999   0.00000  Uiso   1.00
O631   O     0.48076   0.16668   0.67319   0.00000  Uiso   1.00
O632   O     0.55720   0.16667   0.67319   0.00000  Uiso   1.00
C633   C     0.50004   0.08664   0.74941   0.00000  Uiso   1.00
C634   C     0.52599   0.16664   0.64794   0.00000  Uiso   1.00
C635   C     0.60067   0.17067   0.50139   0.00000  Uiso   1.00
H636   H     0.61201   0.18677   0.57682   0.00000  Uiso   1.00
H637   H     0.61762   0.14276   0.89780   0.00000  Uiso   1.00
C638   C     0.54119   0.16345   0.58947   0.00000  Uiso   1.00
C639   C     0.41572   0.12226   0.93149   0.00000  Uiso   1.00
C640   C     0.40286   0.11864   0.98774   0.00000  Uiso   1.00
C641   C     0.43554   0.12730   0.51475   0.00000  Uiso   1.00
C642   C     0.48409   0.13510   0.98573   0.00000  Uiso   1.00
C643   C     0.49791   0.13359   0.92914   0.00000  Uiso   1.00
C644   C     0.51939   0.14553   0.51024   0.00000  Uiso   1.00
C645   C     0.56743   0.15353   0.97782   0.00000  Uiso   1.00
C646   C     0.58093   0.14248   0.92332   0.00000  Uiso   1.00
C647   C     0.54686   0.13008   0.90038   0.00000  Uiso   1.00
C648   C     0.50783   0.14971   0.56581   0.00000  Uiso   1.00
C649   C     0.58718   0.17441   0.55767   0.00000  Uiso   1.00
C650   C     0.46254   0.13598   0.90295   0.00000  Uiso   1.00
H651   H     0.47278   0.14202   0.59199   0.00000  Uiso   1.00
H652   H     0.42170   0.12577   0.55808   0.00000  Uiso   1.00
H653   H     0.36702   0.10947   0.51128   0.00000  Uiso   1.00
H654   H     0.55935   0.11887   0.85925   0.00000  Uiso   1.00
C655   C     0.54364   0.31226   0.73346   0.00000  Uiso   1.00
H656   H     0.57740   0.29614   0.72067   0.00000  Uiso   1.00
C657   C     0.54358   0.02160   0.73345   0.00000  Uiso   1.00
H658   H     0.57737   0.03812   0.72112   0.00000  Uiso   1.00
C659   C     0.50007   0.04249   0.74872   0.00000  Uiso   1.00
C660   C     0.45665   0.02104   0.76348   0.00000  Uiso   1.00
H661   H     0.42281   0.03706   0.77514   0.00000  Uiso   1.00
C662   C     0.45671   0.31174   0.76405   0.00000  Uiso   1.00
H663   H     0.42289   0.29525   0.77637   0.00000  Uiso   1.00
C664   C     0.50022   0.29083   0.74930   0.00000  Uiso   1.00
C665   C     0.64945   0.13567   0.72492   0.00000  Uiso   1.00
H666   H     0.63681   0.11092   0.70475   0.00000  Uiso   1.00
C667   C     0.36403   0.13569   0.72494   0.00000  Uiso   1.00
H668   H     0.38756   0.11093   0.70477   0.00000  Uiso   1.00
N669   N     0.38093   0.16668   0.75001   0.00000  Uiso   1.00
C670   C     0.35096   0.19765   0.77483   0.00000  Uiso   1.00
H671   H     0.36404   0.22221   0.79492   0.00000  Uiso   1.00
C672   C     0.63637   0.19786   0.77513   0.00000  Uiso   1.00
N673   N     0.61906   0.16665   0.75000   0.00000  Uiso   1.00
N674   N     0.60675   0.23148   0.80164   0.00000  Uiso   1.00
O675   O     0.57371   0.22474   0.84735   0.00000  Uiso   1.00
O676   O     0.62155   0.26949   0.78921   0.00000  Uiso   1.00
C677   C     0.64784   0.18771   0.96839   0.00000  Uiso   1.00
H678   H     0.65734   0.19033   0.92493   0.00000  Uiso   1.00
O679   O     0.34329   0.20028   0.98972   0.00000  Uiso   1.00
N680   N     0.38286   0.10798   0.90443   0.00000  Uiso   1.00
O681   O     0.33952   0.09771   0.93262   0.00000  Uiso   1.00
O682   O     0.39868   0.09494   0.85488   0.00000  Uiso   1.00
O683   O     0.79512   0.22775   0.75000   0.00000  Uiso   1.00
O684   O     0.87157   0.22774   0.75000   0.00000  Uiso   1.00
C685   C     0.83346   0.24668   0.74988   0.00000  Uiso   1.00
O686   O     0.77613   0.16666   0.82681   0.00000  Uiso   1.00
O687   O     0.85258   0.16665   0.82681   0.00000  Uiso   1.00
C688   C     0.80861   0.15517   0.84836   0.00000  Uiso   1.00
Zn689  Zn    0.78229   0.16667   0.75000   0.00000  Uiso   1.00
Zn690  Zn    0.88438   0.16666   0.75000   0.00000  Uiso   1.00
O691   O     0.79510   0.10559   0.74999   0.00000  Uiso   1.00
O692   O     0.87154   0.10558   0.74999   0.00000  Uiso   1.00
O693   O     0.81409   0.16668   0.67319   0.00000  Uiso   1.00
O694   O     0.89053   0.16667   0.67319   0.00000  Uiso   1.00
C695   C     0.83337   0.08664   0.74941   0.00000  Uiso   1.00
C696   C     0.85932   0.16664   0.64794   0.00000  Uiso   1.00
C697   C     0.93401   0.17067   0.50139   0.00000  Uiso   1.00
H698   H     0.94534   0.18677   0.57682   0.00000  Uiso   1.00
H699   H     0.95095   0.14276   0.89780   0.00000  Uiso   1.00
C700   C     0.87453   0.16345   0.58947   0.00000  Uiso   1.00
C701   C     0.74905   0.12226   0.93149   0.00000  Uiso   1.00
C702   C     0.73619   0.11864   0.98774   0.00000  Uiso   1.00
C703   C     0.76888   0.12730   0.51475   0.00000  Uiso   1.00
C704   C     0.81742   0.13510   0.98573   0.00000  Uiso   1.00
C705   C     0.83124   0.13359   0.92914   0.00000  Uiso   1.00
C706   C     0.85272   0.14553   0.51024   0.00000  Uiso   1.00
C707   C     0.90076   0.15353   0.97782   0.00000  Uiso   1.00
C708   C     0.91426   0.14248   0.92332   0.00000  Uiso   1.00
C709   C     0.88019   0.13008   0.90038   0.00000  Uiso   1.00
C710   C     0.84117   0.14971   0.56581   0.00000  Uiso   1.00
C711   C     0.92051   0.17441   0.55767   0.00000  Uiso   1.00
C712   C     0.79587   0.13598   0.90295   0.00000  Uiso   1.00
H713   H     0.80611   0.14202   0.59199   0.00000  Uiso   1.00
H714   H     0.75504   0.12577   0.55808   0.00000  Uiso   1.00
H715   H     0.70036   0.10947   0.51128   0.00000  Uiso   1.00
H716   H     0.89268   0.11887   0.85925   0.00000  Uiso   1.00
C717   C     0.87697   0.31226   0.73346   0.00000  Uiso   1.00
H718   H     0.91073   0.29614   0.72067   0.00000  Uiso   1.00
C719   C     0.87692   0.02160   0.73345   0.00000  Uiso   1.00
H720   H     0.91070   0.03812   0.72112   0.00000  Uiso   1.00
C721   C     0.83340   0.04249   0.74872   0.00000  Uiso   1.00
C722   C     0.78998   0.02104   0.76348   0.00000  Uiso   1.00
H723   H     0.75614   0.03706   0.77514   0.00000  Uiso   1.00
C724   C     0.79004   0.31174   0.76405   0.00000  Uiso   1.00
H725   H     0.75623   0.29525   0.77637   0.00000  Uiso   1.00
C726   C     0.83355   0.29083   0.74930   0.00000  Uiso   1.00
C727   C     0.98278   0.13567   0.72492   0.00000  Uiso   1.00
H728   H     0.97015   0.11092   0.70475   0.00000  Uiso   1.00
C729   C     0.69736   0.13569   0.72494   0.00000  Uiso   1.00
H730   H     0.72089   0.11093   0.70477   0.00000  Uiso   1.00
N731   N     0.71426   0.16668   0.75001   0.00000  Uiso   1.00
C732   C     0.68429   0.19765   0.77483   0.00000  Uiso   1.00
H733   H     0.69737   0.22221   0.79492   0.00000  Uiso   1.00
C734   C     0.96970   0.19786   0.77513   0.00000  Uiso   1.00
N735   N     0.95239   0.16665   0.75000   0.00000  Uiso   1.00
N736   N     0.94008   0.23148   0.80164   0.00000  Uiso   1.00
O737   O     0.90704   0.22474   0.84735   0.00000  Uiso   1.00
O738   O     0.95488   0.26949   0.78921   0.00000  Uiso   1.00
C739   C     0.98118   0.18771   0.96839   0.00000  Uiso   1.00
H740   H     0.99067   0.19033   0.92493   0.00000  Uiso   1.00
O741   O     0.67662   0.20028   0.98972   0.00000  Uiso   1.00
N742   N     0.71619   0.10798   0.90443   0.00000  Uiso   1.00
O743   O     0.67285   0.09771   0.93262   0.00000  Uiso   1.00
O744   O     0.73201   0.09494   0.85488   0.00000  Uiso   1.00
O745   O     0.12846   0.56108   0.75000   0.00000  Uiso   1.00
O746   O     0.20490   0.56107   0.75000   0.00000  Uiso   1.00
C747   C     0.16679   0.58002   0.74988   0.00000  Uiso   1.00
O748   O     0.10947   0.50000   0.82681   0.00000  Uiso   1.00
O749   O     0.18591   0.49999   0.82681   0.00000  Uiso   1.00
C750   C     0.14194   0.48850   0.84836   0.00000  Uiso   1.00
Zn751  Zn    0.11562   0.50001   0.75000   0.00000  Uiso   1.00
Zn752  Zn    0.21771   0.49999   0.75000   0.00000  Uiso   1.00
O753   O     0.12843   0.43893   0.74999   0.00000  Uiso   1.00
O754   O     0.20488   0.43892   0.74999   0.00000  Uiso   1.00
O755   O     0.14742   0.50001   0.67319   0.00000  Uiso   1.00
O756   O     0.22387   0.50000   0.67319   0.00000  Uiso   1.00
C757   C     0.16671   0.41997   0.74941   0.00000  Uiso   1.00
C758   C     0.19266   0.49997   0.64794   0.00000  Uiso   1.00
C759   C     0.26734   0.50401   0.50139   0.00000  Uiso   1.00
H760   H     0.27867   0.52010   0.57682   0.00000  Uiso   1.00
H761   H     0.28428   0.47609   0.89780   0.00000  Uiso   1.00
C762   C     0.20786   0.49678   0.58947   0.00000  Uiso   1.00
C763   C     0.08239   0.45559   0.93149   0.00000  Uiso   1.00
C764   C     0.06952   0.45198   0.98774   0.00000  Uiso   1.00
C765   C     0.10221   0.46063   0.51475   0.00000  Uiso   1.00
C766   C     0.15075   0.46843   0.98573   0.00000  Uiso   1.00
C767   C     0.16457   0.46692   0.92914   0.00000  Uiso   1.00
C768   C     0.18605   0.47886   0.51024   0.00000  Uiso   1.00
C769   C     0.23409   0.48687   0.97782   0.00000  Uiso   1.00
C770   C     0.24760   0.47581   0.92332   0.00000  Uiso   1.00
C771   C     0.21353   0.46341   0.90038   0.00000  Uiso   1.00
C772   C     0.17450   0.48304   0.56581   0.00000  Uiso   1.00
C773   C     0.25385   0.50775   0.55767   0.00000  Uiso   1.00
C774   C     0.12920   0.46931   0.90295   0.00000  Uiso   1.00
H775   H     0.13945   0.47535   0.59199   0.00000  Uiso   1.00
H776   H     0.08837   0.45910   0.55808   0.00000  Uiso   1.00
H777   H     0.03369   0.44281   0.51128   0.00000  Uiso   1.00
H778   H     0.22601   0.45220   0.85925   0.00000  Uiso   1.00
C779   C     0.21030   0.64559   0.73346   0.00000  Uiso   1.00
H780   H     0.24407   0.62947   0.72067   0.00000  Uiso   1.00
C781   C     0.21025   0.35493   0.73345   0.00000  Uiso   1.00
H782   H     0.24404   0.37146   0.72112   0.00000  Uiso   1.00
C783   C     0.16673   0.37582   0.74872   0.00000  Uiso   1.00
C784   C     0.12331   0.35437   0.76348   0.00000  Uiso   1.00
H785   H     0.08948   0.37040   0.77514   0.00000  Uiso   1.00
C786   C     0.12338   0.64507   0.76405   0.00000  Uiso   1.00
H787   H     0.08956   0.62859   0.77637   0.00000  Uiso   1.00
C788   C     0.16688   0.62417   0.74930   0.00000  Uiso   1.00
C789   C     0.31611   0.46901   0.72492   0.00000  Uiso   1.00
H790   H     0.30348   0.44425   0.70475   0.00000  Uiso   1.00
C791   C     0.03069   0.46903   0.72494   0.00000  Uiso   1.00
H792   H     0.05423   0.44426   0.70477   0.00000  Uiso   1.00
N793   N     0.04760   0.50001   0.75001   0.00000  Uiso   1.00
C794   C     0.01762   0.53098   0.77483   0.00000  Uiso   1.00
H795   H     0.03070   0.55555   0.79492   0.00000  Uiso   1.00
C796   C     0.30303   0.53120   0.77513   0.00000  Uiso   1.00
N797   N     0.28573   0.49998   0.75000   0.00000  Uiso   1.00
N798   N     0.27341   0.56481   0.80164   0.00000  Uiso   1.00
O799   O     0.24037   0.55808   0.84735   0.00000  Uiso   1.00
O800   O     0.28821   0.60282   0.78921   0.00000  Uiso   1.00
C801   C     0.31451   0.52104   0.96839   0.00000  Uiso   1.00
H802   H     0.32400   0.52367   0.92493   0.00000  Uiso   1.00
O803   O     0.00995   0.53362   0.98972   0.00000  Uiso   1.00
N804   N     0.04952   0.44132   0.90443   0.00000  Uiso   1.00
O805   O     0.00618   0.43105   0.93262   0.00000  Uiso   1.00
O806   O     0.06534   0.42828   0.85488   0.00000  Uiso   1.00
O807   O     0.46179   0.56108   0.75000   0.00000  Uiso   1.00
O808   O     0.53823   0.56107   0.75000   0.00000  Uiso   1.00
C809   C     0.50012   0.58002   0.74988   0.00000  Uiso   1.00
O810   O     0.44280   0.50000   0.82681   0.00000  Uiso   1.00
O811   O     0.51924   0.49999   0.82681   0.00000  Uiso   1.00
C812   C     0.47528   0.48850   0.84836   0.00000  Uiso   1.00
Zn813  Zn    0.44896   0.50001   0.75000   0.00000  Uiso   1.00
Zn814  Zn    0.55104   0.49999   0.75000   0.00000  Uiso   1.00
O815   O     0.46177   0.43893   0.74999   0.00000  Uiso   1.00
O816   O     0.53821   0.43892   0.74999   0.00000  Uiso   1.00
O817   O     0.48076   0.50001   0.67319   0.00000  Uiso   1.00
O818   O     0.55720   0.50000   0.67319   0.00000  Uiso   1.00
C819   C     0.50004   0.41997   0.74941   0.00000  Uiso   1.00
C820   C     0.52599   0.49997   0.64794   0.00000  Uiso   1.00
C821   C     0.60067   0.50401   0.50139   0.00000  Uiso   1.00
H822   H     0.61201   0.52010   0.57682   0.00000  Uiso   1.00
H823   H     0.61762   0.47609   0.89780   0.00000  Uiso   1.00
C824   C     0.54119   0.49678   0.58947   0.00000  Uiso   1.00
C825   C     0.41572   0.45559   0.93149   0.00000  Uiso   1.00
C826   C     0.40286   0.45198   0.98774   0.00000  Uiso   1.00
C827   C     0.43554   0.46063   0.51475   0.00000  Uiso   1.00
C828   C     0.48409   0.46843   0.98573   0.00000  Uiso   1.00
C829   C     0.49791   0.46692   0.92914   0.00000  Uiso   1.00
C830   C     0.51939   0.47886   0.51024   0.00000  Uiso   1.00
C831   C     0.56743   0.48687   0.97782   0.00000  Uiso   1.00
C832   C     0.58093   0.47581   0.92332   0.00000  Uiso   1.00
C833   C     0.54686   0.46341   0.90038   0.00000  Uiso   1.00
C834   C     0.50783   0.48304   0.56581   0.00000  Uiso   1.00
C835   C     0.58718   0.50775   0.55767   0.00000  Uiso   1.00
C836   C     0.46254   0.46931   0.90295   0.00000  Uiso   1.00
H837   H     0.47278   0.47535   0.59199   0.00000  Uiso   1.00
H838   H     0.42170   0.45910   0.55808   0.00000  Uiso   1.00
H839   H     0.36702   0.44281   0.51128   0.00000  Uiso   1.00
H840   H     0.55935   0.45220   0.85925   0.00000  Uiso   1.00
C841   C     0.54364   0.64559   0.73346   0.00000  Uiso   1.00
H842   H     0.57740   0.62947   0.72067   0.00000  Uiso   1.00
C843   C     0.54358   0.35493   0.73345   0.00000  Uiso   1.00
H844   H     0.57737   0.37146   0.72112   0.00000  Uiso   1.00
C845   C     0.50007   0.37582   0.74872   0.00000  Uiso   1.00
C846   C     0.45665   0.35437   0.76348   0.00000  Uiso   1.00
H847   H     0.42281   0.37040   0.77514   0.00000  Uiso   1.00
C848   C     0.45671   0.64507   0.76405   0.00000  Uiso   1.00
H849   H     0.42289   0.62859   0.77637   0.00000  Uiso   1.00
C850   C     0.50022   0.62417   0.74930   0.00000  Uiso   1.00
C851   C     0.64945   0.46901   0.72492   0.00000  Uiso   1.00
H852   H     0.63681   0.44425   0.70475   0.00000  Uiso   1.00
C853   C     0.36403   0.46903   0.72494   0.00000  Uiso   1.00
H854   H     0.38756   0.44426   0.70477   0.00000  Uiso   1.00
N855   N     0.38093   0.50001   0.75001   0.00000  Uiso   1.00
C856   C     0.35096   0.53098   0.77483   0.00000  Uiso   1.00
H857   H     0.36404   0.55555   0.79492   0.00000  Uiso   1.00
C858   C     0.63637   0.53120   0.77513   0.00000  Uiso   1.00
N859   N     0.61906   0.49998   0.75000   0.00000  Uiso   1.00
N860   N     0.60675   0.56481   0.80164   0.00000  Uiso   1.00
O861   O     0.57371   0.55808   0.84735   0.00000  Uiso   1.00
O862   O     0.62155   0.60282   0.78921   0.00000  Uiso   1.00
C863   C     0.64784   0.52104   0.96839   0.00000  Uiso   1.00
H864   H     0.65734   0.52367   0.92493   0.00000  Uiso   1.00
O865   O     0.34329   0.53362   0.98972   0.00000  Uiso   1.00
N866   N     0.38286   0.44132   0.90443   0.00000  Uiso   1.00
O867   O     0.33952   0.43105   0.93262   0.00000  Uiso   1.00
O868   O     0.39868   0.42828   0.85488   0.00000  Uiso   1.00
O869   O     0.79512   0.56108   0.75000   0.00000  Uiso   1.00
O870   O     0.87157   0.56107   0.75000   0.00000  Uiso   1.00
C871   C     0.83346   0.58002   0.74988   0.00000  Uiso   1.00
O872   O     0.77613   0.50000   0.82681   0.00000  Uiso   1.00
O873   O     0.85258   0.49999   0.82681   0.00000  Uiso   1.00
C874   C     0.80861   0.48850   0.84836   0.00000  Uiso   1.00
Zn875  Zn    0.78229   0.50001   0.75000   0.00000  Uiso   1.00
Zn876  Zn    0.88438   0.49999   0.75000   0.00000  Uiso   1.00
O877   O     0.79510   0.43893   0.74999   0.00000  Uiso   1.00
O878   O     0.87154   0.43892   0.74999   0.00000  Uiso   1.00
O879   O     0.81409   0.50001   0.67319   0.00000  Uiso   1.00
O880   O     0.89053   0.50000   0.67319   0.00000  Uiso   1.00
C881   C     0.83337   0.41997   0.74941   0.00000  Uiso   1.00
C882   C     0.85932   0.49997   0.64794   0.00000  Uiso   1.00
C883   C     0.93401   0.50401   0.50139   0.00000  Uiso   1.00
H884   H     0.94534   0.52010   0.57682   0.00000  Uiso   1.00
H885   H     0.95095   0.47609   0.89780   0.00000  Uiso   1.00
C886   C     0.87453   0.49678   0.58947   0.00000  Uiso   1.00
C887   C     0.74905   0.45559   0.93149   0.00000  Uiso   1.00
C888   C     0.73619   0.45198   0.98774   0.00000  Uiso   1.00
C889   C     0.76888   0.46063   0.51475   0.00000  Uiso   1.00
C890   C     0.81742   0.46843   0.98573   0.00000  Uiso   1.00
C891   C     0.83124   0.46692   0.92914   0.00000  Uiso   1.00
C892   C     0.85272   0.47886   0.51024   0.00000  Uiso   1.00
C893   C     0.90076   0.48687   0.97782   0.00000  Uiso   1.00
C894   C     0.91426   0.47581   0.92332   0.00000  Uiso   1.00
C895   C     0.88019   0.46341   0.90038   0.00000  Uiso   1.00
C896   C     0.84117   0.48304   0.56581   0.00000  Uiso   1.00
C897   C     0.92051   0.50775   0.55767   0.00000  Uiso   1.00
C898   C     0.79587   0.46931   0.90295   0.00000  Uiso   1.00
H899   H     0.80611   0.47535   0.59199   0.00000  Uiso   1.00
H900   H     0.75504   0.45910   0.55808   0.00000  Uiso   1.00
H901   H     0.70036   0.44281   0.51128   0.00000  Uiso   1.00
H902   H     0.89268   0.45220   0.85925   0.00000  Uiso   1.00
C903   C     0.87697   0.64559   0.73346   0.00000  Uiso   1.00
H904   H     0.91073   0.62947   0.72067   0.00000  Uiso   1.00
C905   C     0.87692   0.35493   0.73345   0.00000  Uiso   1.00
H906   H     0.91070   0.37146   0.72112   0.00000  Uiso   1.00
C907   C     0.83340   0.37582   0.74872   0.00000  Uiso   1.00
C908   C     0.78998   0.35437   0.76348   0.00000  Uiso   1.00
H909   H     0.75614   0.37040   0.77514   0.00000  Uiso   1.00
C910   C     0.79004   0.64507   0.76405   0.00000  Uiso   1.00
H911   H     0.75623   0.62859   0.77637   0.00000  Uiso   1.00
C912   C     0.83355   0.62417   0.74930   0.00000  Uiso   1.00
C913   C     0.98278   0.46901   0.72492   0.00000  Uiso   1.00
H914   H     0.97015   0.44425   0.70475   0.00000  Uiso   1.00
C915   C     0.69736   0.46903   0.72494   0.00000  Uiso   1.00
H916   H     0.72089   0.44426   0.70477   0.00000  Uiso   1.00
N917   N     0.71426   0.50001   0.75001   0.00000  Uiso   1.00
C918   C     0.68429   0.53098   0.77483   0.00000  Uiso   1.00
H919   H     0.69737   0.55555   0.79492   0.00000  Uiso   1.00
C920   C     0.96970   0.53120   0.77513   0.00000  Uiso   1.00
N921   N     0.95239   0.49998   0.75000   0.00000  Uiso   1.00
N922   N     0.94008   0.56481   0.80164   0.00000  Uiso   1.00
O923   O     0.90704   0.55808   0.84735   0.00000  Uiso   1.00
O924   O     0.95488   0.60282   0.78921   0.00000  Uiso   1.00
C925   C     0.98118   0.52104   0.96839   0.00000  Uiso   1.00
H926   H     0.99067   0.52367   0.92493   0.00000  Uiso   1.00
O927   O     0.67662   0.53362   0.98972   0.00000  Uiso   1.00
N928   N     0.71619   0.44132   0.90443   0.00000  Uiso   1.00
O929   O     0.67285   0.43105   0.93262   0.00000  Uiso   1.00
O930   O     0.73201   0.42828   0.85488   0.00000  Uiso   1.00
O931   O     0.12846   0.89442   0.75000   0.00000  Uiso   1.00
O932   O     0.20490   0.89441   0.75000   0.00000  Uiso   1.00
C933   C     0.16679   0.91335   0.74988   0.00000  Uiso   1.00
O934   O     0.10947   0.83333   0.82681   0.00000  Uiso   1.00
O935   O     0.18591   0.83332   0.82681   0.00000  Uiso   1.00
C936   C     0.14194   0.82183   0.84836   0.00000  Uiso   1.00
Zn937  Zn    0.11562   0.83334   0.75000   0.00000  Uiso   1.00
Zn938  Zn    0.21771   0.83333   0.75000   0.00000  Uiso   1.00
O939   O     0.12843   0.77226   0.74999   0.00000  Uiso   1.00
O940   O     0.20488   0.77225   0.74999   0.00000  Uiso   1.00
O941   O     0.14742   0.83335   0.67319   0.00000  Uiso   1.00
O942   O     0.22387   0.83334   0.67319   0.00000  Uiso   1.00
C943   C     0.16671   0.75330   0.74941   0.00000  Uiso   1.00
C944   C     0.19266   0.83331   0.64794   0.00000  Uiso   1.00
C945   C     0.26734   0.83734   0.50139   0.00000  Uiso   1.00
H946   H     0.27867   0.85344   0.57682   0.00000  Uiso   1.00
H947   H     0.28428   0.80943   0.89780   0.00000  Uiso   1.00
C948   C     0.20786   0.83011   0.58947   0.00000  Uiso   1.00
C949   C     0.08239   0.78893   0.93149   0.00000  Uiso   1.00
C950   C     0.06952   0.78531   0.98774   0.00000  Uiso   1.00
C951   C     0.10221   0.79397   0.51475   0.00000  Uiso   1.00
C952   C     0.15075   0.80177   0.98573   0.00000  Uiso   1.00
C953   C     0.16457   0.80025   0.92914   0.00000  Uiso   1.00
C954   C     0.18605   0.81220   0.51024   0.00000  Uiso   1.00
C955   C     0.23409   0.82020   0.97782   0.00000  Uiso   1.00
C956   C     0.24760   0.80915   0.92332   0.00000  Uiso   1.00
C957   C     0.21353   0.79675   0.90038   0.00000  Uiso   1.00
C958   C     0.17450   0.81637   0.56581   0.00000  Uiso   1.00
C959   C     0.25385   0.84108   0.55767   0.00000  Uiso   1.00
C960   C     0.12920   0.80265   0.90295   0.00000  Uiso   1.00
H961   H     0.13945   0.80869   0.59199   0.00000  Uiso   1.00
H962   H     0.08837   0.79243   0.55808   0.00000  Uiso   1.00
H963   H     0.03369   0.77614   0.51128   0.00000  Uiso   1.00
H964   H     0.22601   0.78553   0.85925   0.00000  Uiso   1.00
C965   C     0.21030   0.97892   0.73346   0.00000  Uiso   1.00
H966   H     0.24407   0.96281   0.72067   0.00000  Uiso   1.00
C967   C     0.21025   0.68826   0.73345   0.00000  Uiso   1.00
H968   H     0.24404   0.70479   0.72112   0.00000  Uiso   1.00
C969   C     0.16673   0.70916   0.74872   0.00000  Uiso   1.00
C970   C     0.12331   0.68771   0.76348   0.00000  Uiso   1.00
H971   H     0.08948   0.70373   0.77514   0.00000  Uiso   1.00
C972   C     0.12338   0.97840   0.76405   0.00000  Uiso   1.00
H973   H     0.08956   0.96192   0.77637   0.00000  Uiso   1.00
C974   C     0.16688   0.95750   0.74930   0.00000  Uiso   1.00
C975   C     0.31611   0.80234   0.72492   0.00000  Uiso   1.00
H976   H     0.30348   0.77759   0.70475   0.00000  Uiso   1.00
C977   C     0.03069   0.80236   0.72494   0.00000  Uiso   1.00
H978   H     0.05423   0.77760   0.70477   0.00000  Uiso   1.00
N979   N     0.04760   0.83334   0.75001   0.00000  Uiso   1.00
C980   C     0.01762   0.86432   0.77483   0.00000  Uiso   1.00
H981   H     0.03070   0.88888   0.79492   0.00000  Uiso   1.00
C982   C     0.30303   0.86453   0.77513   0.00000  Uiso   1.00
N983   N     0.28573   0.83331   0.75000   0.00000  Uiso   1.00
N984   N     0.27341   0.89814   0.80164   0.00000  Uiso   1.00
O985   O     0.24037   0.89141   0.84735   0.00000  Uiso   1.00
O986   O     0.28821   0.93616   0.78921   0.00000  Uiso   1.00
C987   C     0.31451   0.85438   0.96839   0.00000  Uiso   1.00
H988   H     0.32400   0.85700   0.92493   0.00000  Uiso   1.00
O989   O     0.00995   0.86695   0.98972   0.00000  Uiso   1.00
N990   N     0.04952   0.77465   0.90443   0.00000  Uiso   1.00
O991   O     0.00618   0.76438   0.93262   0.00000  Uiso   1.00
O992   O     0.06534   0.76161   0.85488   0.00000  Uiso   1.00
O993   O     0.46179   0.89442   0.75000   0.00000  Uiso   1.00
O994   O     0.53823   0.89441   0.75000   0.00000  Uiso   1.00
C995   C     0.50012   0.91335   0.74988   0.00000  Uiso   1.00
O996   O     0.44280   0.83333   0.82681   0.00000  Uiso   1.00
O997   O     0.51924   0.83332   0.82681   0.00000  Uiso   1.00
C998   C     0.47528   0.82183   0.84836   0.00000  Uiso   1.00
Zn999  Zn    0.44896   0.83334   0.75000   0.00000  Uiso   1.00
Zn1000 Zn    0.55104   0.83333   0.75000   0.00000  Uiso   1.00
O1001  O     0.46177   0.77226   0.74999   0.00000  Uiso   1.00
O1002  O     0.53821   0.77225   0.74999   0.00000  Uiso   1.00
O1003  O     0.48076   0.83335   0.67319   0.00000  Uiso   1.00
O1004  O     0.55720   0.83334   0.67319   0.00000  Uiso   1.00
C1005  C     0.50004   0.75330   0.74941   0.00000  Uiso   1.00
C1006  C     0.52599   0.83331   0.64794   0.00000  Uiso   1.00
C1007  C     0.60067   0.83734   0.50139   0.00000  Uiso   1.00
H1008  H     0.61201   0.85344   0.57682   0.00000  Uiso   1.00
H1009  H     0.61762   0.80943   0.89780   0.00000  Uiso   1.00
C1010  C     0.54119   0.83011   0.58947   0.00000  Uiso   1.00
C1011  C     0.41572   0.78893   0.93149   0.00000  Uiso   1.00
C1012  C     0.40286   0.78531   0.98774   0.00000  Uiso   1.00
C1013  C     0.43554   0.79397   0.51475   0.00000  Uiso   1.00
C1014  C     0.48409   0.80177   0.98573   0.00000  Uiso   1.00
C1015  C     0.49791   0.80025   0.92914   0.00000  Uiso   1.00
C1016  C     0.51939   0.81220   0.51024   0.00000  Uiso   1.00
C1017  C     0.56743   0.82020   0.97782   0.00000  Uiso   1.00
C1018  C     0.58093   0.80915   0.92332   0.00000  Uiso   1.00
C1019  C     0.54686   0.79675   0.90038   0.00000  Uiso   1.00
C1020  C     0.50783   0.81637   0.56581   0.00000  Uiso   1.00
C1021  C     0.58718   0.84108   0.55767   0.00000  Uiso   1.00
C1022  C     0.46254   0.80265   0.90295   0.00000  Uiso   1.00
H1023  H     0.47278   0.80869   0.59199   0.00000  Uiso   1.00
H1024  H     0.42170   0.79243   0.55808   0.00000  Uiso   1.00
H1025  H     0.36702   0.77614   0.51128   0.00000  Uiso   1.00
H1026  H     0.55935   0.78553   0.85925   0.00000  Uiso   1.00
C1027  C     0.54364   0.97892   0.73346   0.00000  Uiso   1.00
H1028  H     0.57740   0.96281   0.72067   0.00000  Uiso   1.00
C1029  C     0.54358   0.68826   0.73345   0.00000  Uiso   1.00
H1030  H     0.57737   0.70479   0.72112   0.00000  Uiso   1.00
C1031  C     0.50007   0.70916   0.74872   0.00000  Uiso   1.00
C1032  C     0.45665   0.68771   0.76348   0.00000  Uiso   1.00
H1033  H     0.42281   0.70373   0.77514   0.00000  Uiso   1.00
C1034  C     0.45671   0.97840   0.76405   0.00000  Uiso   1.00
H1035  H     0.42289   0.96192   0.77637   0.00000  Uiso   1.00
C1036  C     0.50022   0.95750   0.74930   0.00000  Uiso   1.00
C1037  C     0.64945   0.80234   0.72492   0.00000  Uiso   1.00
H1038  H     0.63681   0.77759   0.70475   0.00000  Uiso   1.00
C1039  C     0.36403   0.80236   0.72494   0.00000  Uiso   1.00
H1040  H     0.38756   0.77760   0.70477   0.00000  Uiso   1.00
N1041  N     0.38093   0.83334   0.75001   0.00000  Uiso   1.00
C1042  C     0.35096   0.86432   0.77483   0.00000  Uiso   1.00
H1043  H     0.36404   0.88888   0.79492   0.00000  Uiso   1.00
C1044  C     0.63637   0.86453   0.77513   0.00000  Uiso   1.00
N1045  N     0.61906   0.83331   0.75000   0.00000  Uiso   1.00
N1046  N     0.60675   0.89814   0.80164   0.00000  Uiso   1.00
O1047  O     0.57371   0.89141   0.84735   0.00000  Uiso   1.00
O1048  O     0.62155   0.93616   0.78921   0.00000  Uiso   1.00
C1049  C     0.64784   0.85438   0.96839   0.00000  Uiso   1.00
H1050  H     0.65734   0.85700   0.92493   0.00000  Uiso   1.00
O1051  O     0.34329   0.86695   0.98972   0.00000  Uiso   1.00
N1052  N     0.38286   0.77465   0.90443   0.00000  Uiso   1.00
O1053  O     0.33952   0.76438   0.93262   0.00000  Uiso   1.00
O1054  O     0.39868   0.76161   0.85488   0.00000  Uiso   1.00
O1055  O     0.79512   0.89442   0.75000   0.00000  Uiso   1.00
O1056  O     0.87157   0.89441   0.75000   0.00000  Uiso   1.00
C1057  C     0.83346   0.91335   0.74988   0.00000  Uiso   1.00
O1058  O     0.77613   0.83333   0.82681   0.00000  Uiso   1.00
O1059  O     0.85258   0.83332   0.82681   0.00000  Uiso   1.00
C1060  C     0.80861   0.82183   0.84836   0.00000  Uiso   1.00
Zn1061 Zn    0.78229   0.83334   0.75000   0.00000  Uiso   1.00
Zn1062 Zn    0.88438   0.83333   0.75000   0.00000  Uiso   1.00
O1063  O     0.79510   0.77226   0.74999   0.00000  Uiso   1.00
O1064  O     0.87154   0.77225   0.74999   0.00000  Uiso   1.00
O1065  O     0.81409   0.83335   0.67319   0.00000  Uiso   1.00
O1066  O     0.89053   0.83334   0.67319   0.00000  Uiso   1.00
C1067  C     0.83337   0.75330   0.74941   0.00000  Uiso   1.00
C1068  C     0.85932   0.83331   0.64794   0.00000  Uiso   1.00
C1069  C     0.93401   0.83734   0.50139   0.00000  Uiso   1.00
H1070  H     0.94534   0.85344   0.57682   0.00000  Uiso   1.00
H1071  H     0.95095   0.80943   0.89780   0.00000  Uiso   1.00
C1072  C     0.87453   0.83011   0.58947   0.00000  Uiso   1.00
C1073  C     0.74905   0.78893   0.93149   0.00000  Uiso   1.00
C1074  C     0.73619   0.78531   0.98774   0.00000  Uiso   1.00
C1075  C     0.76888   0.79397   0.51475   0.00000  Uiso   1.00
C1076  C     0.81742   0.80177   0.98573   0.00000  Uiso   1.00
C1077  C     0.83124   0.80025   0.92914   0.00000  Uiso   1.00
C1078  C     0.85272   0.81220   0.51024   0.00000  Uiso   1.00
C1079  C     0.90076   0.82020   0.97782   0.00000  Uiso   1.00
C1080  C     0.91426   0.80915   0.92332   0.00000  Uiso   1.00
C1081  C     0.88019   0.79675   0.90038   0.00000  Uiso   1.00
C1082  C     0.84117   0.81637   0.56581   0.00000  Uiso   1.00
C1083  C     0.92051   0.84108   0.55767   0.00000  Uiso   1.00
C1084  C     0.79587   0.80265   0.90295   0.00000  Uiso   1.00
H1085  H     0.80611   0.80869   0.59199   0.00000  Uiso   1.00
H1086  H     0.75504   0.79243   0.55808   0.00000  Uiso   1.00
H1087  H     0.70036   0.77614   0.51128   0.00000  Uiso   1.00
H1088  H     0.89268   0.78553   0.85925   0.00000  Uiso   1.00
C1089  C     0.87697   0.97892   0.73346   0.00000  Uiso   1.00
H1090  H     0.91073   0.96281   0.72067   0.00000  Uiso   1.00
C1091  C     0.87692   0.68826   0.73345   0.00000  Uiso   1.00
H1092  H     0.91070   0.70479   0.72112   0.00000  Uiso   1.00
C1093  C     0.83340   0.70916   0.74872   0.00000  Uiso   1.00
C1094  C     0.78998   0.68771   0.76348   0.00000  Uiso   1.00
H1095  H     0.75614   0.70373   0.77514   0.00000  Uiso   1.00
C1096  C     0.79004   0.97840   0.76405   0.00000  Uiso   1.00
H1097  H     0.75623   0.96192   0.77637   0.00000  Uiso   1.00
C1098  C     0.83355   0.95750   0.74930   0.00000  Uiso   1.00
C1099  C     0.98278   0.80234   0.72492   0.00000  Uiso   1.00
H1100  H     0.97015   0.77759   0.70475   0.00000  Uiso   1.00
C1101  C     0.69736   0.80236   0.72494   0.00000  Uiso   1.00
H1102  H     0.72089   0.77760   0.70477   0.00000  Uiso   1.00
N1103  N     0.71426   0.83334   0.75001   0.00000  Uiso   1.00
C1104  C     0.68429   0.86432   0.77483   0.00000  Uiso   1.00
H1105  H     0.69737   0.88888   0.79492   0.00000  Uiso   1.00
C1106  C     0.96970   0.86453   0.77513   0.00000  Uiso   1.00
N1107  N     0.95239   0.83331   0.75000   0.00000  Uiso   1.00
N1108  N     0.94008   0.89814   0.80164   0.00000  Uiso   1.00
O1109  O     0.90704   0.89141   0.84735   0.00000  Uiso   1.00
O1110  O     0.95488   0.93616   0.78921   0.00000  Uiso   1.00
C1111  C     0.98118   0.85438   0.96839   0.00000  Uiso   1.00
H1112  H     0.99067   0.85700   0.92493   0.00000  Uiso   1.00
O1113  O     0.67662   0.86695   0.98972   0.00000  Uiso   1.00
N1114  N     0.71619   0.77465   0.90443   0.00000  Uiso   1.00
O1115  O     0.67285   0.76438   0.93262   0.00000  Uiso   1.00
O1116  O     0.73201   0.76161   0.85488   0.00000  Uiso   1.00
loop_
_geom_bond_atom_site_label_1
_geom_bond_atom_site_label_2
_geom_bond_distance
_geom_bond_site_symmetry_2
_ccdc_geom_bond_type
O1     Zn7     1.996   .     S
O1     C3      1.282   .     A
O2     C3      1.285   .     A
O2     Zn8     2.001   .     S
C3     C44     1.418   .     S
O4     Zn7     1.956   .     S
O4     C6      1.312   .     A
O5     Zn8     1.928   .     S
O5     C6      1.295   .     A
C6     C30     1.487   .     S
Zn7    O11     1.928   .     S
Zn7    N49     2.012   .     S
Zn7    O9      2.001   .     S
Zn8    N53     2.012   .     S
Zn8    O12     1.956   .     S
Zn8    O10     1.996   .     S
O9     C13     1.285   .     A
O10    C13     1.283   .     A
O11    C14     1.291   .     A
O12    C14     1.292   .     A
C13    C39     1.418   .     S
C14    C18     1.453   .     S
C15    C29     1.401   .     A
C15    C583    1.422   1_554 S
C15    C615    1.490   1_554 S
H16    C29     1.084   .     S
H17    C26     1.079   .     S
C18    C29     1.395   .     A
C18    C28     1.389   .     A
C19    N60     1.443   .     S
C19    C30     1.417   .     A
C19    C20     1.401   .     A
C20    C579    1.391   .     S
C20    H591    1.083   .     S
C21    H32     1.076   .     S
C21    C578    1.391   1_554 S
C21    C580    1.417   1_554 S
C22    C23     1.404   .     A
C22    C579    1.417   .     S
C22    C582    1.424   .     S
C23    C30     1.421   .     A
C23    C27     1.410   .     A
C24    C28     1.388   .     A
C24    C580    1.424   1_554 S
C24    C583    1.428   1_554 S
C25    C26     1.398   .     A
C25    C573    1.422   .     S
C25    C582    1.428   .     S
C26    C27     1.381   .     A
C27    H34     1.082   .     S
C28    H31     1.074   .     S
H33    C578    1.083   1_554 S
C35    C44     1.396   .     A
C35    H36     1.083   .     S
C35    C223    1.371   .     S
C37    H38     1.084   .     S
C37    C39     1.397   .     A
C37    C407    1.371   1_545 S
C39    C40     1.396   .     A
C40    H41     1.083   .     S
C40    C414    1.370   1_545 S
C42    C44     1.397   .     A
C42    H43     1.084   .     S
C42    C226    1.370   .     S
C45    N53     1.366   .     A
C45    H46     1.082   .     S
C45    C109    1.417   .     S
C47    H48     1.082   .     S
C47    N49     1.367   .     A
C47    C169    1.417   1_455 S
N49    C50     1.358   .     A
C50    H51     1.082   .     S
C50    C176    1.415   1_455 S
C52    N54     1.429   .     S
C52    N53     1.380   .     A
C52    C112    1.415   .     S
N54    O56     1.301   .     A
N54    O55     1.299   .     A
C57    H58     1.083   .     S
C57    C573    1.490   .     S
C57    O121    1.221   .     S
O59    C181    1.221   1_455 S
N60    O62     1.299   .     A
N60    O61     1.301   .     A
O63    Zn69    1.996   .     S
O63    C65     1.282   .     A
O64    C65     1.285   .     A
O64    Zn70    2.001   .     S
C65    C106    1.418   .     S
O66    Zn69    1.956   .     S
O66    C68     1.312   .     A
O67    Zn70    1.928   .     S
O67    C68     1.295   .     A
C68    C92     1.487   .     S
Zn69   O73     1.928   .     S
Zn69   N111    2.012   .     S
Zn69   O71     2.001   .     S
Zn70   N115    2.012   .     S
Zn70   O74     1.956   .     S
Zn70   O72     1.996   .     S
O71    C75     1.285   .     A
O72    C75     1.283   .     A
O73    C76     1.291   .     A
O74    C76     1.292   .     A
C75    C101    1.418   .     S
C76    C80     1.453   .     S
C77    C91     1.401   .     A
C77    C645    1.422   1_554 S
C77    C677    1.490   1_554 S
H78    C91     1.084   .     S
H79    C88     1.079   .     S
C80    C91     1.395   .     A
C80    C90     1.389   .     A
C81    N122    1.443   .     S
C81    C92     1.417   .     A
C81    C82     1.401   .     A
C82    C641    1.391   .     S
C82    H653    1.083   .     S
C83    H94     1.076   .     S
C83    C640    1.391   1_554 S
C83    C642    1.417   1_554 S
C84    C85     1.404   .     A
C84    C641    1.417   .     S
C84    C644    1.424   .     S
C85    C92     1.421   .     A
C85    C89     1.410   .     A
C86    C90     1.388   .     A
C86    C642    1.424   1_554 S
C86    C645    1.428   1_554 S
C87    C88     1.398   .     A
C87    C635    1.422   .     S
C87    C644    1.428   .     S
C88    C89     1.381   .     A
C89    H96     1.082   .     S
C90    H93     1.074   .     S
H95    C640    1.083   1_554 S
C97    C106    1.396   .     A
C97    H98     1.083   .     S
C97    C285    1.371   .     S
C99    H100    1.084   .     S
C99    C101    1.397   .     A
C99    C469    1.371   1_545 S
C101   C102    1.396   .     A
C102   H103    1.083   .     S
C102   C476    1.370   1_545 S
C104   C106    1.397   .     A
C104   H105    1.084   .     S
C104   C288    1.370   .     S
C107   N115    1.366   .     A
C107   H108    1.082   .     S
C107   C171    1.417   .     S
C109   H110    1.082   .     S
C109   N111    1.367   .     A
N111   C112    1.358   .     A
C112   H113    1.082   .     S
C114   N116    1.429   .     S
C114   N115    1.380   .     A
C114   C174    1.415   .     S
N116   O118    1.301   .     A
N116   O117    1.299   .     A
C119   H120    1.083   .     S
C119   C635    1.490   .     S
C119   O183    1.221   .     S
N122   O124    1.299   .     A
N122   O123    1.301   .     A
O125   Zn131   1.996   .     S
O125   C127    1.282   .     A
O126   C127    1.285   .     A
O126   Zn132   2.001   .     S
C127   C168    1.418   .     S
O128   Zn131   1.956   .     S
O128   C130    1.312   .     A
O129   Zn132   1.928   .     S
O129   C130    1.295   .     A
C130   C154    1.487   .     S
Zn131  O135    1.928   .     S
Zn131  N173    2.012   .     S
Zn131  O133    2.001   .     S
Zn132  N177    2.012   .     S
Zn132  O136    1.956   .     S
Zn132  O134    1.996   .     S
O133   C137    1.285   .     A
O134   C137    1.283   .     A
O135   C138    1.291   .     A
O136   C138    1.292   .     A
C137   C163    1.418   .     S
C138   C142    1.453   .     S
C139   C153    1.401   .     A
C139   C707    1.422   1_554 S
C139   C739    1.490   1_554 S
H140   C153    1.084   .     S
H141   C150    1.079   .     S
C142   C153    1.395   .     A
C142   C152    1.389   .     A
C143   N184    1.443   .     S
C143   C154    1.417   .     A
C143   C144    1.401   .     A
C144   C703    1.391   .     S
C144   H715    1.083   .     S
C145   H156    1.076   .     S
C145   C702    1.391   1_554 S
C145   C704    1.417   1_554 S
C146   C147    1.404   .     A
C146   C703    1.417   .     S
C146   C706    1.424   .     S
C147   C154    1.421   .     A
C147   C151    1.410   .     A
C148   C152    1.388   .     A
C148   C704    1.424   1_554 S
C148   C707    1.428   1_554 S
C149   C150    1.398   .     A
C149   C697    1.422   .     S
C149   C706    1.428   .     S
C150   C151    1.381   .     A
C151   H158    1.082   .     S
C152   H155    1.074   .     S
H157   C702    1.083   1_554 S
C159   C168    1.396   .     A
C159   H160    1.083   .     S
C159   C347    1.371   .     S
C161   H162    1.084   .     S
C161   C163    1.397   .     A
C161   C531    1.371   1_545 S
C163   C164    1.396   .     A
C164   H165    1.083   .     S
C164   C538    1.370   1_545 S
C166   C168    1.397   .     A
C166   H167    1.084   .     S
C166   C350    1.370   .     S
C169   N177    1.366   .     A
C169   H170    1.082   .     S
C169   C47     1.417   1_655 S
C171   H172    1.082   .     S
C171   N173    1.367   .     A
N173   C174    1.358   .     A
C174   H175    1.082   .     S
C176   N178    1.429   .     S
C176   N177    1.380   .     A
C176   C50     1.415   1_655 S
N178   O180    1.301   .     A
N178   O179    1.299   .     A
C181   H182    1.083   .     S
C181   C697    1.490   .     S
C181   O59     1.221   1_655 S
N184   O186    1.299   .     A
N184   O185    1.301   .     A
O187   Zn193   1.996   .     S
O187   C189    1.282   .     A
O188   C189    1.285   .     A
O188   Zn194   2.001   .     S
C189   C230    1.418   .     S
O190   Zn193   1.956   .     S
O190   C192    1.312   .     A
O191   Zn194   1.928   .     S
O191   C192    1.295   .     A
C192   C216    1.487   .     S
Zn193  O197    1.928   .     S
Zn193  N235    2.012   .     S
Zn193  O195    2.001   .     S
Zn194  N239    2.012   .     S
Zn194  O198    1.956   .     S
Zn194  O196    1.996   .     S
O195   C199    1.285   .     A
O196   C199    1.283   .     A
O197   C200    1.291   .     A
O198   C200    1.292   .     A
C199   C225    1.418   .     S
C200   C204    1.453   .     S
C201   C215    1.401   .     A
C201   C769    1.422   1_554 S
C201   C801    1.490   1_554 S
H202   C215    1.084   .     S
H203   C212    1.079   .     S
C204   C215    1.395   .     A
C204   C214    1.389   .     A
C205   N246    1.443   .     S
C205   C216    1.417   .     A
C205   C206    1.401   .     A
C206   C765    1.391   .     S
C206   H777    1.083   .     S
C207   H218    1.076   .     S
C207   C764    1.391   1_554 S
C207   C766    1.417   1_554 S
C208   C209    1.404   .     A
C208   C765    1.417   .     S
C208   C768    1.424   .     S
C209   C216    1.421   .     A
C209   C213    1.410   .     A
C210   C214    1.388   .     A
C210   C766    1.424   1_554 S
C210   C769    1.428   1_554 S
C211   C212    1.398   .     A
C211   C759    1.422   .     S
C211   C768    1.428   .     S
C212   C213    1.381   .     A
C213   H220    1.082   .     S
C214   H217    1.074   .     S
H219   C764    1.083   1_554 S
C221   C230    1.396   .     A
C221   H222    1.083   .     S
C221   C409    1.371   .     S
C223   H224    1.084   .     S
C223   C225    1.397   .     A
C225   C226    1.396   .     A
C226   H227    1.083   .     S
C228   C230    1.397   .     A
C228   H229    1.084   .     S
C228   C412    1.370   .     S
C231   N239    1.366   .     A
C231   H232    1.082   .     S
C231   C295    1.417   .     S
C233   H234    1.082   .     S
C233   N235    1.367   .     A
C233   C355    1.417   1_455 S
N235   C236    1.358   .     A
C236   H237    1.082   .     S
C236   C362    1.415   1_455 S
C238   N240    1.429   .     S
C238   N239    1.380   .     A
C238   C298    1.415   .     S
N240   O242    1.301   .     A
N240   O241    1.299   .     A
C243   H244    1.083   .     S
C243   C759    1.490   .     S
C243   O307    1.221   .     S
O245   C367    1.221   1_455 S
N246   O248    1.299   .     A
N246   O247    1.301   .     A
O249   Zn255   1.996   .     S
O249   C251    1.282   .     A
O250   C251    1.285   .     A
O250   Zn256   2.001   .     S
C251   C292    1.418   .     S
O252   Zn255   1.956   .     S
O252   C254    1.312   .     A
O253   Zn256   1.928   .     S
O253   C254    1.295   .     A
C254   C278    1.487   .     S
Zn255  O259    1.928   .     S
Zn255  N297    2.012   .     S
Zn255  O257    2.001   .     S
Zn256  N301    2.012   .     S
Zn256  O260    1.956   .     S
Zn256  O258    1.996   .     S
O257   C261    1.285   .     A
O258   C261    1.283   .     A
O259   C262    1.291   .     A
O260   C262    1.292   .     A
C261   C287    1.418   .     S
C262   C266    1.453   .     S
C263   C277    1.401   .     A
C263   C831    1.422   1_554 S
C263   C863    1.490   1_554 S
H264   C277    1.084   .     S
H265   C274    1.079   .     S
C266   C277    1.395   .     A
C266   C276    1.389   .     A
C267   N308    1.443   .     S
C267   C278    1.417   .     A
C267   C268    1.401   .     A
C268   C827    1.391   .     S
C268   H839    1.083   .     S
C269   H280    1.076   .     S
C269   C826    1.391   1_554 S
C269   C828    1.417   1_554 S
C270   C271    1.404   .     A
C270   C827    1.417   .     S
C270   C830    1.424   .     S
C271   C278    1.421   .     A
C271   C275    1.410   .     A
C272   C276    1.388   .     A
C272   C828    1.424   1_554 S
C272   C831    1.428   1_554 S
C273   C274    1.398   .     A
C273   C821    1.422   .     S
C273   C830    1.428   .     S
C274   C275    1.381   .     A
C275   H282    1.082   .     S
C276   H279    1.074   .     S
H281   C826    1.083   1_554 S
C283   C292    1.396   .     A
C283   H284    1.083   .     S
C283   C471    1.371   .     S
C285   H286    1.084   .     S
C285   C287    1.397   .     A
C287   C288    1.396   .     A
C288   H289    1.083   .     S
C290   C292    1.397   .     A
C290   H291    1.084   .     S
C290   C474    1.370   .     S
C293   N301    1.366   .     A
C293   H294    1.082   .     S
C293   C357    1.417   .     S
C295   H296    1.082   .     S
C295   N297    1.367   .     A
N297   C298    1.358   .     A
C298   H299    1.082   .     S
C300   N302    1.429   .     S
C300   N301    1.380   .     A
C300   C360    1.415   .     S
N302   O304    1.301   .     A
N302   O303    1.299   .     A
C305   H306    1.083   .     S
C305   C821    1.490   .     S
C305   O369    1.221   .     S
N308   O310    1.299   .     A
N308   O309    1.301   .     A
O311   Zn317   1.996   .     S
O311   C313    1.282   .     A
O312   C313    1.285   .     A
O312   Zn318   2.001   .     S
C313   C354    1.418   .     S
O314   Zn317   1.956   .     S
O314   C316    1.312   .     A
O315   Zn318   1.928   .     S
O315   C316    1.295   .     A
C316   C340    1.487   .     S
Zn317  O321    1.928   .     S
Zn317  N359    2.012   .     S
Zn317  O319    2.001   .     S
Zn318  N363    2.012   .     S
Zn318  O322    1.956   .     S
Zn318  O320    1.996   .     S
O319   C323    1.285   .     A
O320   C323    1.283   .     A
O321   C324    1.291   .     A
O322   C324    1.292   .     A
C323   C349    1.418   .     S
C324   C328    1.453   .     S
C325   C339    1.401   .     A
C325   C893    1.422   1_554 S
C325   C925    1.490   1_554 S
H326   C339    1.084   .     S
H327   C336    1.079   .     S
C328   C339    1.395   .     A
C328   C338    1.389   .     A
C329   N370    1.443   .     S
C329   C340    1.417   .     A
C329   C330    1.401   .     A
C330   C889    1.391   .     S
C330   H901    1.083   .     S
C331   H342    1.076   .     S
C331   C888    1.391   1_554 S
C331   C890    1.417   1_554 S
C332   C333    1.404   .     A
C332   C889    1.417   .     S
C332   C892    1.424   .     S
C333   C340    1.421   .     A
C333   C337    1.410   .     A
C334   C338    1.388   .     A
C334   C890    1.424   1_554 S
C334   C893    1.428   1_554 S
C335   C336    1.398   .     A
C335   C883    1.422   .     S
C335   C892    1.428   .     S
C336   C337    1.381   .     A
C337   H344    1.082   .     S
C338   H341    1.074   .     S
H343   C888    1.083   1_554 S
C345   C354    1.396   .     A
C345   H346    1.083   .     S
C345   C533    1.371   .     S
C347   H348    1.084   .     S
C347   C349    1.397   .     A
C349   C350    1.396   .     A
C350   H351    1.083   .     S
C352   C354    1.397   .     A
C352   H353    1.084   .     S
C352   C536    1.370   .     S
C355   N363    1.366   .     A
C355   H356    1.082   .     S
C355   C233    1.417   1_655 S
C357   H358    1.082   .     S
C357   N359    1.367   .     A
N359   C360    1.358   .     A
C360   H361    1.082   .     S
C362   N364    1.429   .     S
C362   N363    1.380   .     A
C362   C236    1.415   1_655 S
N364   O366    1.301   .     A
N364   O365    1.299   .     A
C367   H368    1.083   .     S
C367   C883    1.490   .     S
C367   O245    1.221   1_655 S
N370   O372    1.299   .     A
N370   O371    1.301   .     A
O373   Zn379   1.996   .     S
O373   C375    1.282   .     A
O374   C375    1.285   .     A
O374   Zn380   2.001   .     S
C375   C416    1.418   .     S
O376   Zn379   1.956   .     S
O376   C378    1.312   .     A
O377   Zn380   1.928   .     S
O377   C378    1.295   .     A
C378   C402    1.487   .     S
Zn379  O383    1.928   .     S
Zn379  N421    2.012   .     S
Zn379  O381    2.001   .     S
Zn380  N425    2.012   .     S
Zn380  O384    1.956   .     S
Zn380  O382    1.996   .     S
O381   C385    1.285   .     A
O382   C385    1.283   .     A
O383   C386    1.291   .     A
O384   C386    1.292   .     A
C385   C411    1.418   .     S
C386   C390    1.453   .     S
C387   C401    1.401   .     A
C387   C955    1.422   1_554 S
C387   C987    1.490   1_554 S
H388   C401    1.084   .     S
H389   C398    1.079   .     S
C390   C401    1.395   .     A
C390   C400    1.389   .     A
C391   N432    1.443   .     S
C391   C402    1.417   .     A
C391   C392    1.401   .     A
C392   C951    1.391   .     S
C392   H963    1.083   .     S
C393   H404    1.076   .     S
C393   C950    1.391   1_554 S
C393   C952    1.417   1_554 S
C394   C395    1.404   .     A
C394   C951    1.417   .     S
C394   C954    1.424   .     S
C395   C402    1.421   .     A
C395   C399    1.410   .     A
C396   C400    1.388   .     A
C396   C952    1.424   1_554 S
C396   C955    1.428   1_554 S
C397   C398    1.398   .     A
C397   C945    1.422   .     S
C397   C954    1.428   .     S
C398   C399    1.381   .     A
C399   H406    1.082   .     S
C400   H403    1.074   .     S
H405   C950    1.083   1_554 S
C407   C416    1.396   .     A
C407   H408    1.083   .     S
C407   C37     1.371   1_565 S
C409   H410    1.084   .     S
C409   C411    1.397   .     A
C411   C412    1.396   .     A
C412   H413    1.083   .     S
C414   C416    1.397   .     A
C414   H415    1.084   .     S
C414   C40     1.370   1_565 S
C417   N425    1.366   .     A
C417   H418    1.082   .     S
C417   C481    1.417   .     S
C419   H420    1.082   .     S
C419   N421    1.367   .     A
C419   C541    1.417   1_455 S
N421   C422    1.358   .     A
C422   H423    1.082   .     S
C422   C548    1.415   1_455 S
C424   N426    1.429   .     S
C424   N425    1.380   .     A
C424   C484    1.415   .     S
N426   O428    1.301   .     A
N426   O427    1.299   .     A
C429   H430    1.083   .     S
C429   C945    1.490   .     S
C429   O493    1.221   .     S
O431   C553    1.221   1_455 S
N432   O434    1.299   .     A
N432   O433    1.301   .     A
O435   Zn441   1.996   .     S
O435   C437    1.282   .     A
O436   C437    1.285   .     A
O436   Zn442   2.001   .     S
C437   C478    1.418   .     S
O438   Zn441   1.956   .     S
O438   C440    1.312   .     A
O439   Zn442   1.928   .     S
O439   C440    1.295   .     A
C440   C464    1.487   .     S
Zn441  O445    1.928   .     S
Zn441  N483    2.012   .     S
Zn441  O443    2.001   .     S
Zn442  N487    2.012   .     S
Zn442  O446    1.956   .     S
Zn442  O444    1.996   .     S
O443   C447    1.285   .     A
O444   C447    1.283   .     A
O445   C448    1.291   .     A
O446   C448    1.292   .     A
C447   C473    1.418   .     S
C448   C452    1.453   .     S
C449   C463    1.401   .     A
C449   C1017   1.422   1_554 S
C449   C1049   1.490   1_554 S
H450   C463    1.084   .     S
H451   C460    1.079   .     S
C452   C463    1.395   .     A
C452   C462    1.389   .     A
C453   N494    1.443   .     S
C453   C464    1.417   .     A
C453   C454    1.401   .     A
C454   C1013   1.391   .     S
C454   H1025   1.083   .     S
C455   H466    1.076   .     S
C455   C1012   1.391   1_554 S
C455   C1014   1.417   1_554 S
C456   C457    1.404   .     A
C456   C1013   1.417   .     S
C456   C1016   1.424   .     S
C457   C464    1.421   .     A
C457   C461    1.410   .     A
C458   C462    1.388   .     A
C458   C1014   1.424   1_554 S
C458   C1017   1.428   1_554 S
C459   C460    1.398   .     A
C459   C1007   1.422   .     S
C459   C1016   1.428   .     S
C460   C461    1.381   .     A
C461   H468    1.082   .     S
C462   H465    1.074   .     S
H467   C1012   1.083   1_554 S
C469   C478    1.396   .     A
C469   H470    1.083   .     S
C469   C99     1.371   1_565 S
C471   H472    1.084   .     S
C471   C473    1.397   .     A
C473   C474    1.396   .     A
C474   H475    1.083   .     S
C476   C478    1.397   .     A
C476   H477    1.084   .     S
C476   C102    1.370   1_565 S
C479   N487    1.366   .     A
C479   H480    1.082   .     S
C479   C543    1.417   .     S
C481   H482    1.082   .     S
C481   N483    1.367   .     A
N483   C484    1.358   .     A
C484   H485    1.082   .     S
C486   N488    1.429   .     S
C486   N487    1.380   .     A
C486   C546    1.415   .     S
N488   O490    1.301   .     A
N488   O489    1.299   .     A
C491   H492    1.083   .     S
C491   C1007   1.490   .     S
C491   O555    1.221   .     S
N494   O496    1.299   .     A
N494   O495    1.301   .     A
O497   Zn503   1.996   .     S
O497   C499    1.282   .     A
O498   C499    1.285   .     A
O498   Zn504   2.001   .     S
C499   C540    1.418   .     S
O500   Zn503   1.956   .     S
O500   C502    1.312   .     A
O501   Zn504   1.928   .     S
O501   C502    1.295   .     A
C502   C526    1.487   .     S
Zn503  O507    1.928   .     S
Zn503  N545    2.012   .     S
Zn503  O505    2.001   .     S
Zn504  N549    2.012   .     S
Zn504  O508    1.956   .     S
Zn504  O506    1.996   .     S
O505   C509    1.285   .     A
O506   C509    1.283   .     A
O507   C510    1.291   .     A
O508   C510    1.292   .     A
C509   C535    1.418   .     S
C510   C514    1.453   .     S
C511   C525    1.401   .     A
C511   C1079   1.422   1_554 S
C511   C1111   1.490   1_554 S
H512   C525    1.084   .     S
H513   C522    1.079   .     S
C514   C525    1.395   .     A
C514   C524    1.389   .     A
C515   N556    1.443   .     S
C515   C526    1.417   .     A
C515   C516    1.401   .     A
C516   C1075   1.391   .     S
C516   H1087   1.083   .     S
C517   H528    1.076   .     S
C517   C1074   1.391   1_554 S
C517   C1076   1.417   1_554 S
C518   C519    1.404   .     A
C518   C1075   1.417   .     S
C518   C1078   1.424   .     S
C519   C526    1.421   .     A
C519   C523    1.410   .     A
C520   C524    1.388   .     A
C520   C1076   1.424   1_554 S
C520   C1079   1.428   1_554 S
C521   C522    1.398   .     A
C521   C1069   1.422   .     S
C521   C1078   1.428   .     S
C522   C523    1.381   .     A
C523   H530    1.082   .     S
C524   H527    1.074   .     S
H529   C1074   1.083   1_554 S
C531   C540    1.396   .     A
C531   H532    1.083   .     S
C531   C161    1.371   1_565 S
C533   H534    1.084   .     S
C533   C535    1.397   .     A
C535   C536    1.396   .     A
C536   H537    1.083   .     S
C538   C540    1.397   .     A
C538   H539    1.084   .     S
C538   C164    1.370   1_565 S
C541   N549    1.366   .     A
C541   H542    1.082   .     S
C541   C419    1.417   1_655 S
C543   H544    1.082   .     S
C543   N545    1.367   .     A
N545   C546    1.358   .     A
C546   H547    1.082   .     S
C548   N550    1.429   .     S
C548   N549    1.380   .     A
C548   C422    1.415   1_655 S
N550   O552    1.301   .     A
N550   O551    1.299   .     A
C553   H554    1.083   .     S
C553   C1069   1.490   .     S
C553   O431    1.221   1_655 S
N556   O558    1.299   .     A
N556   O557    1.301   .     A
O559   Zn565   1.996   .     S
O559   C561    1.282   .     A
O560   C561    1.285   .     A
O560   Zn566   2.001   .     S
C561   C602    1.418   .     S
O562   Zn565   1.956   .     S
O562   C564    1.312   .     A
O563   Zn566   1.928   .     S
O563   C564    1.295   .     A
C564   C588    1.487   .     S
Zn565  O569    1.928   .     S
Zn565  N607    2.012   .     S
Zn565  O567    2.001   .     S
Zn566  N611    2.012   .     S
Zn566  O570    1.956   .     S
Zn566  O568    1.996   .     S
O567   C571    1.285   .     A
O568   C571    1.283   .     A
O569   C572    1.291   .     A
O570   C572    1.292   .     A
C571   C597    1.418   .     S
C572   C576    1.453   .     S
C573   C587    1.401   .     A
H574   C587    1.084   .     S
H575   C584    1.079   .     S
C576   C587    1.395   .     A
C576   C586    1.389   .     A
C577   N618    1.443   .     S
C577   C588    1.417   .     A
C577   C578    1.401   .     A
C578   C21     1.391   1_556 S
C578   H33     1.083   1_556 S
C579   H590    1.076   .     S
C580   C581    1.404   .     A
C580   C21     1.417   1_556 S
C580   C24     1.424   1_556 S
C581   C588    1.421   .     A
C581   C585    1.410   .     A
C582   C586    1.388   .     A
C583   C584    1.398   .     A
C583   C15     1.422   1_556 S
C583   C24     1.428   1_556 S
C584   C585    1.381   .     A
C585   H592    1.082   .     S
C586   H589    1.074   .     S
C593   C602    1.396   .     A
C593   H594    1.083   .     S
C593   C781    1.371   .     S
C595   H596    1.084   .     S
C595   C597    1.397   .     A
C595   C965    1.371   1_545 S
C597   C598    1.396   .     A
C598   H599    1.083   .     S
C598   C972    1.370   1_545 S
C600   C602    1.397   .     A
C600   H601    1.084   .     S
C600   C784    1.370   .     S
C603   N611    1.366   .     A
C603   H604    1.082   .     S
C603   C667    1.417   .     S
C605   H606    1.082   .     S
C605   N607    1.367   .     A
C605   C727    1.417   1_455 S
N607   C608    1.358   .     A
C608   H609    1.082   .     S
C608   C734    1.415   1_455 S
C610   N612    1.429   .     S
C610   N611    1.380   .     A
C610   C670    1.415   .     S
N612   O614    1.301   .     A
N612   O613    1.299   .     A
C615   H616    1.083   .     S
C615   C15     1.490   1_556 S
C615   O679    1.221   .     S
O617   C739    1.221   1_455 S
N618   O620    1.299   .     A
N618   O619    1.301   .     A
O621   Zn627   1.996   .     S
O621   C623    1.282   .     A
O622   C623    1.285   .     A
O622   Zn628   2.001   .     S
C623   C664    1.418   .     S
O624   Zn627   1.956   .     S
O624   C626    1.312   .     A
O625   Zn628   1.928   .     S
O625   C626    1.295   .     A
C626   C650    1.487   .     S
Zn627  O631    1.928   .     S
Zn627  N669    2.012   .     S
Zn627  O629    2.001   .     S
Zn628  N673    2.012   .     S
Zn628  O632    1.956   .     S
Zn628  O630    1.996   .     S
O629   C633    1.285   .     A
O630   C633    1.283   .     A
O631   C634    1.291   .     A
O632   C634    1.292   .     A
C633   C659    1.418   .     S
C634   C638    1.453   .     S
C635   C649    1.401   .     A
H636   C649    1.084   .     S
H637   C646    1.079   .     S
C638   C649    1.395   .     A
C638   C648    1.389   .     A
C639   N680    1.443   .     S
C639   C650    1.417   .     A
C639   C640    1.401   .     A
C640   C83     1.391   1_556 S
C640   H95     1.083   1_556 S
C641   H652    1.076   .     S
C642   C643    1.404   .     A
C642   C83     1.417   1_556 S
C642   C86     1.424   1_556 S
C643   C650    1.421   .     A
C643   C647    1.410   .     A
C644   C648    1.388   .     A
C645   C646    1.398   .     A
C645   C77     1.422   1_556 S
C645   C86     1.428   1_556 S
C646   C647    1.381   .     A
C647   H654    1.082   .     S
C648   H651    1.074   .     S
C655   C664    1.396   .     A
C655   H656    1.083   .     S
C655   C843    1.371   .     S
C657   H658    1.084   .     S
C657   C659    1.397   .     A
C657   C1027   1.371   1_545 S
C659   C660    1.396   .     A
C660   H661    1.083   .     S
C660   C1034   1.370   1_545 S
C662   C664    1.397   .     A
C662   H663    1.084   .     S
C662   C846    1.370   .     S
C665   N673    1.366   .     A
C665   H666    1.082   .     S
C665   C729    1.417   .     S
C667   H668    1.082   .     S
C667   N669    1.367   .     A
N669   C670    1.358   .     A
C670   H671    1.082   .     S
C672   N674    1.429   .     S
C672   N673    1.380   .     A
C672   C732    1.415   .     S
N674   O676    1.301   .     A
N674   O675    1.299   .     A
C677   H678    1.083   .     S
C677   C77     1.490   1_556 S
C677   O741    1.221   .     S
N680   O682    1.299   .     A
N680   O681    1.301   .     A
O683   Zn689   1.996   .     S
O683   C685    1.282   .     A
O684   C685    1.285   .     A
O684   Zn690   2.001   .     S
C685   C726    1.418   .     S
O686   Zn689   1.956   .     S
O686   C688    1.312   .     A
O687   Zn690   1.928   .     S
O687   C688    1.295   .     A
C688   C712    1.487   .     S
Zn689  O693    1.928   .     S
Zn689  N731    2.012   .     S
Zn689  O691    2.001   .     S
Zn690  N735    2.012   .     S
Zn690  O694    1.956   .     S
Zn690  O692    1.996   .     S
O691   C695    1.285   .     A
O692   C695    1.283   .     A
O693   C696    1.291   .     A
O694   C696    1.292   .     A
C695   C721    1.418   .     S
C696   C700    1.453   .     S
C697   C711    1.401   .     A
H698   C711    1.084   .     S
H699   C708    1.079   .     S
C700   C711    1.395   .     A
C700   C710    1.389   .     A
C701   N742    1.443   .     S
C701   C712    1.417   .     A
C701   C702    1.401   .     A
C702   C145    1.391   1_556 S
C702   H157    1.083   1_556 S
C703   H714    1.076   .     S
C704   C705    1.404   .     A
C704   C145    1.417   1_556 S
C704   C148    1.424   1_556 S
C705   C712    1.421   .     A
C705   C709    1.410   .     A
C706   C710    1.388   .     A
C707   C708    1.398   .     A
C707   C139    1.422   1_556 S
C707   C148    1.428   1_556 S
C708   C709    1.381   .     A
C709   H716    1.082   .     S
C710   H713    1.074   .     S
C717   C726    1.396   .     A
C717   H718    1.083   .     S
C717   C905    1.371   .     S
C719   H720    1.084   .     S
C719   C721    1.397   .     A
C719   C1089   1.371   1_545 S
C721   C722    1.396   .     A
C722   H723    1.083   .     S
C722   C1096   1.370   1_545 S
C724   C726    1.397   .     A
C724   H725    1.084   .     S
C724   C908    1.370   .     S
C727   N735    1.366   .     A
C727   H728    1.082   .     S
C727   C605    1.417   1_655 S
C729   H730    1.082   .     S
C729   N731    1.367   .     A
N731   C732    1.358   .     A
C732   H733    1.082   .     S
C734   N736    1.429   .     S
C734   N735    1.380   .     A
C734   C608    1.415   1_655 S
N736   O738    1.301   .     A
N736   O737    1.299   .     A
C739   H740    1.083   .     S
C739   C139    1.490   1_556 S
C739   O617    1.221   1_655 S
N742   O744    1.299   .     A
N742   O743    1.301   .     A
O745   Zn751   1.996   .     S
O745   C747    1.282   .     A
O746   C747    1.285   .     A
O746   Zn752   2.001   .     S
C747   C788    1.418   .     S
O748   Zn751   1.956   .     S
O748   C750    1.312   .     A
O749   Zn752   1.928   .     S
O749   C750    1.295   .     A
C750   C774    1.487   .     S
Zn751  O755    1.928   .     S
Zn751  N793    2.012   .     S
Zn751  O753    2.001   .     S
Zn752  N797    2.012   .     S
Zn752  O756    1.956   .     S
Zn752  O754    1.996   .     S
O753   C757    1.285   .     A
O754   C757    1.283   .     A
O755   C758    1.291   .     A
O756   C758    1.292   .     A
C757   C783    1.418   .     S
C758   C762    1.453   .     S
C759   C773    1.401   .     A
H760   C773    1.084   .     S
H761   C770    1.079   .     S
C762   C773    1.395   .     A
C762   C772    1.389   .     A
C763   N804    1.443   .     S
C763   C774    1.417   .     A
C763   C764    1.401   .     A
C764   C207    1.391   1_556 S
C764   H219    1.083   1_556 S
C765   H776    1.076   .     S
C766   C767    1.404   .     A
C766   C207    1.417   1_556 S
C766   C210    1.424   1_556 S
C767   C774    1.421   .     A
C767   C771    1.410   .     A
C768   C772    1.388   .     A
C769   C770    1.398   .     A
C769   C201    1.422   1_556 S
C769   C210    1.428   1_556 S
C770   C771    1.381   .     A
C771   H778    1.082   .     S
C772   H775    1.074   .     S
C779   C788    1.396   .     A
C779   H780    1.083   .     S
C779   C967    1.371   .     S
C781   H782    1.084   .     S
C781   C783    1.397   .     A
C783   C784    1.396   .     A
C784   H785    1.083   .     S
C786   C788    1.397   .     A
C786   H787    1.084   .     S
C786   C970    1.370   .     S
C789   N797    1.366   .     A
C789   H790    1.082   .     S
C789   C853    1.417   .     S
C791   H792    1.082   .     S
C791   N793    1.367   .     A
C791   C913    1.417   1_455 S
N793   C794    1.358   .     A
C794   H795    1.082   .     S
C794   C920    1.415   1_455 S
C796   N798    1.429   .     S
C796   N797    1.380   .     A
C796   C856    1.415   .     S
N798   O800    1.301   .     A
N798   O799    1.299   .     A
C801   H802    1.083   .     S
C801   C201    1.490   1_556 S
C801   O865    1.221   .     S
O803   C925    1.221   1_455 S
N804   O806    1.299   .     A
N804   O805    1.301   .     A
O807   Zn813   1.996   .     S
O807   C809    1.282   .     A
O808   C809    1.285   .     A
O808   Zn814   2.001   .     S
C809   C850    1.418   .     S
O810   Zn813   1.956   .     S
O810   C812    1.312   .     A
O811   Zn814   1.928   .     S
O811   C812    1.295   .     A
C812   C836    1.487   .     S
Zn813  O817    1.928   .     S
Zn813  N855    2.012   .     S
Zn813  O815    2.001   .     S
Zn814  N859    2.012   .     S
Zn814  O818    1.956   .     S
Zn814  O816    1.996   .     S
O815   C819    1.285   .     A
O816   C819    1.283   .     A
O817   C820    1.291   .     A
O818   C820    1.292   .     A
C819   C845    1.418   .     S
C820   C824    1.453   .     S
C821   C835    1.401   .     A
H822   C835    1.084   .     S
H823   C832    1.079   .     S
C824   C835    1.395   .     A
C824   C834    1.389   .     A
C825   N866    1.443   .     S
C825   C836    1.417   .     A
C825   C826    1.401   .     A
C826   C269    1.391   1_556 S
C826   H281    1.083   1_556 S
C827   H838    1.076   .     S
C828   C829    1.404   .     A
C828   C269    1.417   1_556 S
C828   C272    1.424   1_556 S
C829   C836    1.421   .     A
C829   C833    1.410   .     A
C830   C834    1.388   .     A
C831   C832    1.398   .     A
C831   C263    1.422   1_556 S
C831   C272    1.428   1_556 S
C832   C833    1.381   .     A
C833   H840    1.082   .     S
C834   H837    1.074   .     S
C841   C850    1.396   .     A
C841   H842    1.083   .     S
C841   C1029   1.371   .     S
C843   H844    1.084   .     S
C843   C845    1.397   .     A
C845   C846    1.396   .     A
C846   H847    1.083   .     S
C848   C850    1.397   .     A
C848   H849    1.084   .     S
C848   C1032   1.370   .     S
C851   N859    1.366   .     A
C851   H852    1.082   .     S
C851   C915    1.417   .     S
C853   H854    1.082   .     S
C853   N855    1.367   .     A
N855   C856    1.358   .     A
C856   H857    1.082   .     S
C858   N860    1.429   .     S
C858   N859    1.380   .     A
C858   C918    1.415   .     S
N860   O862    1.301   .     A
N860   O861    1.299   .     A
C863   H864    1.083   .     S
C863   C263    1.490   1_556 S
C863   O927    1.221   .     S
N866   O868    1.299   .     A
N866   O867    1.301   .     A
O869   Zn875   1.996   .     S
O869   C871    1.282   .     A
O870   C871    1.285   .     A
O870   Zn876   2.001   .     S
C871   C912    1.418   .     S
O872   Zn875   1.956   .     S
O872   C874    1.312   .     A
O873   Zn876   1.928   .     S
O873   C874    1.295   .     A
C874   C898    1.487   .     S
Zn875  O879    1.928   .     S
Zn875  N917    2.012   .     S
Zn875  O877    2.001   .     S
Zn876  N921    2.012   .     S
Zn876  O880    1.956   .     S
Zn876  O878    1.996   .     S
O877   C881    1.285   .     A
O878   C881    1.283   .     A
O879   C882    1.291   .     A
O880   C882    1.292   .     A
C881   C907    1.418   .     S
C882   C886    1.453   .     S
C883   C897    1.401   .     A
H884   C897    1.084   .     S
H885   C894    1.079   .     S
C886   C897    1.395   .     A
C886   C896    1.389   .     A
C887   N928    1.443   .     S
C887   C898    1.417   .     A
C887   C888    1.401   .     A
C888   C331    1.391   1_556 S
C888   H343    1.083   1_556 S
C889   H900    1.076   .     S
C890   C891    1.404   .     A
C890   C331    1.417   1_556 S
C890   C334    1.424   1_556 S
C891   C898    1.421   .     A
C891   C895    1.410   .     A
C892   C896    1.388   .     A
C893   C894    1.398   .     A
C893   C325    1.422   1_556 S
C893   C334    1.428   1_556 S
C894   C895    1.381   .     A
C895   H902    1.082   .     S
C896   H899    1.074   .     S
C903   C912    1.396   .     A
C903   H904    1.083   .     S
C903   C1091   1.371   .     S
C905   H906    1.084   .     S
C905   C907    1.397   .     A
C907   C908    1.396   .     A
C908   H909    1.083   .     S
C910   C912    1.397   .     A
C910   H911    1.084   .     S
C910   C1094   1.370   .     S
C913   N921    1.366   .     A
C913   H914    1.082   .     S
C913   C791    1.417   1_655 S
C915   H916    1.082   .     S
C915   N917    1.367   .     A
N917   C918    1.358   .     A
C918   H919    1.082   .     S
C920   N922    1.429   .     S
C920   N921    1.380   .     A
C920   C794    1.415   1_655 S
N922   O924    1.301   .     A
N922   O923    1.299   .     A
C925   H926    1.083   .     S
C925   C325    1.490   1_556 S
C925   O803    1.221   1_655 S
N928   O930    1.299   .     A
N928   O929    1.301   .     A
O931   Zn937   1.996   .     S
O931   C933    1.282   .     A
O932   C933    1.285   .     A
O932   Zn938   2.001   .     S
C933   C974    1.418   .     S
O934   Zn937   1.956   .     S
O934   C936    1.312   .     A
O935   Zn938   1.928   .     S
O935   C936    1.295   .     A
C936   C960    1.487   .     S
Zn937  O941    1.928   .     S
Zn937  N979    2.012   .     S
Zn937  O939    2.001   .     S
Zn938  N983    2.012   .     S
Zn938  O942    1.956   .     S
Zn938  O940    1.996   .     S
O939   C943    1.285   .     A
O940   C943    1.283   .     A
O941   C944    1.291   .     A
O942   C944    1.292   .     A
C943   C969    1.418   .     S
C944   C948    1.453   .     S
C945   C959    1.401   .     A
H946   C959    1.084   .     S
H947   C956    1.079   .     S
C948   C959    1.395   .     A
C948   C958    1.389   .     A
C949   N990    1.443   .     S
C949   C960    1.417   .     A
C949   C950    1.401   .     A
C950   C393    1.391   1_556 S
C950   H405    1.083   1_556 S
C951   H962    1.076   .     S
C952   C953    1.404   .     A
C952   C393    1.417   1_556 S
C952   C396    1.424   1_556 S
C953   C960    1.421   .     A
C953   C957    1.410   .     A
C954   C958    1.388   .     A
C955   C956    1.398   .     A
C955   C387    1.422   1_556 S
C955   C396    1.428   1_556 S
C956   C957    1.381   .     A
C957   H964    1.082   .     S
C958   H961    1.074   .     S
C965   C974    1.396   .     A
C965   H966    1.083   .     S
C965   C595    1.371   1_565 S
C967   H968    1.084   .     S
C967   C969    1.397   .     A
C969   C970    1.396   .     A
C970   H971    1.083   .     S
C972   C974    1.397   .     A
C972   H973    1.084   .     S
C972   C598    1.370   1_565 S
C975   N983    1.366   .     A
C975   H976    1.082   .     S
C975   C1039   1.417   .     S
C977   H978    1.082   .     S
C977   N979    1.367   .     A
C977   C1099   1.417   1_455 S
N979   C980    1.358   .     A
C980   H981    1.082   .     S
C980   C1106   1.415   1_455 S
C982   N984    1.429   .     S
C982   N983    1.380   .     A
C982   C1042   1.415   .     S
N984   O986    1.301   .     A
N984   O985    1.299   .     A
C987   H988    1.083   .     S
C987   C387    1.490   1_556 S
C987   O1051   1.221   .     S
O989   C1111   1.221   1_455 S
N990   O992    1.299   .     A
N990   O991    1.301   .     A
O993   Zn999   1.996   .     S
O993   C995    1.282   .     A
O994   C995    1.285   .     A
O994   Zn1000  2.001   .     S
C995   C1036   1.418   .     S
O996   Zn999   1.956   .     S
O996   C998    1.312   .     A
O997   Zn1000  1.928   .     S
O997   C998    1.295   .     A
C998   C1022   1.487   .     S
Zn999  O1003   1.928   .     S
Zn999  N1041   2.012   .     S
Zn999  O1001   2.001   .     S
Zn1000 N1045   2.012   .     S
Zn1000 O1004   1.956   .     S
Zn1000 O1002   1.996   .     S
O1001  C1005   1.285   .     A
O1002  C1005   1.283   .     A
O1003  C1006   1.291   .     A
O1004  C1006   1.292   .     A
C1005  C1031   1.418   .     S
C1006  C1010   1.453   .     S
C1007  C1021   1.401   .     A
H1008  C1021   1.084   .     S
H1009  C1018   1.079   .     S
C1010  C1021   1.395   .     A
C1010  C1020   1.389   .     A
C1011  N1052   1.443   .     S
C1011  C1022   1.417   .     A
C1011  C1012   1.401   .     A
C1012  C455    1.391   1_556 S
C1012  H467    1.083   1_556 S
C1013  H1024   1.076   .     S
C1014  C1015   1.404   .     A
C1014  C455    1.417   1_556 S
C1014  C458    1.424   1_556 S
C1015  C1022   1.421   .     A
C1015  C1019   1.410   .     A
C1016  C1020   1.388   .     A
C1017  C1018   1.398   .     A
C1017  C449    1.422   1_556 S
C1017  C458    1.428   1_556 S
C1018  C1019   1.381   .     A
C1019  H1026   1.082   .     S
C1020  H1023   1.074   .     S
C1027  C1036   1.396   .     A
C1027  H1028   1.083   .     S
C1027  C657    1.371   1_565 S
C1029  H1030   1.084   .     S
C1029  C1031   1.397   .     A
C1031  C1032   1.396   .     A
C1032  H1033   1.083   .     S
C1034  C1036   1.397   .     A
C1034  H1035   1.084   .     S
C1034  C660    1.370   1_565 S
C1037  N1045   1.366   .     A
C1037  H1038   1.082   .     S
C1037  C1101   1.417   .     S
C1039  H1040   1.082   .     S
C1039  N1041   1.367   .     A
N1041  C1042   1.358   .     A
C1042  H1043   1.082   .     S
C1044  N1046   1.429   .     S
C1044  N1045   1.380   .     A
C1044  C1104   1.415   .     S
N1046  O1048   1.301   .     A
N1046  O1047   1.299   .     A
C1049  H1050   1.083   .     S
C1049  C449    1.490   1_556 S
C1049  O1113   1.221   .     S
N1052  O1054   1.299   .     A
N1052  O1053   1.301   .     A
O1055  Zn1061  1.996   .     S
O1055  C1057   1.282   .     A
O1056  C1057   1.285   .     A
O1056  Zn1062  2.001   .     S
C1057  C1098   1.418   .     S
O1058  Zn1061  1.956   .     S
O1058  C1060   1.312   .     A
O1059  Zn1062  1.928   .     S
O1059  C1060   1.295   .     A
C1060  C1084   1.487   .     S
Zn1061 O1065   1.928   .     S
Zn1061 N1103   2.012   .     S
Zn1061 O1063   2.001   .     S
Zn1062 N1107   2.012   .     S
Zn1062 O1066   1.956   .     S
Zn1062 O1064   1.996   .     S
O1063  C1067   1.285   .     A
O1064  C1067   1.283   .     A
O1065  C1068   1.291   .     A
O1066  C1068   1.292   .     A
C1067  C1093   1.418   .     S
C1068  C1072   1.453   .     S
C1069  C1083   1.401   .     A
H1070  C1083   1.084   .     S
H1071  C1080   1.079   .     S
C1072  C1083   1.395   .     A
C1072  C1082   1.389   .     A
C1073  N1114   1.443   .     S
C1073  C1084   1.417   .     A
C1073  C1074   1.401   .     A
C1074  C517    1.391   1_556 S
C1074  H529    1.083   1_556 S
C1075  H1086   1.076   .     S
C1076  C1077   1.404   .     A
C1076  C517    1.417   1_556 S
C1076  C520    1.424   1_556 S
C1077  C1084   1.421   .     A
C1077  C1081   1.410   .     A
C1078  C1082   1.388   .     A
C1079  C1080   1.398   .     A
C1079  C511    1.422   1_556 S
C1079  C520    1.428   1_556 S
C1080  C1081   1.381   .     A
C1081  H1088   1.082   .     S
C1082  H1085   1.074   .     S
C1089  C1098   1.396   .     A
C1089  H1090   1.083   .     S
C1089  C719    1.371   1_565 S
C1091  H1092   1.084   .     S
C1091  C1093   1.397   .     A
C1093  C1094   1.396   .     A
C1094  H1095   1.083   .     S
C1096  C1098   1.397   .     A
C1096  H1097   1.084   .     S
C1096  C722    1.370   1_565 S
C1099  N1107   1.366   .     A
C1099  H1100   1.082   .     S
C1099  C977    1.417   1_655 S
C1101  H1102   1.082   .     S
C1101  N1103   1.367   .     A
N1103  C1104   1.358   .     A
C1104  H1105   1.082   .     S
C1106  N1108   1.429   .     S
C1106  N1107   1.380   .     A
C1106  C980    1.415   1_655 S
N1108  O1110   1.301   .     A
N1108  O1109   1.299   .     A
C1111  H1112   1.083   .     S
C1111  C511    1.490   1_556 S
C1111  O989    1.221   1_655 S
N1114  O1116   1.299   .     A
N1114  O1115   1.301   .     A
