data_str_m3_o10_o17_pcu_sym.138
_audit_creation_date              2020-01-03
_audit_creation_method            'Materials Studio'
_symmetry_space_group_name_H-M    'P1'
_symmetry_Int_Tables_number       1
_symmetry_cell_setting            triclinic
loop_
_symmetry_equiv_pos_as_xyz
  x,y,z
_cell_length_a                    23.2901
_cell_length_b                    25.7829
_cell_length_c                    29.7610
_cell_angle_alpha                 91.0909
_cell_angle_beta                  86.2808
_cell_angle_gamma                 93.3179
loop_
_atom_site_label
_atom_site_type_symbol
_atom_site_fract_x
_atom_site_fract_y
_atom_site_fract_z
_atom_site_U_iso_or_equiv
_atom_site_adp_type
_atom_site_occupancy
O1     O     0.12975   0.24619   0.25299   0.00000  Uiso   1.00
O2     O     0.20358   0.08714   0.24702   0.00000  Uiso   1.00
O3     O     0.22613   0.23721   0.24519   0.00000  Uiso   1.00
O4     O     0.10720   0.09613   0.25482   0.00000  Uiso   1.00
C5     C     0.18158   0.26480   0.24895   0.00000  Uiso   1.00
C6     C     0.15175   0.06853   0.25105   0.00000  Uiso   1.00
O7     O     0.11847   0.17117   0.31998   0.00000  Uiso   1.00
O8     O     0.21486   0.16216   0.18003   0.00000  Uiso   1.00
O9     O     0.21485   0.16219   0.31218   0.00000  Uiso   1.00
O10    O     0.11848   0.17115   0.18783   0.00000  Uiso   1.00
C11    C     0.16773   0.16721   0.33632   0.00000  Uiso   1.00
C12    C     0.16561   0.16613   0.16368   0.00000  Uiso   1.00
Zn13   Zn    0.10231   0.17266   0.25521   0.00000  Uiso   1.00
Zn14   Zn    0.23102   0.16067   0.24479   0.00000  Uiso   1.00
C15    C     0.14983   0.11877   0.09331   0.00000  Uiso   1.00
C16    C     0.18350   0.21460   0.40669   0.00000  Uiso   1.00
C17    C     0.16320   0.16545   0.11621   0.00000  Uiso   1.00
C18    C     0.17015   0.16791   0.38379   0.00000  Uiso   1.00
C19    C     0.17770   0.21170   0.09403   0.00000  Uiso   1.00
C20    C     0.15567   0.12166   0.40597   0.00000  Uiso   1.00
C21    C     0.17931   0.21249   0.04762   0.00000  Uiso   1.00
C22    C     0.15406   0.12087   0.45238   0.00000  Uiso   1.00
C23    C     0.16590   0.16619   0.02348   0.00000  Uiso   1.00
C24    C     0.16747   0.16717   0.47653   0.00000  Uiso   1.00
C25    C     0.15096   0.11899   0.04626   0.00000  Uiso   1.00
C26    C     0.18240   0.21437   0.45374   0.00000  Uiso   1.00
C27    C     0.19466   0.25879   0.02512   0.00000  Uiso   1.00
C28    C     0.13872   0.07456   0.47488   0.00000  Uiso   1.00
C29    C     0.19650   0.25974   0.47850   0.00000  Uiso   1.00
C30    C     0.13687   0.07361   0.02151   0.00000  Uiso   1.00
H31    H     0.18834   0.24688   0.11312   0.00000  Uiso   1.00
H32    H     0.14503   0.08646   0.38688   0.00000  Uiso   1.00
H33    H     0.20554   0.29425   0.04360   0.00000  Uiso   1.00
H34    H     0.12785   0.03910   0.45640   0.00000  Uiso   1.00
H35    H     0.20941   0.29610   0.46219   0.00000  Uiso   1.00
H36    H     0.12398   0.03725   0.03782   0.00000  Uiso   1.00
C37    C     0.18763   0.31827   0.24134   0.00000  Uiso   1.00
C38    C     0.14571   0.01507   0.25866   0.00000  Uiso   1.00
N39    N     0.31678   0.15265   0.23783   0.00000  Uiso   1.00
N40    N     0.01656   0.18068   0.26217   0.00000  Uiso   1.00
H41    H     0.00461   0.12755   0.21611   0.00000  Uiso   1.00
H42    H     0.32872   0.20579   0.28389   0.00000  Uiso   1.00
N43    N     0.13696   0.07156   0.11782   0.00000  Uiso   1.00
O44    O     0.09372   0.06812   0.14776   0.00000  Uiso   1.00
O45    O     0.17047   0.03301   0.11206   0.00000  Uiso   1.00
N46    N     0.19629   0.26183   0.38218   0.00000  Uiso   1.00
O47    O     0.23933   0.26522   0.35204   0.00000  Uiso   1.00
O48    O     0.16282   0.30039   0.38807   0.00000  Uiso   1.00
Cl49   Cl    0.24361   0.00437   0.20041   0.00000  Uiso   1.00
Cl50   Cl    0.08974   0.32896   0.29960   0.00000  Uiso   1.00
O51    O     0.46308   0.24619   0.25299   0.00000  Uiso   1.00
O52    O     0.53692   0.08714   0.24702   0.00000  Uiso   1.00
O53    O     0.55946   0.23721   0.24519   0.00000  Uiso   1.00
O54    O     0.44054   0.09613   0.25482   0.00000  Uiso   1.00
C55    C     0.51492   0.26480   0.24895   0.00000  Uiso   1.00
C56    C     0.48508   0.06853   0.25105   0.00000  Uiso   1.00
O57    O     0.45181   0.17117   0.31998   0.00000  Uiso   1.00
O58    O     0.54819   0.16216   0.18003   0.00000  Uiso   1.00
O59    O     0.54819   0.16219   0.31218   0.00000  Uiso   1.00
O60    O     0.45181   0.17115   0.18783   0.00000  Uiso   1.00
C61    C     0.50106   0.16721   0.33632   0.00000  Uiso   1.00
C62    C     0.49894   0.16613   0.16368   0.00000  Uiso   1.00
Zn63   Zn    0.43565   0.17266   0.25521   0.00000  Uiso   1.00
Zn64   Zn    0.56435   0.16067   0.24479   0.00000  Uiso   1.00
C65    C     0.48317   0.11877   0.09331   0.00000  Uiso   1.00
C66    C     0.51683   0.21460   0.40669   0.00000  Uiso   1.00
C67    C     0.49653   0.16545   0.11621   0.00000  Uiso   1.00
C68    C     0.50348   0.16791   0.38379   0.00000  Uiso   1.00
C69    C     0.51103   0.21170   0.09403   0.00000  Uiso   1.00
C70    C     0.48900   0.12166   0.40597   0.00000  Uiso   1.00
C71    C     0.51264   0.21249   0.04762   0.00000  Uiso   1.00
C72    C     0.48740   0.12087   0.45238   0.00000  Uiso   1.00
C73    C     0.49923   0.16619   0.02348   0.00000  Uiso   1.00
C74    C     0.50080   0.16717   0.47653   0.00000  Uiso   1.00
C75    C     0.48429   0.11899   0.04626   0.00000  Uiso   1.00
C76    C     0.51573   0.21437   0.45374   0.00000  Uiso   1.00
C77    C     0.52799   0.25879   0.02512   0.00000  Uiso   1.00
C78    C     0.47206   0.07456   0.47488   0.00000  Uiso   1.00
C79    C     0.52984   0.25974   0.47850   0.00000  Uiso   1.00
C80    C     0.47021   0.07361   0.02151   0.00000  Uiso   1.00
H81    H     0.52168   0.24688   0.11312   0.00000  Uiso   1.00
H82    H     0.47837   0.08646   0.38688   0.00000  Uiso   1.00
H83    H     0.53888   0.29425   0.04360   0.00000  Uiso   1.00
H84    H     0.46118   0.03910   0.45640   0.00000  Uiso   1.00
H85    H     0.54275   0.29610   0.46219   0.00000  Uiso   1.00
H86    H     0.45731   0.03725   0.03782   0.00000  Uiso   1.00
C87    C     0.52096   0.31827   0.24134   0.00000  Uiso   1.00
C88    C     0.47904   0.01507   0.25866   0.00000  Uiso   1.00
N89    N     0.65011   0.15265   0.23783   0.00000  Uiso   1.00
N90    N     0.34989   0.18068   0.26217   0.00000  Uiso   1.00
H91    H     0.33795   0.12755   0.21611   0.00000  Uiso   1.00
H92    H     0.66205   0.20579   0.28389   0.00000  Uiso   1.00
N93    N     0.47029   0.07156   0.11782   0.00000  Uiso   1.00
O94    O     0.42705   0.06812   0.14776   0.00000  Uiso   1.00
O95    O     0.50381   0.03301   0.11206   0.00000  Uiso   1.00
N96    N     0.52963   0.26183   0.38218   0.00000  Uiso   1.00
O97    O     0.57266   0.26522   0.35204   0.00000  Uiso   1.00
O98    O     0.49615   0.30039   0.38807   0.00000  Uiso   1.00
Cl99   Cl    0.57694   0.00437   0.20041   0.00000  Uiso   1.00
Cl100  Cl    0.42307   0.32896   0.29960   0.00000  Uiso   1.00
O101   O     0.79642   0.24619   0.25299   0.00000  Uiso   1.00
O102   O     0.87025   0.08714   0.24702   0.00000  Uiso   1.00
O103   O     0.89280   0.23721   0.24519   0.00000  Uiso   1.00
O104   O     0.77387   0.09613   0.25482   0.00000  Uiso   1.00
C105   C     0.84825   0.26480   0.24895   0.00000  Uiso   1.00
C106   C     0.81842   0.06853   0.25105   0.00000  Uiso   1.00
O107   O     0.78514   0.17117   0.31998   0.00000  Uiso   1.00
O108   O     0.88153   0.16216   0.18003   0.00000  Uiso   1.00
O109   O     0.88152   0.16219   0.31218   0.00000  Uiso   1.00
O110   O     0.78515   0.17115   0.18783   0.00000  Uiso   1.00
C111   C     0.83439   0.16721   0.33632   0.00000  Uiso   1.00
C112   C     0.83228   0.16613   0.16368   0.00000  Uiso   1.00
Zn113  Zn    0.76898   0.17266   0.25521   0.00000  Uiso   1.00
Zn114  Zn    0.89769   0.16067   0.24479   0.00000  Uiso   1.00
C115   C     0.81650   0.11877   0.09331   0.00000  Uiso   1.00
C116   C     0.85016   0.21460   0.40669   0.00000  Uiso   1.00
C117   C     0.82986   0.16545   0.11621   0.00000  Uiso   1.00
C118   C     0.83681   0.16791   0.38379   0.00000  Uiso   1.00
C119   C     0.84436   0.21170   0.09403   0.00000  Uiso   1.00
C120   C     0.82234   0.12166   0.40597   0.00000  Uiso   1.00
C121   C     0.84598   0.21249   0.04762   0.00000  Uiso   1.00
C122   C     0.82073   0.12087   0.45238   0.00000  Uiso   1.00
C123   C     0.83257   0.16619   0.02348   0.00000  Uiso   1.00
C124   C     0.83413   0.16717   0.47653   0.00000  Uiso   1.00
C125   C     0.81763   0.11899   0.04626   0.00000  Uiso   1.00
C126   C     0.84906   0.21437   0.45374   0.00000  Uiso   1.00
C127   C     0.86132   0.25879   0.02512   0.00000  Uiso   1.00
C128   C     0.80539   0.07456   0.47488   0.00000  Uiso   1.00
C129   C     0.86317   0.25974   0.47850   0.00000  Uiso   1.00
C130   C     0.80354   0.07361   0.02151   0.00000  Uiso   1.00
H131   H     0.85501   0.24688   0.11312   0.00000  Uiso   1.00
H132   H     0.81170   0.08646   0.38688   0.00000  Uiso   1.00
H133   H     0.87221   0.29425   0.04360   0.00000  Uiso   1.00
H134   H     0.79451   0.03910   0.45640   0.00000  Uiso   1.00
H135   H     0.87608   0.29610   0.46219   0.00000  Uiso   1.00
H136   H     0.79064   0.03725   0.03782   0.00000  Uiso   1.00
C137   C     0.85430   0.31827   0.24134   0.00000  Uiso   1.00
C138   C     0.81237   0.01507   0.25866   0.00000  Uiso   1.00
N139   N     0.98344   0.15265   0.23783   0.00000  Uiso   1.00
N140   N     0.68322   0.18068   0.26217   0.00000  Uiso   1.00
H141   H     0.67128   0.12755   0.21611   0.00000  Uiso   1.00
H142   H     0.99539   0.20579   0.28389   0.00000  Uiso   1.00
N143   N     0.80363   0.07156   0.11782   0.00000  Uiso   1.00
O144   O     0.76038   0.06812   0.14776   0.00000  Uiso   1.00
O145   O     0.83714   0.03301   0.11206   0.00000  Uiso   1.00
N146   N     0.86296   0.26183   0.38218   0.00000  Uiso   1.00
O147   O     0.90599   0.26522   0.35204   0.00000  Uiso   1.00
O148   O     0.82949   0.30039   0.38807   0.00000  Uiso   1.00
Cl149  Cl    0.91027   0.00437   0.20041   0.00000  Uiso   1.00
Cl150  Cl    0.75641   0.32896   0.29960   0.00000  Uiso   1.00
O151   O     0.12975   0.57952   0.25299   0.00000  Uiso   1.00
O152   O     0.20358   0.42048   0.24702   0.00000  Uiso   1.00
O153   O     0.22613   0.57054   0.24519   0.00000  Uiso   1.00
O154   O     0.10720   0.42946   0.25482   0.00000  Uiso   1.00
C155   C     0.18158   0.59813   0.24895   0.00000  Uiso   1.00
C156   C     0.15175   0.40187   0.25105   0.00000  Uiso   1.00
O157   O     0.11847   0.50450   0.31998   0.00000  Uiso   1.00
O158   O     0.21486   0.49550   0.18003   0.00000  Uiso   1.00
O159   O     0.21485   0.49552   0.31218   0.00000  Uiso   1.00
O160   O     0.11848   0.50448   0.18783   0.00000  Uiso   1.00
C161   C     0.16773   0.50055   0.33632   0.00000  Uiso   1.00
C162   C     0.16561   0.49946   0.16368   0.00000  Uiso   1.00
Zn163  Zn    0.10231   0.50600   0.25521   0.00000  Uiso   1.00
Zn164  Zn    0.23102   0.49400   0.24479   0.00000  Uiso   1.00
C165   C     0.14983   0.45210   0.09331   0.00000  Uiso   1.00
C166   C     0.18350   0.54793   0.40669   0.00000  Uiso   1.00
C167   C     0.16320   0.49878   0.11621   0.00000  Uiso   1.00
C168   C     0.17015   0.50124   0.38379   0.00000  Uiso   1.00
C169   C     0.17770   0.54503   0.09403   0.00000  Uiso   1.00
C170   C     0.15567   0.45499   0.40597   0.00000  Uiso   1.00
C171   C     0.17931   0.54582   0.04762   0.00000  Uiso   1.00
C172   C     0.15406   0.45420   0.45238   0.00000  Uiso   1.00
C173   C     0.16590   0.49952   0.02348   0.00000  Uiso   1.00
C174   C     0.16747   0.50050   0.47653   0.00000  Uiso   1.00
C175   C     0.15096   0.45233   0.04626   0.00000  Uiso   1.00
C176   C     0.18240   0.54770   0.45374   0.00000  Uiso   1.00
C177   C     0.19466   0.59212   0.02512   0.00000  Uiso   1.00
C178   C     0.13872   0.40790   0.47488   0.00000  Uiso   1.00
C179   C     0.19650   0.59308   0.47850   0.00000  Uiso   1.00
C180   C     0.13687   0.40694   0.02151   0.00000  Uiso   1.00
H181   H     0.18834   0.58022   0.11312   0.00000  Uiso   1.00
H182   H     0.14503   0.41980   0.38688   0.00000  Uiso   1.00
H183   H     0.20554   0.62758   0.04360   0.00000  Uiso   1.00
H184   H     0.12785   0.37243   0.45640   0.00000  Uiso   1.00
H185   H     0.20941   0.62943   0.46219   0.00000  Uiso   1.00
H186   H     0.12398   0.37059   0.03782   0.00000  Uiso   1.00
C187   C     0.18763   0.65160   0.24134   0.00000  Uiso   1.00
C188   C     0.14571   0.34840   0.25866   0.00000  Uiso   1.00
N189   N     0.31678   0.48598   0.23783   0.00000  Uiso   1.00
N190   N     0.01656   0.51402   0.26217   0.00000  Uiso   1.00
H191   H     0.00461   0.46088   0.21611   0.00000  Uiso   1.00
H192   H     0.32872   0.53912   0.28389   0.00000  Uiso   1.00
N193   N     0.13696   0.40489   0.11782   0.00000  Uiso   1.00
O194   O     0.09372   0.40146   0.14776   0.00000  Uiso   1.00
O195   O     0.17047   0.36634   0.11206   0.00000  Uiso   1.00
N196   N     0.19629   0.59516   0.38218   0.00000  Uiso   1.00
O197   O     0.23933   0.59855   0.35204   0.00000  Uiso   1.00
O198   O     0.16282   0.63372   0.38807   0.00000  Uiso   1.00
Cl199  Cl    0.24361   0.33771   0.20041   0.00000  Uiso   1.00
Cl200  Cl    0.08974   0.66229   0.29960   0.00000  Uiso   1.00
O201   O     0.46308   0.57952   0.25299   0.00000  Uiso   1.00
O202   O     0.53692   0.42048   0.24702   0.00000  Uiso   1.00
O203   O     0.55946   0.57054   0.24519   0.00000  Uiso   1.00
O204   O     0.44054   0.42946   0.25482   0.00000  Uiso   1.00
C205   C     0.51492   0.59813   0.24895   0.00000  Uiso   1.00
C206   C     0.48508   0.40187   0.25105   0.00000  Uiso   1.00
O207   O     0.45181   0.50450   0.31998   0.00000  Uiso   1.00
O208   O     0.54819   0.49550   0.18003   0.00000  Uiso   1.00
O209   O     0.54819   0.49552   0.31218   0.00000  Uiso   1.00
O210   O     0.45181   0.50448   0.18783   0.00000  Uiso   1.00
C211   C     0.50106   0.50055   0.33632   0.00000  Uiso   1.00
C212   C     0.49894   0.49946   0.16368   0.00000  Uiso   1.00
Zn213  Zn    0.43565   0.50600   0.25521   0.00000  Uiso   1.00
Zn214  Zn    0.56435   0.49400   0.24479   0.00000  Uiso   1.00
C215   C     0.48317   0.45210   0.09331   0.00000  Uiso   1.00
C216   C     0.51683   0.54793   0.40669   0.00000  Uiso   1.00
C217   C     0.49653   0.49878   0.11621   0.00000  Uiso   1.00
C218   C     0.50348   0.50124   0.38379   0.00000  Uiso   1.00
C219   C     0.51103   0.54503   0.09403   0.00000  Uiso   1.00
C220   C     0.48900   0.45499   0.40597   0.00000  Uiso   1.00
C221   C     0.51264   0.54582   0.04762   0.00000  Uiso   1.00
C222   C     0.48740   0.45420   0.45238   0.00000  Uiso   1.00
C223   C     0.49923   0.49952   0.02348   0.00000  Uiso   1.00
C224   C     0.50080   0.50050   0.47653   0.00000  Uiso   1.00
C225   C     0.48429   0.45233   0.04626   0.00000  Uiso   1.00
C226   C     0.51573   0.54770   0.45374   0.00000  Uiso   1.00
C227   C     0.52799   0.59212   0.02512   0.00000  Uiso   1.00
C228   C     0.47206   0.40790   0.47488   0.00000  Uiso   1.00
C229   C     0.52984   0.59308   0.47850   0.00000  Uiso   1.00
C230   C     0.47021   0.40694   0.02151   0.00000  Uiso   1.00
H231   H     0.52168   0.58022   0.11312   0.00000  Uiso   1.00
H232   H     0.47837   0.41980   0.38688   0.00000  Uiso   1.00
H233   H     0.53888   0.62758   0.04360   0.00000  Uiso   1.00
H234   H     0.46118   0.37243   0.45640   0.00000  Uiso   1.00
H235   H     0.54275   0.62943   0.46219   0.00000  Uiso   1.00
H236   H     0.45731   0.37059   0.03782   0.00000  Uiso   1.00
C237   C     0.52096   0.65160   0.24134   0.00000  Uiso   1.00
C238   C     0.47904   0.34840   0.25866   0.00000  Uiso   1.00
N239   N     0.65011   0.48598   0.23783   0.00000  Uiso   1.00
N240   N     0.34989   0.51402   0.26217   0.00000  Uiso   1.00
H241   H     0.33795   0.46088   0.21611   0.00000  Uiso   1.00
H242   H     0.66205   0.53912   0.28389   0.00000  Uiso   1.00
N243   N     0.47029   0.40489   0.11782   0.00000  Uiso   1.00
O244   O     0.42705   0.40146   0.14776   0.00000  Uiso   1.00
O245   O     0.50381   0.36634   0.11206   0.00000  Uiso   1.00
N246   N     0.52963   0.59516   0.38218   0.00000  Uiso   1.00
O247   O     0.57266   0.59855   0.35204   0.00000  Uiso   1.00
O248   O     0.49615   0.63372   0.38807   0.00000  Uiso   1.00
Cl249  Cl    0.57694   0.33771   0.20041   0.00000  Uiso   1.00
Cl250  Cl    0.42307   0.66229   0.29960   0.00000  Uiso   1.00
O251   O     0.79642   0.57952   0.25299   0.00000  Uiso   1.00
O252   O     0.87025   0.42048   0.24702   0.00000  Uiso   1.00
O253   O     0.89280   0.57054   0.24519   0.00000  Uiso   1.00
O254   O     0.77387   0.42946   0.25482   0.00000  Uiso   1.00
C255   C     0.84825   0.59813   0.24895   0.00000  Uiso   1.00
C256   C     0.81842   0.40187   0.25105   0.00000  Uiso   1.00
O257   O     0.78514   0.50450   0.31998   0.00000  Uiso   1.00
O258   O     0.88153   0.49550   0.18003   0.00000  Uiso   1.00
O259   O     0.88152   0.49552   0.31218   0.00000  Uiso   1.00
O260   O     0.78515   0.50448   0.18783   0.00000  Uiso   1.00
C261   C     0.83439   0.50055   0.33632   0.00000  Uiso   1.00
C262   C     0.83228   0.49946   0.16368   0.00000  Uiso   1.00
Zn263  Zn    0.76898   0.50600   0.25521   0.00000  Uiso   1.00
Zn264  Zn    0.89769   0.49400   0.24479   0.00000  Uiso   1.00
C265   C     0.81650   0.45210   0.09331   0.00000  Uiso   1.00
C266   C     0.85016   0.54793   0.40669   0.00000  Uiso   1.00
C267   C     0.82986   0.49878   0.11621   0.00000  Uiso   1.00
C268   C     0.83681   0.50124   0.38379   0.00000  Uiso   1.00
C269   C     0.84436   0.54503   0.09403   0.00000  Uiso   1.00
C270   C     0.82234   0.45499   0.40597   0.00000  Uiso   1.00
C271   C     0.84598   0.54582   0.04762   0.00000  Uiso   1.00
C272   C     0.82073   0.45420   0.45238   0.00000  Uiso   1.00
C273   C     0.83257   0.49952   0.02348   0.00000  Uiso   1.00
C274   C     0.83413   0.50050   0.47653   0.00000  Uiso   1.00
C275   C     0.81763   0.45233   0.04626   0.00000  Uiso   1.00
C276   C     0.84906   0.54770   0.45374   0.00000  Uiso   1.00
C277   C     0.86132   0.59212   0.02512   0.00000  Uiso   1.00
C278   C     0.80539   0.40790   0.47488   0.00000  Uiso   1.00
C279   C     0.86317   0.59308   0.47850   0.00000  Uiso   1.00
C280   C     0.80354   0.40694   0.02151   0.00000  Uiso   1.00
H281   H     0.85501   0.58022   0.11312   0.00000  Uiso   1.00
H282   H     0.81170   0.41980   0.38688   0.00000  Uiso   1.00
H283   H     0.87221   0.62758   0.04360   0.00000  Uiso   1.00
H284   H     0.79451   0.37243   0.45640   0.00000  Uiso   1.00
H285   H     0.87608   0.62943   0.46219   0.00000  Uiso   1.00
H286   H     0.79064   0.37059   0.03782   0.00000  Uiso   1.00
C287   C     0.85430   0.65160   0.24134   0.00000  Uiso   1.00
C288   C     0.81237   0.34840   0.25866   0.00000  Uiso   1.00
N289   N     0.98344   0.48598   0.23783   0.00000  Uiso   1.00
N290   N     0.68322   0.51402   0.26217   0.00000  Uiso   1.00
H291   H     0.67128   0.46088   0.21611   0.00000  Uiso   1.00
H292   H     0.99539   0.53912   0.28389   0.00000  Uiso   1.00
N293   N     0.80363   0.40489   0.11782   0.00000  Uiso   1.00
O294   O     0.76038   0.40146   0.14776   0.00000  Uiso   1.00
O295   O     0.83714   0.36634   0.11206   0.00000  Uiso   1.00
N296   N     0.86296   0.59516   0.38218   0.00000  Uiso   1.00
O297   O     0.90599   0.59855   0.35204   0.00000  Uiso   1.00
O298   O     0.82949   0.63372   0.38807   0.00000  Uiso   1.00
Cl299  Cl    0.91027   0.33771   0.20041   0.00000  Uiso   1.00
Cl300  Cl    0.75641   0.66229   0.29960   0.00000  Uiso   1.00
O301   O     0.12975   0.91286   0.25299   0.00000  Uiso   1.00
O302   O     0.20358   0.75381   0.24702   0.00000  Uiso   1.00
O303   O     0.22613   0.90387   0.24519   0.00000  Uiso   1.00
O304   O     0.10720   0.76279   0.25482   0.00000  Uiso   1.00
C305   C     0.18158   0.93147   0.24895   0.00000  Uiso   1.00
C306   C     0.15175   0.73520   0.25105   0.00000  Uiso   1.00
O307   O     0.11847   0.83784   0.31998   0.00000  Uiso   1.00
O308   O     0.21486   0.82883   0.18003   0.00000  Uiso   1.00
O309   O     0.21485   0.82885   0.31218   0.00000  Uiso   1.00
O310   O     0.11848   0.83781   0.18783   0.00000  Uiso   1.00
C311   C     0.16773   0.83388   0.33632   0.00000  Uiso   1.00
C312   C     0.16561   0.83280   0.16368   0.00000  Uiso   1.00
Zn313  Zn    0.10231   0.83933   0.25521   0.00000  Uiso   1.00
Zn314  Zn    0.23102   0.82734   0.24479   0.00000  Uiso   1.00
C315   C     0.14983   0.78543   0.09331   0.00000  Uiso   1.00
C316   C     0.18350   0.88127   0.40669   0.00000  Uiso   1.00
C317   C     0.16320   0.83212   0.11621   0.00000  Uiso   1.00
C318   C     0.17015   0.83457   0.38379   0.00000  Uiso   1.00
C319   C     0.17770   0.87836   0.09403   0.00000  Uiso   1.00
C320   C     0.15567   0.78832   0.40597   0.00000  Uiso   1.00
C321   C     0.17931   0.87915   0.04762   0.00000  Uiso   1.00
C322   C     0.15406   0.78753   0.45238   0.00000  Uiso   1.00
C323   C     0.16590   0.83286   0.02348   0.00000  Uiso   1.00
C324   C     0.16747   0.83383   0.47653   0.00000  Uiso   1.00
C325   C     0.15096   0.78566   0.04626   0.00000  Uiso   1.00
C326   C     0.18240   0.88103   0.45374   0.00000  Uiso   1.00
C327   C     0.19466   0.92546   0.02512   0.00000  Uiso   1.00
C328   C     0.13872   0.74123   0.47488   0.00000  Uiso   1.00
C329   C     0.19650   0.92641   0.47850   0.00000  Uiso   1.00
C330   C     0.13687   0.74028   0.02151   0.00000  Uiso   1.00
H331   H     0.18834   0.91355   0.11312   0.00000  Uiso   1.00
H332   H     0.14503   0.75313   0.38688   0.00000  Uiso   1.00
H333   H     0.20554   0.96092   0.04360   0.00000  Uiso   1.00
H334   H     0.12785   0.70577   0.45640   0.00000  Uiso   1.00
H335   H     0.20941   0.96277   0.46219   0.00000  Uiso   1.00
H336   H     0.12398   0.70392   0.03782   0.00000  Uiso   1.00
C337   C     0.18763   0.98493   0.24134   0.00000  Uiso   1.00
C338   C     0.14571   0.68173   0.25866   0.00000  Uiso   1.00
N339   N     0.31678   0.81932   0.23783   0.00000  Uiso   1.00
N340   N     0.01656   0.84735   0.26217   0.00000  Uiso   1.00
H341   H     0.00461   0.79421   0.21611   0.00000  Uiso   1.00
H342   H     0.32872   0.87245   0.28389   0.00000  Uiso   1.00
N343   N     0.13696   0.73822   0.11782   0.00000  Uiso   1.00
O344   O     0.09372   0.73479   0.14776   0.00000  Uiso   1.00
O345   O     0.17047   0.69968   0.11206   0.00000  Uiso   1.00
N346   N     0.19629   0.92849   0.38218   0.00000  Uiso   1.00
O347   O     0.23933   0.93189   0.35204   0.00000  Uiso   1.00
O348   O     0.16282   0.96706   0.38807   0.00000  Uiso   1.00
Cl349  Cl    0.24361   0.67104   0.20041   0.00000  Uiso   1.00
Cl350  Cl    0.08974   0.99563   0.29960   0.00000  Uiso   1.00
O351   O     0.46308   0.91286   0.25299   0.00000  Uiso   1.00
O352   O     0.53692   0.75381   0.24702   0.00000  Uiso   1.00
O353   O     0.55946   0.90387   0.24519   0.00000  Uiso   1.00
O354   O     0.44054   0.76279   0.25482   0.00000  Uiso   1.00
C355   C     0.51492   0.93147   0.24895   0.00000  Uiso   1.00
C356   C     0.48508   0.73520   0.25105   0.00000  Uiso   1.00
O357   O     0.45181   0.83784   0.31998   0.00000  Uiso   1.00
O358   O     0.54819   0.82883   0.18003   0.00000  Uiso   1.00
O359   O     0.54819   0.82885   0.31218   0.00000  Uiso   1.00
O360   O     0.45181   0.83781   0.18783   0.00000  Uiso   1.00
C361   C     0.50106   0.83388   0.33632   0.00000  Uiso   1.00
C362   C     0.49894   0.83280   0.16368   0.00000  Uiso   1.00
Zn363  Zn    0.43565   0.83933   0.25521   0.00000  Uiso   1.00
Zn364  Zn    0.56435   0.82734   0.24479   0.00000  Uiso   1.00
C365   C     0.48317   0.78543   0.09331   0.00000  Uiso   1.00
C366   C     0.51683   0.88127   0.40669   0.00000  Uiso   1.00
C367   C     0.49653   0.83212   0.11621   0.00000  Uiso   1.00
C368   C     0.50348   0.83457   0.38379   0.00000  Uiso   1.00
C369   C     0.51103   0.87836   0.09403   0.00000  Uiso   1.00
C370   C     0.48900   0.78832   0.40597   0.00000  Uiso   1.00
C371   C     0.51264   0.87915   0.04762   0.00000  Uiso   1.00
C372   C     0.48740   0.78753   0.45238   0.00000  Uiso   1.00
C373   C     0.49923   0.83286   0.02348   0.00000  Uiso   1.00
C374   C     0.50080   0.83383   0.47653   0.00000  Uiso   1.00
C375   C     0.48429   0.78566   0.04626   0.00000  Uiso   1.00
C376   C     0.51573   0.88103   0.45374   0.00000  Uiso   1.00
C377   C     0.52799   0.92546   0.02512   0.00000  Uiso   1.00
C378   C     0.47206   0.74123   0.47488   0.00000  Uiso   1.00
C379   C     0.52984   0.92641   0.47850   0.00000  Uiso   1.00
C380   C     0.47021   0.74028   0.02151   0.00000  Uiso   1.00
H381   H     0.52168   0.91355   0.11312   0.00000  Uiso   1.00
H382   H     0.47837   0.75313   0.38688   0.00000  Uiso   1.00
H383   H     0.53888   0.96092   0.04360   0.00000  Uiso   1.00
H384   H     0.46118   0.70577   0.45640   0.00000  Uiso   1.00
H385   H     0.54275   0.96277   0.46219   0.00000  Uiso   1.00
H386   H     0.45731   0.70392   0.03782   0.00000  Uiso   1.00
C387   C     0.52096   0.98493   0.24134   0.00000  Uiso   1.00
C388   C     0.47904   0.68173   0.25866   0.00000  Uiso   1.00
N389   N     0.65011   0.81932   0.23783   0.00000  Uiso   1.00
N390   N     0.34989   0.84735   0.26217   0.00000  Uiso   1.00
H391   H     0.33795   0.79421   0.21611   0.00000  Uiso   1.00
H392   H     0.66205   0.87245   0.28389   0.00000  Uiso   1.00
N393   N     0.47029   0.73822   0.11782   0.00000  Uiso   1.00
O394   O     0.42705   0.73479   0.14776   0.00000  Uiso   1.00
O395   O     0.50381   0.69968   0.11206   0.00000  Uiso   1.00
N396   N     0.52963   0.92849   0.38218   0.00000  Uiso   1.00
O397   O     0.57266   0.93189   0.35204   0.00000  Uiso   1.00
O398   O     0.49615   0.96706   0.38807   0.00000  Uiso   1.00
Cl399  Cl    0.57694   0.67104   0.20041   0.00000  Uiso   1.00
Cl400  Cl    0.42307   0.99563   0.29960   0.00000  Uiso   1.00
O401   O     0.79642   0.91286   0.25299   0.00000  Uiso   1.00
O402   O     0.87025   0.75381   0.24702   0.00000  Uiso   1.00
O403   O     0.89280   0.90387   0.24519   0.00000  Uiso   1.00
O404   O     0.77387   0.76279   0.25482   0.00000  Uiso   1.00
C405   C     0.84825   0.93147   0.24895   0.00000  Uiso   1.00
C406   C     0.81842   0.73520   0.25105   0.00000  Uiso   1.00
O407   O     0.78514   0.83784   0.31998   0.00000  Uiso   1.00
O408   O     0.88153   0.82883   0.18003   0.00000  Uiso   1.00
O409   O     0.88152   0.82885   0.31218   0.00000  Uiso   1.00
O410   O     0.78515   0.83781   0.18783   0.00000  Uiso   1.00
C411   C     0.83439   0.83388   0.33632   0.00000  Uiso   1.00
C412   C     0.83228   0.83280   0.16368   0.00000  Uiso   1.00
Zn413  Zn    0.76898   0.83933   0.25521   0.00000  Uiso   1.00
Zn414  Zn    0.89769   0.82734   0.24479   0.00000  Uiso   1.00
C415   C     0.81650   0.78543   0.09331   0.00000  Uiso   1.00
C416   C     0.85016   0.88127   0.40669   0.00000  Uiso   1.00
C417   C     0.82986   0.83212   0.11621   0.00000  Uiso   1.00
C418   C     0.83681   0.83457   0.38379   0.00000  Uiso   1.00
C419   C     0.84436   0.87836   0.09403   0.00000  Uiso   1.00
C420   C     0.82234   0.78832   0.40597   0.00000  Uiso   1.00
C421   C     0.84598   0.87915   0.04762   0.00000  Uiso   1.00
C422   C     0.82073   0.78753   0.45238   0.00000  Uiso   1.00
C423   C     0.83257   0.83286   0.02348   0.00000  Uiso   1.00
C424   C     0.83413   0.83383   0.47653   0.00000  Uiso   1.00
C425   C     0.81763   0.78566   0.04626   0.00000  Uiso   1.00
C426   C     0.84906   0.88103   0.45374   0.00000  Uiso   1.00
C427   C     0.86132   0.92546   0.02512   0.00000  Uiso   1.00
C428   C     0.80539   0.74123   0.47488   0.00000  Uiso   1.00
C429   C     0.86317   0.92641   0.47850   0.00000  Uiso   1.00
C430   C     0.80354   0.74028   0.02151   0.00000  Uiso   1.00
H431   H     0.85501   0.91355   0.11312   0.00000  Uiso   1.00
H432   H     0.81170   0.75313   0.38688   0.00000  Uiso   1.00
H433   H     0.87221   0.96092   0.04360   0.00000  Uiso   1.00
H434   H     0.79451   0.70577   0.45640   0.00000  Uiso   1.00
H435   H     0.87608   0.96277   0.46219   0.00000  Uiso   1.00
H436   H     0.79064   0.70392   0.03782   0.00000  Uiso   1.00
C437   C     0.85430   0.98493   0.24134   0.00000  Uiso   1.00
C438   C     0.81237   0.68173   0.25866   0.00000  Uiso   1.00
N439   N     0.98344   0.81932   0.23783   0.00000  Uiso   1.00
N440   N     0.68322   0.84735   0.26217   0.00000  Uiso   1.00
H441   H     0.67128   0.79421   0.21611   0.00000  Uiso   1.00
H442   H     0.99539   0.87245   0.28389   0.00000  Uiso   1.00
N443   N     0.80363   0.73822   0.11782   0.00000  Uiso   1.00
O444   O     0.76038   0.73479   0.14776   0.00000  Uiso   1.00
O445   O     0.83714   0.69968   0.11206   0.00000  Uiso   1.00
N446   N     0.86296   0.92849   0.38218   0.00000  Uiso   1.00
O447   O     0.90599   0.93189   0.35204   0.00000  Uiso   1.00
O448   O     0.82949   0.96706   0.38807   0.00000  Uiso   1.00
Cl449  Cl    0.91027   0.67104   0.20041   0.00000  Uiso   1.00
Cl450  Cl    0.75641   0.99563   0.29960   0.00000  Uiso   1.00
O451   O     0.12975   0.24619   0.75299   0.00000  Uiso   1.00
O452   O     0.20358   0.08714   0.74702   0.00000  Uiso   1.00
O453   O     0.22613   0.23721   0.74519   0.00000  Uiso   1.00
O454   O     0.10720   0.09613   0.75482   0.00000  Uiso   1.00
C455   C     0.18158   0.26480   0.74895   0.00000  Uiso   1.00
C456   C     0.15175   0.06853   0.75105   0.00000  Uiso   1.00
O457   O     0.11847   0.17117   0.81998   0.00000  Uiso   1.00
O458   O     0.21486   0.16216   0.68003   0.00000  Uiso   1.00
O459   O     0.21485   0.16219   0.81218   0.00000  Uiso   1.00
O460   O     0.11848   0.17115   0.68783   0.00000  Uiso   1.00
C461   C     0.16773   0.16721   0.83632   0.00000  Uiso   1.00
C462   C     0.16561   0.16613   0.66368   0.00000  Uiso   1.00
Zn463  Zn    0.10231   0.17266   0.75521   0.00000  Uiso   1.00
Zn464  Zn    0.23102   0.16067   0.74479   0.00000  Uiso   1.00
C465   C     0.14983   0.11877   0.59331   0.00000  Uiso   1.00
C466   C     0.18350   0.21460   0.90669   0.00000  Uiso   1.00
C467   C     0.16320   0.16545   0.61621   0.00000  Uiso   1.00
C468   C     0.17015   0.16791   0.88379   0.00000  Uiso   1.00
C469   C     0.17770   0.21170   0.59403   0.00000  Uiso   1.00
C470   C     0.15567   0.12166   0.90597   0.00000  Uiso   1.00
C471   C     0.17931   0.21249   0.54762   0.00000  Uiso   1.00
C472   C     0.15406   0.12087   0.95238   0.00000  Uiso   1.00
C473   C     0.16590   0.16619   0.52348   0.00000  Uiso   1.00
C474   C     0.16747   0.16717   0.97653   0.00000  Uiso   1.00
C475   C     0.15096   0.11899   0.54626   0.00000  Uiso   1.00
C476   C     0.18240   0.21437   0.95374   0.00000  Uiso   1.00
C477   C     0.19466   0.25879   0.52512   0.00000  Uiso   1.00
C478   C     0.13872   0.07456   0.97488   0.00000  Uiso   1.00
C479   C     0.19650   0.25974   0.97850   0.00000  Uiso   1.00
C480   C     0.13687   0.07361   0.52151   0.00000  Uiso   1.00
H481   H     0.18834   0.24688   0.61312   0.00000  Uiso   1.00
H482   H     0.14503   0.08646   0.88688   0.00000  Uiso   1.00
H483   H     0.20554   0.29425   0.54360   0.00000  Uiso   1.00
H484   H     0.12785   0.03910   0.95640   0.00000  Uiso   1.00
H485   H     0.20941   0.29610   0.96219   0.00000  Uiso   1.00
H486   H     0.12398   0.03725   0.53782   0.00000  Uiso   1.00
C487   C     0.18763   0.31827   0.74134   0.00000  Uiso   1.00
C488   C     0.14571   0.01507   0.75866   0.00000  Uiso   1.00
N489   N     0.31678   0.15265   0.73783   0.00000  Uiso   1.00
N490   N     0.01656   0.18068   0.76217   0.00000  Uiso   1.00
H491   H     0.00461   0.12755   0.71611   0.00000  Uiso   1.00
H492   H     0.32872   0.20579   0.78389   0.00000  Uiso   1.00
N493   N     0.13696   0.07156   0.61782   0.00000  Uiso   1.00
O494   O     0.09372   0.06812   0.64776   0.00000  Uiso   1.00
O495   O     0.17047   0.03301   0.61206   0.00000  Uiso   1.00
N496   N     0.19629   0.26183   0.88218   0.00000  Uiso   1.00
O497   O     0.23933   0.26522   0.85204   0.00000  Uiso   1.00
O498   O     0.16282   0.30039   0.88807   0.00000  Uiso   1.00
Cl499  Cl    0.24361   0.00437   0.70041   0.00000  Uiso   1.00
Cl500  Cl    0.08974   0.32896   0.79960   0.00000  Uiso   1.00
O501   O     0.46308   0.24619   0.75299   0.00000  Uiso   1.00
O502   O     0.53692   0.08714   0.74702   0.00000  Uiso   1.00
O503   O     0.55946   0.23721   0.74519   0.00000  Uiso   1.00
O504   O     0.44054   0.09613   0.75482   0.00000  Uiso   1.00
C505   C     0.51492   0.26480   0.74895   0.00000  Uiso   1.00
C506   C     0.48508   0.06853   0.75105   0.00000  Uiso   1.00
O507   O     0.45181   0.17117   0.81998   0.00000  Uiso   1.00
O508   O     0.54819   0.16216   0.68003   0.00000  Uiso   1.00
O509   O     0.54819   0.16219   0.81218   0.00000  Uiso   1.00
O510   O     0.45181   0.17115   0.68783   0.00000  Uiso   1.00
C511   C     0.50106   0.16721   0.83632   0.00000  Uiso   1.00
C512   C     0.49894   0.16613   0.66368   0.00000  Uiso   1.00
Zn513  Zn    0.43565   0.17266   0.75521   0.00000  Uiso   1.00
Zn514  Zn    0.56435   0.16067   0.74479   0.00000  Uiso   1.00
C515   C     0.48317   0.11877   0.59331   0.00000  Uiso   1.00
C516   C     0.51683   0.21460   0.90669   0.00000  Uiso   1.00
C517   C     0.49653   0.16545   0.61621   0.00000  Uiso   1.00
C518   C     0.50348   0.16791   0.88379   0.00000  Uiso   1.00
C519   C     0.51103   0.21170   0.59403   0.00000  Uiso   1.00
C520   C     0.48900   0.12166   0.90597   0.00000  Uiso   1.00
C521   C     0.51264   0.21249   0.54762   0.00000  Uiso   1.00
C522   C     0.48740   0.12087   0.95238   0.00000  Uiso   1.00
C523   C     0.49923   0.16619   0.52348   0.00000  Uiso   1.00
C524   C     0.50080   0.16717   0.97653   0.00000  Uiso   1.00
C525   C     0.48429   0.11899   0.54626   0.00000  Uiso   1.00
C526   C     0.51573   0.21437   0.95374   0.00000  Uiso   1.00
C527   C     0.52799   0.25879   0.52512   0.00000  Uiso   1.00
C528   C     0.47206   0.07456   0.97488   0.00000  Uiso   1.00
C529   C     0.52984   0.25974   0.97850   0.00000  Uiso   1.00
C530   C     0.47021   0.07361   0.52151   0.00000  Uiso   1.00
H531   H     0.52168   0.24688   0.61312   0.00000  Uiso   1.00
H532   H     0.47837   0.08646   0.88688   0.00000  Uiso   1.00
H533   H     0.53888   0.29425   0.54360   0.00000  Uiso   1.00
H534   H     0.46118   0.03910   0.95640   0.00000  Uiso   1.00
H535   H     0.54275   0.29610   0.96219   0.00000  Uiso   1.00
H536   H     0.45731   0.03725   0.53782   0.00000  Uiso   1.00
C537   C     0.52096   0.31827   0.74134   0.00000  Uiso   1.00
C538   C     0.47904   0.01507   0.75866   0.00000  Uiso   1.00
N539   N     0.65011   0.15265   0.73783   0.00000  Uiso   1.00
N540   N     0.34989   0.18068   0.76217   0.00000  Uiso   1.00
H541   H     0.33795   0.12755   0.71611   0.00000  Uiso   1.00
H542   H     0.66205   0.20579   0.78389   0.00000  Uiso   1.00
N543   N     0.47029   0.07156   0.61782   0.00000  Uiso   1.00
O544   O     0.42705   0.06812   0.64776   0.00000  Uiso   1.00
O545   O     0.50381   0.03301   0.61206   0.00000  Uiso   1.00
N546   N     0.52963   0.26183   0.88218   0.00000  Uiso   1.00
O547   O     0.57266   0.26522   0.85204   0.00000  Uiso   1.00
O548   O     0.49615   0.30039   0.88807   0.00000  Uiso   1.00
Cl549  Cl    0.57694   0.00437   0.70041   0.00000  Uiso   1.00
Cl550  Cl    0.42307   0.32896   0.79960   0.00000  Uiso   1.00
O551   O     0.79642   0.24619   0.75299   0.00000  Uiso   1.00
O552   O     0.87025   0.08714   0.74702   0.00000  Uiso   1.00
O553   O     0.89280   0.23721   0.74519   0.00000  Uiso   1.00
O554   O     0.77387   0.09613   0.75482   0.00000  Uiso   1.00
C555   C     0.84825   0.26480   0.74895   0.00000  Uiso   1.00
C556   C     0.81842   0.06853   0.75105   0.00000  Uiso   1.00
O557   O     0.78514   0.17117   0.81998   0.00000  Uiso   1.00
O558   O     0.88153   0.16216   0.68003   0.00000  Uiso   1.00
O559   O     0.88152   0.16219   0.81218   0.00000  Uiso   1.00
O560   O     0.78515   0.17115   0.68783   0.00000  Uiso   1.00
C561   C     0.83439   0.16721   0.83632   0.00000  Uiso   1.00
C562   C     0.83228   0.16613   0.66368   0.00000  Uiso   1.00
Zn563  Zn    0.76898   0.17266   0.75521   0.00000  Uiso   1.00
Zn564  Zn    0.89769   0.16067   0.74479   0.00000  Uiso   1.00
C565   C     0.81650   0.11877   0.59331   0.00000  Uiso   1.00
C566   C     0.85016   0.21460   0.90669   0.00000  Uiso   1.00
C567   C     0.82986   0.16545   0.61621   0.00000  Uiso   1.00
C568   C     0.83681   0.16791   0.88379   0.00000  Uiso   1.00
C569   C     0.84436   0.21170   0.59403   0.00000  Uiso   1.00
C570   C     0.82234   0.12166   0.90597   0.00000  Uiso   1.00
C571   C     0.84598   0.21249   0.54762   0.00000  Uiso   1.00
C572   C     0.82073   0.12087   0.95238   0.00000  Uiso   1.00
C573   C     0.83257   0.16619   0.52348   0.00000  Uiso   1.00
C574   C     0.83413   0.16717   0.97653   0.00000  Uiso   1.00
C575   C     0.81763   0.11899   0.54626   0.00000  Uiso   1.00
C576   C     0.84906   0.21437   0.95374   0.00000  Uiso   1.00
C577   C     0.86132   0.25879   0.52512   0.00000  Uiso   1.00
C578   C     0.80539   0.07456   0.97488   0.00000  Uiso   1.00
C579   C     0.86317   0.25974   0.97850   0.00000  Uiso   1.00
C580   C     0.80354   0.07361   0.52151   0.00000  Uiso   1.00
H581   H     0.85501   0.24688   0.61312   0.00000  Uiso   1.00
H582   H     0.81170   0.08646   0.88688   0.00000  Uiso   1.00
H583   H     0.87221   0.29425   0.54360   0.00000  Uiso   1.00
H584   H     0.79451   0.03910   0.95640   0.00000  Uiso   1.00
H585   H     0.87608   0.29610   0.96219   0.00000  Uiso   1.00
H586   H     0.79064   0.03725   0.53782   0.00000  Uiso   1.00
C587   C     0.85430   0.31827   0.74134   0.00000  Uiso   1.00
C588   C     0.81237   0.01507   0.75866   0.00000  Uiso   1.00
N589   N     0.98344   0.15265   0.73783   0.00000  Uiso   1.00
N590   N     0.68322   0.18068   0.76217   0.00000  Uiso   1.00
H591   H     0.67128   0.12755   0.71611   0.00000  Uiso   1.00
H592   H     0.99539   0.20579   0.78389   0.00000  Uiso   1.00
N593   N     0.80363   0.07156   0.61782   0.00000  Uiso   1.00
O594   O     0.76038   0.06812   0.64776   0.00000  Uiso   1.00
O595   O     0.83714   0.03301   0.61206   0.00000  Uiso   1.00
N596   N     0.86296   0.26183   0.88218   0.00000  Uiso   1.00
O597   O     0.90599   0.26522   0.85204   0.00000  Uiso   1.00
O598   O     0.82949   0.30039   0.88807   0.00000  Uiso   1.00
Cl599  Cl    0.91027   0.00437   0.70041   0.00000  Uiso   1.00
Cl600  Cl    0.75641   0.32896   0.79960   0.00000  Uiso   1.00
O601   O     0.12975   0.57952   0.75299   0.00000  Uiso   1.00
O602   O     0.20358   0.42048   0.74702   0.00000  Uiso   1.00
O603   O     0.22613   0.57054   0.74519   0.00000  Uiso   1.00
O604   O     0.10720   0.42946   0.75482   0.00000  Uiso   1.00
C605   C     0.18158   0.59813   0.74895   0.00000  Uiso   1.00
C606   C     0.15175   0.40187   0.75105   0.00000  Uiso   1.00
O607   O     0.11847   0.50450   0.81998   0.00000  Uiso   1.00
O608   O     0.21486   0.49550   0.68003   0.00000  Uiso   1.00
O609   O     0.21485   0.49552   0.81218   0.00000  Uiso   1.00
O610   O     0.11848   0.50448   0.68783   0.00000  Uiso   1.00
C611   C     0.16773   0.50055   0.83632   0.00000  Uiso   1.00
C612   C     0.16561   0.49946   0.66368   0.00000  Uiso   1.00
Zn613  Zn    0.10231   0.50600   0.75521   0.00000  Uiso   1.00
Zn614  Zn    0.23102   0.49400   0.74479   0.00000  Uiso   1.00
C615   C     0.14983   0.45210   0.59331   0.00000  Uiso   1.00
C616   C     0.18350   0.54793   0.90669   0.00000  Uiso   1.00
C617   C     0.16320   0.49878   0.61621   0.00000  Uiso   1.00
C618   C     0.17015   0.50124   0.88379   0.00000  Uiso   1.00
C619   C     0.17770   0.54503   0.59403   0.00000  Uiso   1.00
C620   C     0.15567   0.45499   0.90597   0.00000  Uiso   1.00
C621   C     0.17931   0.54582   0.54762   0.00000  Uiso   1.00
C622   C     0.15406   0.45420   0.95238   0.00000  Uiso   1.00
C623   C     0.16590   0.49952   0.52348   0.00000  Uiso   1.00
C624   C     0.16747   0.50050   0.97653   0.00000  Uiso   1.00
C625   C     0.15096   0.45233   0.54626   0.00000  Uiso   1.00
C626   C     0.18240   0.54770   0.95374   0.00000  Uiso   1.00
C627   C     0.19466   0.59212   0.52512   0.00000  Uiso   1.00
C628   C     0.13872   0.40790   0.97488   0.00000  Uiso   1.00
C629   C     0.19650   0.59308   0.97850   0.00000  Uiso   1.00
C630   C     0.13687   0.40694   0.52151   0.00000  Uiso   1.00
H631   H     0.18834   0.58022   0.61312   0.00000  Uiso   1.00
H632   H     0.14503   0.41980   0.88688   0.00000  Uiso   1.00
H633   H     0.20554   0.62758   0.54360   0.00000  Uiso   1.00
H634   H     0.12785   0.37243   0.95640   0.00000  Uiso   1.00
H635   H     0.20941   0.62943   0.96219   0.00000  Uiso   1.00
H636   H     0.12398   0.37059   0.53782   0.00000  Uiso   1.00
C637   C     0.18763   0.65160   0.74134   0.00000  Uiso   1.00
C638   C     0.14571   0.34840   0.75866   0.00000  Uiso   1.00
N639   N     0.31678   0.48598   0.73783   0.00000  Uiso   1.00
N640   N     0.01656   0.51402   0.76217   0.00000  Uiso   1.00
H641   H     0.00461   0.46088   0.71611   0.00000  Uiso   1.00
H642   H     0.32872   0.53912   0.78389   0.00000  Uiso   1.00
N643   N     0.13696   0.40489   0.61782   0.00000  Uiso   1.00
O644   O     0.09372   0.40146   0.64776   0.00000  Uiso   1.00
O645   O     0.17047   0.36634   0.61206   0.00000  Uiso   1.00
N646   N     0.19629   0.59516   0.88218   0.00000  Uiso   1.00
O647   O     0.23933   0.59855   0.85204   0.00000  Uiso   1.00
O648   O     0.16282   0.63372   0.88807   0.00000  Uiso   1.00
Cl649  Cl    0.24361   0.33771   0.70041   0.00000  Uiso   1.00
Cl650  Cl    0.08974   0.66229   0.79960   0.00000  Uiso   1.00
O651   O     0.46308   0.57952   0.75299   0.00000  Uiso   1.00
O652   O     0.53692   0.42048   0.74702   0.00000  Uiso   1.00
O653   O     0.55946   0.57054   0.74519   0.00000  Uiso   1.00
O654   O     0.44054   0.42946   0.75482   0.00000  Uiso   1.00
C655   C     0.51492   0.59813   0.74895   0.00000  Uiso   1.00
C656   C     0.48508   0.40187   0.75105   0.00000  Uiso   1.00
O657   O     0.45181   0.50450   0.81998   0.00000  Uiso   1.00
O658   O     0.54819   0.49550   0.68003   0.00000  Uiso   1.00
O659   O     0.54819   0.49552   0.81218   0.00000  Uiso   1.00
O660   O     0.45181   0.50448   0.68783   0.00000  Uiso   1.00
C661   C     0.50106   0.50055   0.83632   0.00000  Uiso   1.00
C662   C     0.49894   0.49946   0.66368   0.00000  Uiso   1.00
Zn663  Zn    0.43565   0.50600   0.75521   0.00000  Uiso   1.00
Zn664  Zn    0.56435   0.49400   0.74479   0.00000  Uiso   1.00
C665   C     0.48317   0.45210   0.59331   0.00000  Uiso   1.00
C666   C     0.51683   0.54793   0.90669   0.00000  Uiso   1.00
C667   C     0.49653   0.49878   0.61621   0.00000  Uiso   1.00
C668   C     0.50348   0.50124   0.88379   0.00000  Uiso   1.00
C669   C     0.51103   0.54503   0.59403   0.00000  Uiso   1.00
C670   C     0.48900   0.45499   0.90597   0.00000  Uiso   1.00
C671   C     0.51264   0.54582   0.54762   0.00000  Uiso   1.00
C672   C     0.48740   0.45420   0.95238   0.00000  Uiso   1.00
C673   C     0.49923   0.49952   0.52348   0.00000  Uiso   1.00
C674   C     0.50080   0.50050   0.97653   0.00000  Uiso   1.00
C675   C     0.48429   0.45233   0.54626   0.00000  Uiso   1.00
C676   C     0.51573   0.54770   0.95374   0.00000  Uiso   1.00
C677   C     0.52799   0.59212   0.52512   0.00000  Uiso   1.00
C678   C     0.47206   0.40790   0.97488   0.00000  Uiso   1.00
C679   C     0.52984   0.59308   0.97850   0.00000  Uiso   1.00
C680   C     0.47021   0.40694   0.52151   0.00000  Uiso   1.00
H681   H     0.52168   0.58022   0.61312   0.00000  Uiso   1.00
H682   H     0.47837   0.41980   0.88688   0.00000  Uiso   1.00
H683   H     0.53888   0.62758   0.54360   0.00000  Uiso   1.00
H684   H     0.46118   0.37243   0.95640   0.00000  Uiso   1.00
H685   H     0.54275   0.62943   0.96219   0.00000  Uiso   1.00
H686   H     0.45731   0.37059   0.53782   0.00000  Uiso   1.00
C687   C     0.52096   0.65160   0.74134   0.00000  Uiso   1.00
C688   C     0.47904   0.34840   0.75866   0.00000  Uiso   1.00
N689   N     0.65011   0.48598   0.73783   0.00000  Uiso   1.00
N690   N     0.34989   0.51402   0.76217   0.00000  Uiso   1.00
H691   H     0.33795   0.46088   0.71611   0.00000  Uiso   1.00
H692   H     0.66205   0.53912   0.78389   0.00000  Uiso   1.00
N693   N     0.47029   0.40489   0.61782   0.00000  Uiso   1.00
O694   O     0.42705   0.40146   0.64776   0.00000  Uiso   1.00
O695   O     0.50381   0.36634   0.61206   0.00000  Uiso   1.00
N696   N     0.52963   0.59516   0.88218   0.00000  Uiso   1.00
O697   O     0.57266   0.59855   0.85204   0.00000  Uiso   1.00
O698   O     0.49615   0.63372   0.88807   0.00000  Uiso   1.00
Cl699  Cl    0.57694   0.33771   0.70041   0.00000  Uiso   1.00
Cl700  Cl    0.42307   0.66229   0.79960   0.00000  Uiso   1.00
O701   O     0.79642   0.57952   0.75299   0.00000  Uiso   1.00
O702   O     0.87025   0.42048   0.74702   0.00000  Uiso   1.00
O703   O     0.89280   0.57054   0.74519   0.00000  Uiso   1.00
O704   O     0.77387   0.42946   0.75482   0.00000  Uiso   1.00
C705   C     0.84825   0.59813   0.74895   0.00000  Uiso   1.00
C706   C     0.81842   0.40187   0.75105   0.00000  Uiso   1.00
O707   O     0.78514   0.50450   0.81998   0.00000  Uiso   1.00
O708   O     0.88153   0.49550   0.68003   0.00000  Uiso   1.00
O709   O     0.88152   0.49552   0.81218   0.00000  Uiso   1.00
O710   O     0.78515   0.50448   0.68783   0.00000  Uiso   1.00
C711   C     0.83439   0.50055   0.83632   0.00000  Uiso   1.00
C712   C     0.83228   0.49946   0.66368   0.00000  Uiso   1.00
Zn713  Zn    0.76898   0.50600   0.75521   0.00000  Uiso   1.00
Zn714  Zn    0.89769   0.49400   0.74479   0.00000  Uiso   1.00
C715   C     0.81650   0.45210   0.59331   0.00000  Uiso   1.00
C716   C     0.85016   0.54793   0.90669   0.00000  Uiso   1.00
C717   C     0.82986   0.49878   0.61621   0.00000  Uiso   1.00
C718   C     0.83681   0.50124   0.88379   0.00000  Uiso   1.00
C719   C     0.84436   0.54503   0.59403   0.00000  Uiso   1.00
C720   C     0.82234   0.45499   0.90597   0.00000  Uiso   1.00
C721   C     0.84598   0.54582   0.54762   0.00000  Uiso   1.00
C722   C     0.82073   0.45420   0.95238   0.00000  Uiso   1.00
C723   C     0.83257   0.49952   0.52348   0.00000  Uiso   1.00
C724   C     0.83413   0.50050   0.97653   0.00000  Uiso   1.00
C725   C     0.81763   0.45233   0.54626   0.00000  Uiso   1.00
C726   C     0.84906   0.54770   0.95374   0.00000  Uiso   1.00
C727   C     0.86132   0.59212   0.52512   0.00000  Uiso   1.00
C728   C     0.80539   0.40790   0.97488   0.00000  Uiso   1.00
C729   C     0.86317   0.59308   0.97850   0.00000  Uiso   1.00
C730   C     0.80354   0.40694   0.52151   0.00000  Uiso   1.00
H731   H     0.85501   0.58022   0.61312   0.00000  Uiso   1.00
H732   H     0.81170   0.41980   0.88688   0.00000  Uiso   1.00
H733   H     0.87221   0.62758   0.54360   0.00000  Uiso   1.00
H734   H     0.79451   0.37243   0.95640   0.00000  Uiso   1.00
H735   H     0.87608   0.62943   0.96219   0.00000  Uiso   1.00
H736   H     0.79064   0.37059   0.53782   0.00000  Uiso   1.00
C737   C     0.85430   0.65160   0.74134   0.00000  Uiso   1.00
C738   C     0.81237   0.34840   0.75866   0.00000  Uiso   1.00
N739   N     0.98344   0.48598   0.73783   0.00000  Uiso   1.00
N740   N     0.68322   0.51402   0.76217   0.00000  Uiso   1.00
H741   H     0.67128   0.46088   0.71611   0.00000  Uiso   1.00
H742   H     0.99539   0.53912   0.78389   0.00000  Uiso   1.00
N743   N     0.80363   0.40489   0.61782   0.00000  Uiso   1.00
O744   O     0.76038   0.40146   0.64776   0.00000  Uiso   1.00
O745   O     0.83714   0.36634   0.61206   0.00000  Uiso   1.00
N746   N     0.86296   0.59516   0.88218   0.00000  Uiso   1.00
O747   O     0.90599   0.59855   0.85204   0.00000  Uiso   1.00
O748   O     0.82949   0.63372   0.88807   0.00000  Uiso   1.00
Cl749  Cl    0.91027   0.33771   0.70041   0.00000  Uiso   1.00
Cl750  Cl    0.75641   0.66229   0.79960   0.00000  Uiso   1.00
O751   O     0.12975   0.91286   0.75299   0.00000  Uiso   1.00
O752   O     0.20358   0.75381   0.74702   0.00000  Uiso   1.00
O753   O     0.22613   0.90387   0.74519   0.00000  Uiso   1.00
O754   O     0.10720   0.76279   0.75482   0.00000  Uiso   1.00
C755   C     0.18158   0.93147   0.74895   0.00000  Uiso   1.00
C756   C     0.15175   0.73520   0.75105   0.00000  Uiso   1.00
O757   O     0.11847   0.83784   0.81998   0.00000  Uiso   1.00
O758   O     0.21486   0.82883   0.68003   0.00000  Uiso   1.00
O759   O     0.21485   0.82885   0.81218   0.00000  Uiso   1.00
O760   O     0.11848   0.83781   0.68783   0.00000  Uiso   1.00
C761   C     0.16773   0.83388   0.83632   0.00000  Uiso   1.00
C762   C     0.16561   0.83280   0.66368   0.00000  Uiso   1.00
Zn763  Zn    0.10231   0.83933   0.75521   0.00000  Uiso   1.00
Zn764  Zn    0.23102   0.82734   0.74479   0.00000  Uiso   1.00
C765   C     0.14983   0.78543   0.59331   0.00000  Uiso   1.00
C766   C     0.18350   0.88127   0.90669   0.00000  Uiso   1.00
C767   C     0.16320   0.83212   0.61621   0.00000  Uiso   1.00
C768   C     0.17015   0.83457   0.88379   0.00000  Uiso   1.00
C769   C     0.17770   0.87836   0.59403   0.00000  Uiso   1.00
C770   C     0.15567   0.78832   0.90597   0.00000  Uiso   1.00
C771   C     0.17931   0.87915   0.54762   0.00000  Uiso   1.00
C772   C     0.15406   0.78753   0.95238   0.00000  Uiso   1.00
C773   C     0.16590   0.83286   0.52348   0.00000  Uiso   1.00
C774   C     0.16747   0.83383   0.97653   0.00000  Uiso   1.00
C775   C     0.15096   0.78566   0.54626   0.00000  Uiso   1.00
C776   C     0.18240   0.88103   0.95374   0.00000  Uiso   1.00
C777   C     0.19466   0.92546   0.52512   0.00000  Uiso   1.00
C778   C     0.13872   0.74123   0.97488   0.00000  Uiso   1.00
C779   C     0.19650   0.92641   0.97850   0.00000  Uiso   1.00
C780   C     0.13687   0.74028   0.52151   0.00000  Uiso   1.00
H781   H     0.18834   0.91355   0.61312   0.00000  Uiso   1.00
H782   H     0.14503   0.75313   0.88688   0.00000  Uiso   1.00
H783   H     0.20554   0.96092   0.54360   0.00000  Uiso   1.00
H784   H     0.12785   0.70577   0.95640   0.00000  Uiso   1.00
H785   H     0.20941   0.96277   0.96219   0.00000  Uiso   1.00
H786   H     0.12398   0.70392   0.53782   0.00000  Uiso   1.00
C787   C     0.18763   0.98493   0.74134   0.00000  Uiso   1.00
C788   C     0.14571   0.68173   0.75866   0.00000  Uiso   1.00
N789   N     0.31678   0.81932   0.73783   0.00000  Uiso   1.00
N790   N     0.01656   0.84735   0.76217   0.00000  Uiso   1.00
H791   H     0.00461   0.79421   0.71611   0.00000  Uiso   1.00
H792   H     0.32872   0.87245   0.78389   0.00000  Uiso   1.00
N793   N     0.13696   0.73822   0.61782   0.00000  Uiso   1.00
O794   O     0.09372   0.73479   0.64776   0.00000  Uiso   1.00
O795   O     0.17047   0.69968   0.61206   0.00000  Uiso   1.00
N796   N     0.19629   0.92849   0.88218   0.00000  Uiso   1.00
O797   O     0.23933   0.93189   0.85204   0.00000  Uiso   1.00
O798   O     0.16282   0.96706   0.88807   0.00000  Uiso   1.00
Cl799  Cl    0.24361   0.67104   0.70041   0.00000  Uiso   1.00
Cl800  Cl    0.08974   0.99563   0.79960   0.00000  Uiso   1.00
O801   O     0.46308   0.91286   0.75299   0.00000  Uiso   1.00
O802   O     0.53692   0.75381   0.74702   0.00000  Uiso   1.00
O803   O     0.55946   0.90387   0.74519   0.00000  Uiso   1.00
O804   O     0.44054   0.76279   0.75482   0.00000  Uiso   1.00
C805   C     0.51492   0.93147   0.74895   0.00000  Uiso   1.00
C806   C     0.48508   0.73520   0.75105   0.00000  Uiso   1.00
O807   O     0.45181   0.83784   0.81998   0.00000  Uiso   1.00
O808   O     0.54819   0.82883   0.68003   0.00000  Uiso   1.00
O809   O     0.54819   0.82885   0.81218   0.00000  Uiso   1.00
O810   O     0.45181   0.83781   0.68783   0.00000  Uiso   1.00
C811   C     0.50106   0.83388   0.83632   0.00000  Uiso   1.00
C812   C     0.49894   0.83280   0.66368   0.00000  Uiso   1.00
Zn813  Zn    0.43565   0.83933   0.75521   0.00000  Uiso   1.00
Zn814  Zn    0.56435   0.82734   0.74479   0.00000  Uiso   1.00
C815   C     0.48317   0.78543   0.59331   0.00000  Uiso   1.00
C816   C     0.51683   0.88127   0.90669   0.00000  Uiso   1.00
C817   C     0.49653   0.83212   0.61621   0.00000  Uiso   1.00
C818   C     0.50348   0.83457   0.88379   0.00000  Uiso   1.00
C819   C     0.51103   0.87836   0.59403   0.00000  Uiso   1.00
C820   C     0.48900   0.78832   0.90597   0.00000  Uiso   1.00
C821   C     0.51264   0.87915   0.54762   0.00000  Uiso   1.00
C822   C     0.48740   0.78753   0.95238   0.00000  Uiso   1.00
C823   C     0.49923   0.83286   0.52348   0.00000  Uiso   1.00
C824   C     0.50080   0.83383   0.97653   0.00000  Uiso   1.00
C825   C     0.48429   0.78566   0.54626   0.00000  Uiso   1.00
C826   C     0.51573   0.88103   0.95374   0.00000  Uiso   1.00
C827   C     0.52799   0.92546   0.52512   0.00000  Uiso   1.00
C828   C     0.47206   0.74123   0.97488   0.00000  Uiso   1.00
C829   C     0.52984   0.92641   0.97850   0.00000  Uiso   1.00
C830   C     0.47021   0.74028   0.52151   0.00000  Uiso   1.00
H831   H     0.52168   0.91355   0.61312   0.00000  Uiso   1.00
H832   H     0.47837   0.75313   0.88688   0.00000  Uiso   1.00
H833   H     0.53888   0.96092   0.54360   0.00000  Uiso   1.00
H834   H     0.46118   0.70577   0.95640   0.00000  Uiso   1.00
H835   H     0.54275   0.96277   0.96219   0.00000  Uiso   1.00
H836   H     0.45731   0.70392   0.53782   0.00000  Uiso   1.00
C837   C     0.52096   0.98493   0.74134   0.00000  Uiso   1.00
C838   C     0.47904   0.68173   0.75866   0.00000  Uiso   1.00
N839   N     0.65011   0.81932   0.73783   0.00000  Uiso   1.00
N840   N     0.34989   0.84735   0.76217   0.00000  Uiso   1.00
H841   H     0.33795   0.79421   0.71611   0.00000  Uiso   1.00
H842   H     0.66205   0.87245   0.78389   0.00000  Uiso   1.00
N843   N     0.47029   0.73822   0.61782   0.00000  Uiso   1.00
O844   O     0.42705   0.73479   0.64776   0.00000  Uiso   1.00
O845   O     0.50381   0.69968   0.61206   0.00000  Uiso   1.00
N846   N     0.52963   0.92849   0.88218   0.00000  Uiso   1.00
O847   O     0.57266   0.93189   0.85204   0.00000  Uiso   1.00
O848   O     0.49615   0.96706   0.88807   0.00000  Uiso   1.00
Cl849  Cl    0.57694   0.67104   0.70041   0.00000  Uiso   1.00
Cl850  Cl    0.42307   0.99563   0.79960   0.00000  Uiso   1.00
O851   O     0.79642   0.91286   0.75299   0.00000  Uiso   1.00
O852   O     0.87025   0.75381   0.74702   0.00000  Uiso   1.00
O853   O     0.89280   0.90387   0.74519   0.00000  Uiso   1.00
O854   O     0.77387   0.76279   0.75482   0.00000  Uiso   1.00
C855   C     0.84825   0.93147   0.74895   0.00000  Uiso   1.00
C856   C     0.81842   0.73520   0.75105   0.00000  Uiso   1.00
O857   O     0.78514   0.83784   0.81998   0.00000  Uiso   1.00
O858   O     0.88153   0.82883   0.68003   0.00000  Uiso   1.00
O859   O     0.88152   0.82885   0.81218   0.00000  Uiso   1.00
O860   O     0.78515   0.83781   0.68783   0.00000  Uiso   1.00
C861   C     0.83439   0.83388   0.83632   0.00000  Uiso   1.00
C862   C     0.83228   0.83280   0.66368   0.00000  Uiso   1.00
Zn863  Zn    0.76898   0.83933   0.75521   0.00000  Uiso   1.00
Zn864  Zn    0.89769   0.82734   0.74479   0.00000  Uiso   1.00
C865   C     0.81650   0.78543   0.59331   0.00000  Uiso   1.00
C866   C     0.85016   0.88127   0.90669   0.00000  Uiso   1.00
C867   C     0.82986   0.83212   0.61621   0.00000  Uiso   1.00
C868   C     0.83681   0.83457   0.88379   0.00000  Uiso   1.00
C869   C     0.84436   0.87836   0.59403   0.00000  Uiso   1.00
C870   C     0.82234   0.78832   0.90597   0.00000  Uiso   1.00
C871   C     0.84598   0.87915   0.54762   0.00000  Uiso   1.00
C872   C     0.82073   0.78753   0.95238   0.00000  Uiso   1.00
C873   C     0.83257   0.83286   0.52348   0.00000  Uiso   1.00
C874   C     0.83413   0.83383   0.97653   0.00000  Uiso   1.00
C875   C     0.81763   0.78566   0.54626   0.00000  Uiso   1.00
C876   C     0.84906   0.88103   0.95374   0.00000  Uiso   1.00
C877   C     0.86132   0.92546   0.52512   0.00000  Uiso   1.00
C878   C     0.80539   0.74123   0.97488   0.00000  Uiso   1.00
C879   C     0.86317   0.92641   0.97850   0.00000  Uiso   1.00
C880   C     0.80354   0.74028   0.52151   0.00000  Uiso   1.00
H881   H     0.85501   0.91355   0.61312   0.00000  Uiso   1.00
H882   H     0.81170   0.75313   0.88688   0.00000  Uiso   1.00
H883   H     0.87221   0.96092   0.54360   0.00000  Uiso   1.00
H884   H     0.79451   0.70577   0.95640   0.00000  Uiso   1.00
H885   H     0.87608   0.96277   0.96219   0.00000  Uiso   1.00
H886   H     0.79064   0.70392   0.53782   0.00000  Uiso   1.00
C887   C     0.85430   0.98493   0.74134   0.00000  Uiso   1.00
C888   C     0.81237   0.68173   0.75866   0.00000  Uiso   1.00
N889   N     0.98344   0.81932   0.73783   0.00000  Uiso   1.00
N890   N     0.68322   0.84735   0.76217   0.00000  Uiso   1.00
H891   H     0.67128   0.79421   0.71611   0.00000  Uiso   1.00
H892   H     0.99539   0.87245   0.78389   0.00000  Uiso   1.00
N893   N     0.80363   0.73822   0.61782   0.00000  Uiso   1.00
O894   O     0.76038   0.73479   0.64776   0.00000  Uiso   1.00
O895   O     0.83714   0.69968   0.61206   0.00000  Uiso   1.00
N896   N     0.86296   0.92849   0.88218   0.00000  Uiso   1.00
O897   O     0.90599   0.93189   0.85204   0.00000  Uiso   1.00
O898   O     0.82949   0.96706   0.88807   0.00000  Uiso   1.00
Cl899  Cl    0.91027   0.67104   0.70041   0.00000  Uiso   1.00
Cl900  Cl    0.75641   0.99563   0.79960   0.00000  Uiso   1.00
loop_
_geom_bond_atom_site_label_1
_geom_bond_atom_site_label_2
_geom_bond_distance
_geom_bond_site_symmetry_2
_ccdc_geom_bond_type
O1     C5      1.272   .     A
O1     Zn13    1.966   .     S
O2     C6      1.272   .     A
O2     Zn14    1.966   .     S
O3     Zn14    1.983   .     S
O3     C5      1.289   .     A
O4     C6      1.289   .     A
O4     Zn13    1.983   .     S
C5     C37     1.399   .     S
C6     C38     1.399   .     S
O7     C11     1.285   .     A
O7     Zn13    1.989   .     S
O8     C12     1.285   .     A
O8     Zn14    1.989   .     S
O9     Zn14    2.016   .     S
O9     C11     1.284   .     A
O10    C12     1.284   .     A
O10    Zn13    2.016   .     S
C11    C18     1.417   .     S
C12    C17     1.417   .     S
Zn13   N40     2.017   .     S
Zn14   N39     2.017   .     S
C15    C25     1.399   .     A
C15    N43     1.438   .     S
C15    C17     1.401   .     A
C16    C26     1.399   .     A
C16    C18     1.401   .     A
C16    N46     1.438   .     S
C17    C19     1.388   .     A
C18    C20     1.388   .     A
C19    H31     1.086   .     S
C19    C21     1.380   .     A
C20    C22     1.380   .     A
C20    H32     1.086   .     S
C21    C27     1.397   .     A
C21    C23     1.411   .     A
C22    C28     1.397   .     A
C22    C24     1.411   .     A
C23    C25     1.419   .     A
C23    C474    1.396   1_554 S
C24    C26     1.419   .     A
C24    C473    1.396   .     S
C25    C30     1.405   .     A
C26    C29     1.405   .     A
C27    H33     1.084   .     S
C27    C479    1.386   1_554 S
C28    H34     1.084   .     S
C28    C480    1.386   .     S
C29    H35     1.082   .     S
C29    C477    1.386   .     S
C30    H36     1.082   .     S
C30    C478    1.386   1_554 S
C37    C188    1.353   .     S
C37    Cl199   1.782   .     S
C38    C337    1.353   1_545 S
C38    Cl350   1.782   1_545 S
N39    N90     1.277   .     S
N39    H91     1.029   .     S
N40    N139    1.277   1_455 S
N40    H142    1.029   1_455 S
H41    N139    1.029   1_455 S
H42    N90     1.029   .     S
N43    O44     1.301   .     A
N43    O45     1.301   .     A
N46    O48     1.301   .     A
N46    O47     1.301   .     A
Cl49   C337    1.782   1_545 S
Cl50   C188    1.782   .     S
O51    C55     1.272   .     A
O51    Zn63    1.966   .     S
O52    C56     1.272   .     A
O52    Zn64    1.966   .     S
O53    Zn64    1.983   .     S
O53    C55     1.289   .     A
O54    C56     1.289   .     A
O54    Zn63    1.983   .     S
C55    C87     1.399   .     S
C56    C88     1.399   .     S
O57    C61     1.285   .     A
O57    Zn63    1.989   .     S
O58    C62     1.285   .     A
O58    Zn64    1.989   .     S
O59    Zn64    2.016   .     S
O59    C61     1.284   .     A
O60    C62     1.284   .     A
O60    Zn63    2.016   .     S
C61    C68     1.417   .     S
C62    C67     1.417   .     S
Zn63   N90     2.017   .     S
Zn64   N89     2.017   .     S
C65    C75     1.399   .     A
C65    N93     1.438   .     S
C65    C67     1.401   .     A
C66    C76     1.399   .     A
C66    C68     1.401   .     A
C66    N96     1.438   .     S
C67    C69     1.388   .     A
C68    C70     1.388   .     A
C69    H81     1.086   .     S
C69    C71     1.380   .     A
C70    C72     1.380   .     A
C70    H82     1.086   .     S
C71    C77     1.397   .     A
C71    C73     1.411   .     A
C72    C78     1.397   .     A
C72    C74     1.411   .     A
C73    C75     1.419   .     A
C73    C524    1.396   1_554 S
C74    C76     1.419   .     A
C74    C523    1.396   .     S
C75    C80     1.405   .     A
C76    C79     1.405   .     A
C77    H83     1.084   .     S
C77    C529    1.386   1_554 S
C78    H84     1.084   .     S
C78    C530    1.386   .     S
C79    H85     1.082   .     S
C79    C527    1.386   .     S
C80    H86     1.082   .     S
C80    C528    1.386   1_554 S
C87    C238    1.353   .     S
C87    Cl249   1.782   .     S
C88    C387    1.353   1_545 S
C88    Cl400   1.782   1_545 S
N89    N140    1.277   .     S
N89    H141    1.029   .     S
H92    N140    1.029   .     S
N93    O94     1.301   .     A
N93    O95     1.301   .     A
N96    O98     1.301   .     A
N96    O97     1.301   .     A
Cl99   C387    1.782   1_545 S
Cl100  C238    1.782   .     S
O101   C105    1.272   .     A
O101   Zn113   1.966   .     S
O102   C106    1.272   .     A
O102   Zn114   1.966   .     S
O103   Zn114   1.983   .     S
O103   C105    1.289   .     A
O104   C106    1.289   .     A
O104   Zn113   1.983   .     S
C105   C137    1.399   .     S
C106   C138    1.399   .     S
O107   C111    1.285   .     A
O107   Zn113   1.989   .     S
O108   C112    1.285   .     A
O108   Zn114   1.989   .     S
O109   Zn114   2.016   .     S
O109   C111    1.284   .     A
O110   C112    1.284   .     A
O110   Zn113   2.016   .     S
C111   C118    1.417   .     S
C112   C117    1.417   .     S
Zn113  N140    2.017   .     S
Zn114  N139    2.017   .     S
C115   C125    1.399   .     A
C115   N143    1.438   .     S
C115   C117    1.401   .     A
C116   C126    1.399   .     A
C116   C118    1.401   .     A
C116   N146    1.438   .     S
C117   C119    1.388   .     A
C118   C120    1.388   .     A
C119   H131    1.086   .     S
C119   C121    1.380   .     A
C120   C122    1.380   .     A
C120   H132    1.086   .     S
C121   C127    1.397   .     A
C121   C123    1.411   .     A
C122   C128    1.397   .     A
C122   C124    1.411   .     A
C123   C125    1.419   .     A
C123   C574    1.396   1_554 S
C124   C126    1.419   .     A
C124   C573    1.396   .     S
C125   C130    1.405   .     A
C126   C129    1.405   .     A
C127   H133    1.084   .     S
C127   C579    1.386   1_554 S
C128   H134    1.084   .     S
C128   C580    1.386   .     S
C129   H135    1.082   .     S
C129   C577    1.386   .     S
C130   H136    1.082   .     S
C130   C578    1.386   1_554 S
C137   C288    1.353   .     S
C137   Cl299   1.782   .     S
C138   C437    1.353   1_545 S
C138   Cl450   1.782   1_545 S
N139   N40     1.277   1_655 S
N139   H41     1.029   1_655 S
H142   N40     1.029   1_655 S
N143   O144    1.301   .     A
N143   O145    1.301   .     A
N146   O148    1.301   .     A
N146   O147    1.301   .     A
Cl149  C437    1.782   1_545 S
Cl150  C288    1.782   .     S
O151   C155    1.272   .     A
O151   Zn163   1.966   .     S
O152   C156    1.272   .     A
O152   Zn164   1.966   .     S
O153   Zn164   1.983   .     S
O153   C155    1.289   .     A
O154   C156    1.289   .     A
O154   Zn163   1.983   .     S
C155   C187    1.399   .     S
C156   C188    1.399   .     S
O157   C161    1.285   .     A
O157   Zn163   1.989   .     S
O158   C162    1.285   .     A
O158   Zn164   1.989   .     S
O159   Zn164   2.016   .     S
O159   C161    1.284   .     A
O160   C162    1.284   .     A
O160   Zn163   2.016   .     S
C161   C168    1.417   .     S
C162   C167    1.417   .     S
Zn163  N190    2.017   .     S
Zn164  N189    2.017   .     S
C165   C175    1.399   .     A
C165   N193    1.438   .     S
C165   C167    1.401   .     A
C166   C176    1.399   .     A
C166   C168    1.401   .     A
C166   N196    1.438   .     S
C167   C169    1.388   .     A
C168   C170    1.388   .     A
C169   H181    1.086   .     S
C169   C171    1.380   .     A
C170   C172    1.380   .     A
C170   H182    1.086   .     S
C171   C177    1.397   .     A
C171   C173    1.411   .     A
C172   C178    1.397   .     A
C172   C174    1.411   .     A
C173   C175    1.419   .     A
C173   C624    1.396   1_554 S
C174   C176    1.419   .     A
C174   C623    1.396   .     S
C175   C180    1.405   .     A
C176   C179    1.405   .     A
C177   H183    1.084   .     S
C177   C629    1.386   1_554 S
C178   H184    1.084   .     S
C178   C630    1.386   .     S
C179   H185    1.082   .     S
C179   C627    1.386   .     S
C180   H186    1.082   .     S
C180   C628    1.386   1_554 S
C187   C338    1.353   .     S
C187   Cl349   1.782   .     S
N189   N240    1.277   .     S
N189   H241    1.029   .     S
N190   N289    1.277   1_455 S
N190   H292    1.029   1_455 S
H191   N289    1.029   1_455 S
H192   N240    1.029   .     S
N193   O194    1.301   .     A
N193   O195    1.301   .     A
N196   O198    1.301   .     A
N196   O197    1.301   .     A
Cl200  C338    1.782   .     S
O201   C205    1.272   .     A
O201   Zn213   1.966   .     S
O202   C206    1.272   .     A
O202   Zn214   1.966   .     S
O203   Zn214   1.983   .     S
O203   C205    1.289   .     A
O204   C206    1.289   .     A
O204   Zn213   1.983   .     S
C205   C237    1.399   .     S
C206   C238    1.399   .     S
O207   C211    1.285   .     A
O207   Zn213   1.989   .     S
O208   C212    1.285   .     A
O208   Zn214   1.989   .     S
O209   Zn214   2.016   .     S
O209   C211    1.284   .     A
O210   C212    1.284   .     A
O210   Zn213   2.016   .     S
C211   C218    1.417   .     S
C212   C217    1.417   .     S
Zn213  N240    2.017   .     S
Zn214  N239    2.017   .     S
C215   C225    1.399   .     A
C215   N243    1.438   .     S
C215   C217    1.401   .     A
C216   C226    1.399   .     A
C216   C218    1.401   .     A
C216   N246    1.438   .     S
C217   C219    1.388   .     A
C218   C220    1.388   .     A
C219   H231    1.086   .     S
C219   C221    1.380   .     A
C220   C222    1.380   .     A
C220   H232    1.086   .     S
C221   C227    1.397   .     A
C221   C223    1.411   .     A
C222   C228    1.397   .     A
C222   C224    1.411   .     A
C223   C225    1.419   .     A
C223   C674    1.396   1_554 S
C224   C226    1.419   .     A
C224   C673    1.396   .     S
C225   C230    1.405   .     A
C226   C229    1.405   .     A
C227   H233    1.084   .     S
C227   C679    1.386   1_554 S
C228   H234    1.084   .     S
C228   C680    1.386   .     S
C229   H235    1.082   .     S
C229   C677    1.386   .     S
C230   H236    1.082   .     S
C230   C678    1.386   1_554 S
C237   C388    1.353   .     S
C237   Cl399   1.782   .     S
N239   N290    1.277   .     S
N239   H291    1.029   .     S
H242   N290    1.029   .     S
N243   O244    1.301   .     A
N243   O245    1.301   .     A
N246   O248    1.301   .     A
N246   O247    1.301   .     A
Cl250  C388    1.782   .     S
O251   C255    1.272   .     A
O251   Zn263   1.966   .     S
O252   C256    1.272   .     A
O252   Zn264   1.966   .     S
O253   Zn264   1.983   .     S
O253   C255    1.289   .     A
O254   C256    1.289   .     A
O254   Zn263   1.983   .     S
C255   C287    1.399   .     S
C256   C288    1.399   .     S
O257   C261    1.285   .     A
O257   Zn263   1.989   .     S
O258   C262    1.285   .     A
O258   Zn264   1.989   .     S
O259   Zn264   2.016   .     S
O259   C261    1.284   .     A
O260   C262    1.284   .     A
O260   Zn263   2.016   .     S
C261   C268    1.417   .     S
C262   C267    1.417   .     S
Zn263  N290    2.017   .     S
Zn264  N289    2.017   .     S
C265   C275    1.399   .     A
C265   N293    1.438   .     S
C265   C267    1.401   .     A
C266   C276    1.399   .     A
C266   C268    1.401   .     A
C266   N296    1.438   .     S
C267   C269    1.388   .     A
C268   C270    1.388   .     A
C269   H281    1.086   .     S
C269   C271    1.380   .     A
C270   C272    1.380   .     A
C270   H282    1.086   .     S
C271   C277    1.397   .     A
C271   C273    1.411   .     A
C272   C278    1.397   .     A
C272   C274    1.411   .     A
C273   C275    1.419   .     A
C273   C724    1.396   1_554 S
C274   C276    1.419   .     A
C274   C723    1.396   .     S
C275   C280    1.405   .     A
C276   C279    1.405   .     A
C277   H283    1.084   .     S
C277   C729    1.386   1_554 S
C278   H284    1.084   .     S
C278   C730    1.386   .     S
C279   H285    1.082   .     S
C279   C727    1.386   .     S
C280   H286    1.082   .     S
C280   C728    1.386   1_554 S
C287   C438    1.353   .     S
C287   Cl449   1.782   .     S
N289   N190    1.277   1_655 S
N289   H191    1.029   1_655 S
H292   N190    1.029   1_655 S
N293   O294    1.301   .     A
N293   O295    1.301   .     A
N296   O298    1.301   .     A
N296   O297    1.301   .     A
Cl300  C438    1.782   .     S
O301   C305    1.272   .     A
O301   Zn313   1.966   .     S
O302   C306    1.272   .     A
O302   Zn314   1.966   .     S
O303   Zn314   1.983   .     S
O303   C305    1.289   .     A
O304   C306    1.289   .     A
O304   Zn313   1.983   .     S
C305   C337    1.399   .     S
C306   C338    1.399   .     S
O307   C311    1.285   .     A
O307   Zn313   1.989   .     S
O308   C312    1.285   .     A
O308   Zn314   1.989   .     S
O309   Zn314   2.016   .     S
O309   C311    1.284   .     A
O310   C312    1.284   .     A
O310   Zn313   2.016   .     S
C311   C318    1.417   .     S
C312   C317    1.417   .     S
Zn313  N340    2.017   .     S
Zn314  N339    2.017   .     S
C315   C325    1.399   .     A
C315   N343    1.438   .     S
C315   C317    1.401   .     A
C316   C326    1.399   .     A
C316   C318    1.401   .     A
C316   N346    1.438   .     S
C317   C319    1.388   .     A
C318   C320    1.388   .     A
C319   H331    1.086   .     S
C319   C321    1.380   .     A
C320   C322    1.380   .     A
C320   H332    1.086   .     S
C321   C327    1.397   .     A
C321   C323    1.411   .     A
C322   C328    1.397   .     A
C322   C324    1.411   .     A
C323   C325    1.419   .     A
C323   C774    1.396   1_554 S
C324   C326    1.419   .     A
C324   C773    1.396   .     S
C325   C330    1.405   .     A
C326   C329    1.405   .     A
C327   H333    1.084   .     S
C327   C779    1.386   1_554 S
C328   H334    1.084   .     S
C328   C780    1.386   .     S
C329   H335    1.082   .     S
C329   C777    1.386   .     S
C330   H336    1.082   .     S
C330   C778    1.386   1_554 S
C337   C38     1.353   1_565 S
C337   Cl49    1.782   1_565 S
N339   N390    1.277   .     S
N339   H391    1.029   .     S
N340   N439    1.277   1_455 S
N340   H442    1.029   1_455 S
H341   N439    1.029   1_455 S
H342   N390    1.029   .     S
N343   O344    1.301   .     A
N343   O345    1.301   .     A
N346   O348    1.301   .     A
N346   O347    1.301   .     A
Cl350  C38     1.782   1_565 S
O351   C355    1.272   .     A
O351   Zn363   1.966   .     S
O352   C356    1.272   .     A
O352   Zn364   1.966   .     S
O353   Zn364   1.983   .     S
O353   C355    1.289   .     A
O354   C356    1.289   .     A
O354   Zn363   1.983   .     S
C355   C387    1.399   .     S
C356   C388    1.399   .     S
O357   C361    1.285   .     A
O357   Zn363   1.989   .     S
O358   C362    1.285   .     A
O358   Zn364   1.989   .     S
O359   Zn364   2.016   .     S
O359   C361    1.284   .     A
O360   C362    1.284   .     A
O360   Zn363   2.016   .     S
C361   C368    1.417   .     S
C362   C367    1.417   .     S
Zn363  N390    2.017   .     S
Zn364  N389    2.017   .     S
C365   C375    1.399   .     A
C365   N393    1.438   .     S
C365   C367    1.401   .     A
C366   C376    1.399   .     A
C366   C368    1.401   .     A
C366   N396    1.438   .     S
C367   C369    1.388   .     A
C368   C370    1.388   .     A
C369   H381    1.086   .     S
C369   C371    1.380   .     A
C370   C372    1.380   .     A
C370   H382    1.086   .     S
C371   C377    1.397   .     A
C371   C373    1.411   .     A
C372   C378    1.397   .     A
C372   C374    1.411   .     A
C373   C375    1.419   .     A
C373   C824    1.396   1_554 S
C374   C376    1.419   .     A
C374   C823    1.396   .     S
C375   C380    1.405   .     A
C376   C379    1.405   .     A
C377   H383    1.084   .     S
C377   C829    1.386   1_554 S
C378   H384    1.084   .     S
C378   C830    1.386   .     S
C379   H385    1.082   .     S
C379   C827    1.386   .     S
C380   H386    1.082   .     S
C380   C828    1.386   1_554 S
C387   C88     1.353   1_565 S
C387   Cl99    1.782   1_565 S
N389   N440    1.277   .     S
N389   H441    1.029   .     S
H392   N440    1.029   .     S
N393   O394    1.301   .     A
N393   O395    1.301   .     A
N396   O398    1.301   .     A
N396   O397    1.301   .     A
Cl400  C88     1.782   1_565 S
O401   C405    1.272   .     A
O401   Zn413   1.966   .     S
O402   C406    1.272   .     A
O402   Zn414   1.966   .     S
O403   Zn414   1.983   .     S
O403   C405    1.289   .     A
O404   C406    1.289   .     A
O404   Zn413   1.983   .     S
C405   C437    1.399   .     S
C406   C438    1.399   .     S
O407   C411    1.285   .     A
O407   Zn413   1.989   .     S
O408   C412    1.285   .     A
O408   Zn414   1.989   .     S
O409   Zn414   2.016   .     S
O409   C411    1.284   .     A
O410   C412    1.284   .     A
O410   Zn413   2.016   .     S
C411   C418    1.417   .     S
C412   C417    1.417   .     S
Zn413  N440    2.017   .     S
Zn414  N439    2.017   .     S
C415   C425    1.399   .     A
C415   N443    1.438   .     S
C415   C417    1.401   .     A
C416   C426    1.399   .     A
C416   C418    1.401   .     A
C416   N446    1.438   .     S
C417   C419    1.388   .     A
C418   C420    1.388   .     A
C419   H431    1.086   .     S
C419   C421    1.380   .     A
C420   C422    1.380   .     A
C420   H432    1.086   .     S
C421   C427    1.397   .     A
C421   C423    1.411   .     A
C422   C428    1.397   .     A
C422   C424    1.411   .     A
C423   C425    1.419   .     A
C423   C874    1.396   1_554 S
C424   C426    1.419   .     A
C424   C873    1.396   .     S
C425   C430    1.405   .     A
C426   C429    1.405   .     A
C427   H433    1.084   .     S
C427   C879    1.386   1_554 S
C428   H434    1.084   .     S
C428   C880    1.386   .     S
C429   H435    1.082   .     S
C429   C877    1.386   .     S
C430   H436    1.082   .     S
C430   C878    1.386   1_554 S
C437   C138    1.353   1_565 S
C437   Cl149   1.782   1_565 S
N439   N340    1.277   1_655 S
N439   H341    1.029   1_655 S
H442   N340    1.029   1_655 S
N443   O444    1.301   .     A
N443   O445    1.301   .     A
N446   O448    1.301   .     A
N446   O447    1.301   .     A
Cl450  C138    1.782   1_565 S
O451   C455    1.272   .     A
O451   Zn463   1.966   .     S
O452   C456    1.272   .     A
O452   Zn464   1.966   .     S
O453   Zn464   1.983   .     S
O453   C455    1.289   .     A
O454   C456    1.289   .     A
O454   Zn463   1.983   .     S
C455   C487    1.399   .     S
C456   C488    1.399   .     S
O457   C461    1.285   .     A
O457   Zn463   1.989   .     S
O458   C462    1.285   .     A
O458   Zn464   1.989   .     S
O459   Zn464   2.016   .     S
O459   C461    1.284   .     A
O460   C462    1.284   .     A
O460   Zn463   2.016   .     S
C461   C468    1.417   .     S
C462   C467    1.417   .     S
Zn463  N490    2.017   .     S
Zn464  N489    2.017   .     S
C465   C475    1.399   .     A
C465   N493    1.438   .     S
C465   C467    1.401   .     A
C466   C476    1.399   .     A
C466   C468    1.401   .     A
C466   N496    1.438   .     S
C467   C469    1.388   .     A
C468   C470    1.388   .     A
C469   H481    1.086   .     S
C469   C471    1.380   .     A
C470   C472    1.380   .     A
C470   H482    1.086   .     S
C471   C477    1.397   .     A
C471   C473    1.411   .     A
C472   C478    1.397   .     A
C472   C474    1.411   .     A
C473   C475    1.419   .     A
C474   C476    1.419   .     A
C474   C23     1.396   1_556 S
C475   C480    1.405   .     A
C476   C479    1.405   .     A
C477   H483    1.084   .     S
C478   H484    1.084   .     S
C478   C30     1.386   1_556 S
C479   H485    1.082   .     S
C479   C27     1.386   1_556 S
C480   H486    1.082   .     S
C487   C638    1.353   .     S
C487   Cl649   1.782   .     S
C488   C787    1.353   1_545 S
C488   Cl800   1.782   1_545 S
N489   N540    1.277   .     S
N489   H541    1.029   .     S
N490   N589    1.277   1_455 S
N490   H592    1.029   1_455 S
H491   N589    1.029   1_455 S
H492   N540    1.029   .     S
N493   O494    1.301   .     A
N493   O495    1.301   .     A
N496   O498    1.301   .     A
N496   O497    1.301   .     A
Cl499  C787    1.782   1_545 S
Cl500  C638    1.782   .     S
O501   C505    1.272   .     A
O501   Zn513   1.966   .     S
O502   C506    1.272   .     A
O502   Zn514   1.966   .     S
O503   Zn514   1.983   .     S
O503   C505    1.289   .     A
O504   C506    1.289   .     A
O504   Zn513   1.983   .     S
C505   C537    1.399   .     S
C506   C538    1.399   .     S
O507   C511    1.285   .     A
O507   Zn513   1.989   .     S
O508   C512    1.285   .     A
O508   Zn514   1.989   .     S
O509   Zn514   2.016   .     S
O509   C511    1.284   .     A
O510   C512    1.284   .     A
O510   Zn513   2.016   .     S
C511   C518    1.417   .     S
C512   C517    1.417   .     S
Zn513  N540    2.017   .     S
Zn514  N539    2.017   .     S
C515   C525    1.399   .     A
C515   N543    1.438   .     S
C515   C517    1.401   .     A
C516   C526    1.399   .     A
C516   C518    1.401   .     A
C516   N546    1.438   .     S
C517   C519    1.388   .     A
C518   C520    1.388   .     A
C519   H531    1.086   .     S
C519   C521    1.380   .     A
C520   C522    1.380   .     A
C520   H532    1.086   .     S
C521   C527    1.397   .     A
C521   C523    1.411   .     A
C522   C528    1.397   .     A
C522   C524    1.411   .     A
C523   C525    1.419   .     A
C524   C526    1.419   .     A
C524   C73     1.396   1_556 S
C525   C530    1.405   .     A
C526   C529    1.405   .     A
C527   H533    1.084   .     S
C528   H534    1.084   .     S
C528   C80     1.386   1_556 S
C529   H535    1.082   .     S
C529   C77     1.386   1_556 S
C530   H536    1.082   .     S
C537   C688    1.353   .     S
C537   Cl699   1.782   .     S
C538   C837    1.353   1_545 S
C538   Cl850   1.782   1_545 S
N539   N590    1.277   .     S
N539   H591    1.029   .     S
H542   N590    1.029   .     S
N543   O544    1.301   .     A
N543   O545    1.301   .     A
N546   O548    1.301   .     A
N546   O547    1.301   .     A
Cl549  C837    1.782   1_545 S
Cl550  C688    1.782   .     S
O551   C555    1.272   .     A
O551   Zn563   1.966   .     S
O552   C556    1.272   .     A
O552   Zn564   1.966   .     S
O553   Zn564   1.983   .     S
O553   C555    1.289   .     A
O554   C556    1.289   .     A
O554   Zn563   1.983   .     S
C555   C587    1.399   .     S
C556   C588    1.399   .     S
O557   C561    1.285   .     A
O557   Zn563   1.989   .     S
O558   C562    1.285   .     A
O558   Zn564   1.989   .     S
O559   Zn564   2.016   .     S
O559   C561    1.284   .     A
O560   C562    1.284   .     A
O560   Zn563   2.016   .     S
C561   C568    1.417   .     S
C562   C567    1.417   .     S
Zn563  N590    2.017   .     S
Zn564  N589    2.017   .     S
C565   C575    1.399   .     A
C565   N593    1.438   .     S
C565   C567    1.401   .     A
C566   C576    1.399   .     A
C566   C568    1.401   .     A
C566   N596    1.438   .     S
C567   C569    1.388   .     A
C568   C570    1.388   .     A
C569   H581    1.086   .     S
C569   C571    1.380   .     A
C570   C572    1.380   .     A
C570   H582    1.086   .     S
C571   C577    1.397   .     A
C571   C573    1.411   .     A
C572   C578    1.397   .     A
C572   C574    1.411   .     A
C573   C575    1.419   .     A
C574   C576    1.419   .     A
C574   C123    1.396   1_556 S
C575   C580    1.405   .     A
C576   C579    1.405   .     A
C577   H583    1.084   .     S
C578   H584    1.084   .     S
C578   C130    1.386   1_556 S
C579   H585    1.082   .     S
C579   C127    1.386   1_556 S
C580   H586    1.082   .     S
C587   C738    1.353   .     S
C587   Cl749   1.782   .     S
C588   C887    1.353   1_545 S
C588   Cl900   1.782   1_545 S
N589   N490    1.277   1_655 S
N589   H491    1.029   1_655 S
H592   N490    1.029   1_655 S
N593   O594    1.301   .     A
N593   O595    1.301   .     A
N596   O598    1.301   .     A
N596   O597    1.301   .     A
Cl599  C887    1.782   1_545 S
Cl600  C738    1.782   .     S
O601   C605    1.272   .     A
O601   Zn613   1.966   .     S
O602   C606    1.272   .     A
O602   Zn614   1.966   .     S
O603   Zn614   1.983   .     S
O603   C605    1.289   .     A
O604   C606    1.289   .     A
O604   Zn613   1.983   .     S
C605   C637    1.399   .     S
C606   C638    1.399   .     S
O607   C611    1.285   .     A
O607   Zn613   1.989   .     S
O608   C612    1.285   .     A
O608   Zn614   1.989   .     S
O609   Zn614   2.016   .     S
O609   C611    1.284   .     A
O610   C612    1.284   .     A
O610   Zn613   2.016   .     S
C611   C618    1.417   .     S
C612   C617    1.417   .     S
Zn613  N640    2.017   .     S
Zn614  N639    2.017   .     S
C615   C625    1.399   .     A
C615   N643    1.438   .     S
C615   C617    1.401   .     A
C616   C626    1.399   .     A
C616   C618    1.401   .     A
C616   N646    1.438   .     S
C617   C619    1.388   .     A
C618   C620    1.388   .     A
C619   H631    1.086   .     S
C619   C621    1.380   .     A
C620   C622    1.380   .     A
C620   H632    1.086   .     S
C621   C627    1.397   .     A
C621   C623    1.411   .     A
C622   C628    1.397   .     A
C622   C624    1.411   .     A
C623   C625    1.419   .     A
C624   C626    1.419   .     A
C624   C173    1.396   1_556 S
C625   C630    1.405   .     A
C626   C629    1.405   .     A
C627   H633    1.084   .     S
C628   H634    1.084   .     S
C628   C180    1.386   1_556 S
C629   H635    1.082   .     S
C629   C177    1.386   1_556 S
C630   H636    1.082   .     S
C637   C788    1.353   .     S
C637   Cl799   1.782   .     S
N639   N690    1.277   .     S
N639   H691    1.029   .     S
N640   N739    1.277   1_455 S
N640   H742    1.029   1_455 S
H641   N739    1.029   1_455 S
H642   N690    1.029   .     S
N643   O644    1.301   .     A
N643   O645    1.301   .     A
N646   O648    1.301   .     A
N646   O647    1.301   .     A
Cl650  C788    1.782   .     S
O651   C655    1.272   .     A
O651   Zn663   1.966   .     S
O652   C656    1.272   .     A
O652   Zn664   1.966   .     S
O653   Zn664   1.983   .     S
O653   C655    1.289   .     A
O654   C656    1.289   .     A
O654   Zn663   1.983   .     S
C655   C687    1.399   .     S
C656   C688    1.399   .     S
O657   C661    1.285   .     A
O657   Zn663   1.989   .     S
O658   C662    1.285   .     A
O658   Zn664   1.989   .     S
O659   Zn664   2.016   .     S
O659   C661    1.284   .     A
O660   C662    1.284   .     A
O660   Zn663   2.016   .     S
C661   C668    1.417   .     S
C662   C667    1.417   .     S
Zn663  N690    2.017   .     S
Zn664  N689    2.017   .     S
C665   C675    1.399   .     A
C665   N693    1.438   .     S
C665   C667    1.401   .     A
C666   C676    1.399   .     A
C666   C668    1.401   .     A
C666   N696    1.438   .     S
C667   C669    1.388   .     A
C668   C670    1.388   .     A
C669   H681    1.086   .     S
C669   C671    1.380   .     A
C670   C672    1.380   .     A
C670   H682    1.086   .     S
C671   C677    1.397   .     A
C671   C673    1.411   .     A
C672   C678    1.397   .     A
C672   C674    1.411   .     A
C673   C675    1.419   .     A
C674   C676    1.419   .     A
C674   C223    1.396   1_556 S
C675   C680    1.405   .     A
C676   C679    1.405   .     A
C677   H683    1.084   .     S
C678   H684    1.084   .     S
C678   C230    1.386   1_556 S
C679   H685    1.082   .     S
C679   C227    1.386   1_556 S
C680   H686    1.082   .     S
C687   C838    1.353   .     S
C687   Cl849   1.782   .     S
N689   N740    1.277   .     S
N689   H741    1.029   .     S
H692   N740    1.029   .     S
N693   O694    1.301   .     A
N693   O695    1.301   .     A
N696   O698    1.301   .     A
N696   O697    1.301   .     A
Cl700  C838    1.782   .     S
O701   C705    1.272   .     A
O701   Zn713   1.966   .     S
O702   C706    1.272   .     A
O702   Zn714   1.966   .     S
O703   Zn714   1.983   .     S
O703   C705    1.289   .     A
O704   C706    1.289   .     A
O704   Zn713   1.983   .     S
C705   C737    1.399   .     S
C706   C738    1.399   .     S
O707   C711    1.285   .     A
O707   Zn713   1.989   .     S
O708   C712    1.285   .     A
O708   Zn714   1.989   .     S
O709   Zn714   2.016   .     S
O709   C711    1.284   .     A
O710   C712    1.284   .     A
O710   Zn713   2.016   .     S
C711   C718    1.417   .     S
C712   C717    1.417   .     S
Zn713  N740    2.017   .     S
Zn714  N739    2.017   .     S
C715   C725    1.399   .     A
C715   N743    1.438   .     S
C715   C717    1.401   .     A
C716   C726    1.399   .     A
C716   C718    1.401   .     A
C716   N746    1.438   .     S
C717   C719    1.388   .     A
C718   C720    1.388   .     A
C719   H731    1.086   .     S
C719   C721    1.380   .     A
C720   C722    1.380   .     A
C720   H732    1.086   .     S
C721   C727    1.397   .     A
C721   C723    1.411   .     A
C722   C728    1.397   .     A
C722   C724    1.411   .     A
C723   C725    1.419   .     A
C724   C726    1.419   .     A
C724   C273    1.396   1_556 S
C725   C730    1.405   .     A
C726   C729    1.405   .     A
C727   H733    1.084   .     S
C728   H734    1.084   .     S
C728   C280    1.386   1_556 S
C729   H735    1.082   .     S
C729   C277    1.386   1_556 S
C730   H736    1.082   .     S
C737   C888    1.353   .     S
C737   Cl899   1.782   .     S
N739   N640    1.277   1_655 S
N739   H641    1.029   1_655 S
H742   N640    1.029   1_655 S
N743   O744    1.301   .     A
N743   O745    1.301   .     A
N746   O748    1.301   .     A
N746   O747    1.301   .     A
Cl750  C888    1.782   .     S
O751   C755    1.272   .     A
O751   Zn763   1.966   .     S
O752   C756    1.272   .     A
O752   Zn764   1.966   .     S
O753   Zn764   1.983   .     S
O753   C755    1.289   .     A
O754   C756    1.289   .     A
O754   Zn763   1.983   .     S
C755   C787    1.399   .     S
C756   C788    1.399   .     S
O757   C761    1.285   .     A
O757   Zn763   1.989   .     S
O758   C762    1.285   .     A
O758   Zn764   1.989   .     S
O759   Zn764   2.016   .     S
O759   C761    1.284   .     A
O760   C762    1.284   .     A
O760   Zn763   2.016   .     S
C761   C768    1.417   .     S
C762   C767    1.417   .     S
Zn763  N790    2.017   .     S
Zn764  N789    2.017   .     S
C765   C775    1.399   .     A
C765   N793    1.438   .     S
C765   C767    1.401   .     A
C766   C776    1.399   .     A
C766   C768    1.401   .     A
C766   N796    1.438   .     S
C767   C769    1.388   .     A
C768   C770    1.388   .     A
C769   H781    1.086   .     S
C769   C771    1.380   .     A
C770   C772    1.380   .     A
C770   H782    1.086   .     S
C771   C777    1.397   .     A
C771   C773    1.411   .     A
C772   C778    1.397   .     A
C772   C774    1.411   .     A
C773   C775    1.419   .     A
C774   C776    1.419   .     A
C774   C323    1.396   1_556 S
C775   C780    1.405   .     A
C776   C779    1.405   .     A
C777   H783    1.084   .     S
C778   H784    1.084   .     S
C778   C330    1.386   1_556 S
C779   H785    1.082   .     S
C779   C327    1.386   1_556 S
C780   H786    1.082   .     S
C787   C488    1.353   1_565 S
C787   Cl499   1.782   1_565 S
N789   N840    1.277   .     S
N789   H841    1.029   .     S
N790   N889    1.277   1_455 S
N790   H892    1.029   1_455 S
H791   N889    1.029   1_455 S
H792   N840    1.029   .     S
N793   O794    1.301   .     A
N793   O795    1.301   .     A
N796   O798    1.301   .     A
N796   O797    1.301   .     A
Cl800  C488    1.782   1_565 S
O801   C805    1.272   .     A
O801   Zn813   1.966   .     S
O802   C806    1.272   .     A
O802   Zn814   1.966   .     S
O803   Zn814   1.983   .     S
O803   C805    1.289   .     A
O804   C806    1.289   .     A
O804   Zn813   1.983   .     S
C805   C837    1.399   .     S
C806   C838    1.399   .     S
O807   C811    1.285   .     A
O807   Zn813   1.989   .     S
O808   C812    1.285   .     A
O808   Zn814   1.989   .     S
O809   Zn814   2.016   .     S
O809   C811    1.284   .     A
O810   C812    1.284   .     A
O810   Zn813   2.016   .     S
C811   C818    1.417   .     S
C812   C817    1.417   .     S
Zn813  N840    2.017   .     S
Zn814  N839    2.017   .     S
C815   C825    1.399   .     A
C815   N843    1.438   .     S
C815   C817    1.401   .     A
C816   C826    1.399   .     A
C816   C818    1.401   .     A
C816   N846    1.438   .     S
C817   C819    1.388   .     A
C818   C820    1.388   .     A
C819   H831    1.086   .     S
C819   C821    1.380   .     A
C820   C822    1.380   .     A
C820   H832    1.086   .     S
C821   C827    1.397   .     A
C821   C823    1.411   .     A
C822   C828    1.397   .     A
C822   C824    1.411   .     A
C823   C825    1.419   .     A
C824   C826    1.419   .     A
C824   C373    1.396   1_556 S
C825   C830    1.405   .     A
C826   C829    1.405   .     A
C827   H833    1.084   .     S
C828   H834    1.084   .     S
C828   C380    1.386   1_556 S
C829   H835    1.082   .     S
C829   C377    1.386   1_556 S
C830   H836    1.082   .     S
C837   C538    1.353   1_565 S
C837   Cl549   1.782   1_565 S
N839   N890    1.277   .     S
N839   H891    1.029   .     S
H842   N890    1.029   .     S
N843   O844    1.301   .     A
N843   O845    1.301   .     A
N846   O848    1.301   .     A
N846   O847    1.301   .     A
Cl850  C538    1.782   1_565 S
O851   C855    1.272   .     A
O851   Zn863   1.966   .     S
O852   C856    1.272   .     A
O852   Zn864   1.966   .     S
O853   Zn864   1.983   .     S
O853   C855    1.289   .     A
O854   C856    1.289   .     A
O854   Zn863   1.983   .     S
C855   C887    1.399   .     S
C856   C888    1.399   .     S
O857   C861    1.285   .     A
O857   Zn863   1.989   .     S
O858   C862    1.285   .     A
O858   Zn864   1.989   .     S
O859   Zn864   2.016   .     S
O859   C861    1.284   .     A
O860   C862    1.284   .     A
O860   Zn863   2.016   .     S
C861   C868    1.417   .     S
C862   C867    1.417   .     S
Zn863  N890    2.017   .     S
Zn864  N889    2.017   .     S
C865   C875    1.399   .     A
C865   N893    1.438   .     S
C865   C867    1.401   .     A
C866   C876    1.399   .     A
C866   C868    1.401   .     A
C866   N896    1.438   .     S
C867   C869    1.388   .     A
C868   C870    1.388   .     A
C869   H881    1.086   .     S
C869   C871    1.380   .     A
C870   C872    1.380   .     A
C870   H882    1.086   .     S
C871   C877    1.397   .     A
C871   C873    1.411   .     A
C872   C878    1.397   .     A
C872   C874    1.411   .     A
C873   C875    1.419   .     A
C874   C876    1.419   .     A
C874   C423    1.396   1_556 S
C875   C880    1.405   .     A
C876   C879    1.405   .     A
C877   H883    1.084   .     S
C878   H884    1.084   .     S
C878   C430    1.386   1_556 S
C879   H885    1.082   .     S
C879   C427    1.386   1_556 S
C880   H886    1.082   .     S
C887   C588    1.353   1_565 S
C887   Cl599   1.782   1_565 S
N889   N790    1.277   1_655 S
N889   H791    1.029   1_655 S
H892   N790    1.029   1_655 S
N893   O894    1.301   .     A
N893   O895    1.301   .     A
N896   O898    1.301   .     A
N896   O897    1.301   .     A
Cl900  C588    1.782   1_565 S
