data_str_m3_o2_o10_pcu_sym.190
_audit_creation_date              2020-01-03
_audit_creation_method            'Materials Studio'
_symmetry_space_group_name_H-M    'P1'
_symmetry_Int_Tables_number       1
_symmetry_cell_setting            triclinic
loop_
_symmetry_equiv_pos_as_xyz
  x,y,z
_cell_length_a                    25.8571
_cell_length_b                    30.1334
_cell_length_c                    28.5469
_cell_angle_alpha                 90.0943
_cell_angle_beta                  98.0550
_cell_angle_gamma                 92.0489
loop_
_atom_site_label
_atom_site_type_symbol
_atom_site_fract_x
_atom_site_fract_y
_atom_site_fract_z
_atom_site_U_iso_or_equiv
_atom_site_adp_type
_atom_site_occupancy
C1     C     0.16577   0.16353   0.24966   0.00000  Uiso   1.00
C2     C     0.16783   0.33655   0.25021   0.00000  Uiso   1.00
C3     C     0.13211   0.22228   0.04840   0.00000  Uiso   1.00
C4     C     0.20833   0.26974   0.45267   0.00000  Uiso   1.00
C5     C     0.13175   0.22336   0.09752   0.00000  Uiso   1.00
C6     C     0.20677   0.27068   0.40331   0.00000  Uiso   1.00
C7     C     0.20308   0.27533   0.10684   0.00000  Uiso   1.00
C8     C     0.12598   0.23038   0.39327   0.00000  Uiso   1.00
C9     C     0.20281   0.27670   0.05760   0.00000  Uiso   1.00
C10    C     0.12523   0.23093   0.44241   0.00000  Uiso   1.00
C11    C     0.16721   0.24981   0.02694   0.00000  Uiso   1.00
C12    C     0.16711   0.24997   0.47362   0.00000  Uiso   1.00
C13    C     0.06734   0.24914   0.23794   0.00000  Uiso   1.00
C14    C     0.26601   0.25125   0.26199   0.00000  Uiso   1.00
C15    C     0.01299   0.24182   0.23316   0.00000  Uiso   1.00
C16    C     0.32031   0.25923   0.26629   0.00000  Uiso   1.00
C17    C     0.14193   0.04354   0.28223   0.00000  Uiso   1.00
C18    C     0.19990   0.45371   0.21420   0.00000  Uiso   1.00
C19    C     0.14378   0.08986   0.28475   0.00000  Uiso   1.00
C20    C     0.18745   0.40856   0.21076   0.00000  Uiso   1.00
C21    C     0.16174   0.11468   0.24760   0.00000  Uiso   1.00
C22    C     0.17608   0.38528   0.25166   0.00000  Uiso   1.00
C23    C     0.16959   0.09176   0.20562   0.00000  Uiso   1.00
C24    C     0.18037   0.40917   0.29538   0.00000  Uiso   1.00
C25    C     0.16396   0.04584   0.20383   0.00000  Uiso   1.00
C26    C     0.18976   0.45504   0.29573   0.00000  Uiso   1.00
C27    C     0.16433   0.02251   0.24632   0.00000  Uiso   1.00
C28    C     0.18637   0.47739   0.25249   0.00000  Uiso   1.00
H29    H     0.10512   0.19914   0.02797   0.00000  Uiso   1.00
H30    H     0.24218   0.28498   0.47377   0.00000  Uiso   1.00
H31    H     0.23090   0.29889   0.04421   0.00000  Uiso   1.00
H32    H     0.09106   0.21676   0.45542   0.00000  Uiso   1.00
N33    N     0.16667   0.24999   0.12624   0.00000  Uiso   1.00
N34    N     0.16667   0.25001   0.37377   0.00000  Uiso   1.00
O35    O     0.16667   0.18453   0.28974   0.00000  Uiso   1.00
O36    O     0.16666   0.31546   0.21026   0.00000  Uiso   1.00
O37    O     0.16667   0.18453   0.21026   0.00000  Uiso   1.00
O38    O     0.16666   0.31547   0.28974   0.00000  Uiso   1.00
O39    O     0.09058   0.25000   0.28045   0.00000  Uiso   1.00
O40    O     0.24275   0.25000   0.21956   0.00000  Uiso   1.00
O41    O     0.09058   0.24999   0.20097   0.00000  Uiso   1.00
O42    O     0.24275   0.25000   0.29904   0.00000  Uiso   1.00
Zn43   Zn    0.16667   0.25000   0.30307   0.00000  Uiso   1.00
Zn44   Zn    0.16667   0.24999   0.19693   0.00000  Uiso   1.00
C45    C     0.32421   0.20863   0.19810   0.00000  Uiso   1.00
N46    N     0.30665   0.18225   0.17030   0.00000  Uiso   1.00
C47    C     0.00914   0.29324   0.30039   0.00000  Uiso   1.00
N48    N     0.02697   0.32031   0.32729   0.00000  Uiso   1.00
C49    C     0.10982   0.01840   0.31134   0.00000  Uiso   1.00
N50    N     0.08399   0.49840   0.33444   0.00000  Uiso   1.00
C51    C     0.23491   0.47338   0.18392   0.00000  Uiso   1.00
N52    N     0.26309   0.48899   0.15987   0.00000  Uiso   1.00
Cl53   Cl    0.12309   0.11454   0.33485   0.00000  Uiso   1.00
Cl54   Cl    0.18146   0.38545   0.15316   0.00000  Uiso   1.00
C55    C     0.18483   0.11335   0.16406   0.00000  Uiso   1.00
N56    N     0.19723   0.13022   0.13077   0.00000  Uiso   1.00
C57    C     0.17168   0.38896   0.33974   0.00000  Uiso   1.00
N58    N     0.16431   0.37329   0.37531   0.00000  Uiso   1.00
Cl59   Cl    0.13861   0.02060   0.14871   0.00000  Uiso   1.00
Cl60   Cl    0.21483   0.48291   0.34941   0.00000  Uiso   1.00
Cl61   Cl    0.08654   0.18824   0.12108   0.00000  Uiso   1.00
Cl62   Cl    0.25664   0.30165   0.38142   0.00000  Uiso   1.00
C63    C     0.24407   0.29976   0.13639   0.00000  Uiso   1.00
N64    N     0.27746   0.31943   0.15969   0.00000  Uiso   1.00
C65    C     0.08182   0.20928   0.36454   0.00000  Uiso   1.00
N66    N     0.04569   0.19208   0.34238   0.00000  Uiso   1.00
C67    C     0.49910   0.16353   0.24966   0.00000  Uiso   1.00
C68    C     0.50116   0.33655   0.25021   0.00000  Uiso   1.00
C69    C     0.46545   0.22228   0.04840   0.00000  Uiso   1.00
C70    C     0.54166   0.26974   0.45267   0.00000  Uiso   1.00
C71    C     0.46509   0.22336   0.09752   0.00000  Uiso   1.00
C72    C     0.54011   0.27068   0.40331   0.00000  Uiso   1.00
C73    C     0.53641   0.27533   0.10684   0.00000  Uiso   1.00
C74    C     0.45932   0.23038   0.39327   0.00000  Uiso   1.00
C75    C     0.53614   0.27670   0.05760   0.00000  Uiso   1.00
C76    C     0.45856   0.23093   0.44241   0.00000  Uiso   1.00
C77    C     0.50054   0.24981   0.02694   0.00000  Uiso   1.00
C78    C     0.50044   0.24997   0.47362   0.00000  Uiso   1.00
C79    C     0.40068   0.24914   0.23794   0.00000  Uiso   1.00
C80    C     0.59934   0.25125   0.26199   0.00000  Uiso   1.00
C81    C     0.34632   0.24182   0.23316   0.00000  Uiso   1.00
C82    C     0.65364   0.25923   0.26629   0.00000  Uiso   1.00
C83    C     0.47526   0.04354   0.28223   0.00000  Uiso   1.00
C84    C     0.53323   0.45371   0.21420   0.00000  Uiso   1.00
C85    C     0.47711   0.08986   0.28475   0.00000  Uiso   1.00
C86    C     0.52079   0.40856   0.21076   0.00000  Uiso   1.00
C87    C     0.49508   0.11468   0.24760   0.00000  Uiso   1.00
C88    C     0.50942   0.38528   0.25166   0.00000  Uiso   1.00
C89    C     0.50292   0.09176   0.20562   0.00000  Uiso   1.00
C90    C     0.51370   0.40917   0.29538   0.00000  Uiso   1.00
C91    C     0.49729   0.04584   0.20383   0.00000  Uiso   1.00
C92    C     0.52310   0.45504   0.29573   0.00000  Uiso   1.00
C93    C     0.49766   0.02251   0.24632   0.00000  Uiso   1.00
C94    C     0.51970   0.47739   0.25249   0.00000  Uiso   1.00
H95    H     0.43846   0.19914   0.02797   0.00000  Uiso   1.00
H96    H     0.57551   0.28498   0.47377   0.00000  Uiso   1.00
H97    H     0.56423   0.29889   0.04421   0.00000  Uiso   1.00
H98    H     0.42439   0.21676   0.45542   0.00000  Uiso   1.00
N99    N     0.50000   0.24999   0.12624   0.00000  Uiso   1.00
N100   N     0.50000   0.25001   0.37377   0.00000  Uiso   1.00
O101   O     0.50000   0.18453   0.28974   0.00000  Uiso   1.00
O102   O     0.50000   0.31546   0.21026   0.00000  Uiso   1.00
O103   O     0.50000   0.18453   0.21026   0.00000  Uiso   1.00
O104   O     0.50000   0.31547   0.28974   0.00000  Uiso   1.00
O105   O     0.42392   0.25000   0.28045   0.00000  Uiso   1.00
O106   O     0.57608   0.25000   0.21956   0.00000  Uiso   1.00
O107   O     0.42392   0.24999   0.20097   0.00000  Uiso   1.00
O108   O     0.57608   0.25000   0.29904   0.00000  Uiso   1.00
Zn109  Zn    0.50000   0.25000   0.30307   0.00000  Uiso   1.00
Zn110  Zn    0.50000   0.24999   0.19693   0.00000  Uiso   1.00
C111   C     0.65755   0.20863   0.19810   0.00000  Uiso   1.00
N112   N     0.63999   0.18225   0.17030   0.00000  Uiso   1.00
C113   C     0.34247   0.29324   0.30039   0.00000  Uiso   1.00
N114   N     0.36030   0.32031   0.32729   0.00000  Uiso   1.00
C115   C     0.44316   0.01840   0.31134   0.00000  Uiso   1.00
N116   N     0.41732   0.49840   0.33444   0.00000  Uiso   1.00
C117   C     0.56825   0.47338   0.18392   0.00000  Uiso   1.00
N118   N     0.59643   0.48899   0.15987   0.00000  Uiso   1.00
Cl119  Cl    0.45643   0.11454   0.33485   0.00000  Uiso   1.00
Cl120  Cl    0.51479   0.38545   0.15316   0.00000  Uiso   1.00
C121   C     0.51817   0.11335   0.16406   0.00000  Uiso   1.00
N122   N     0.53056   0.13022   0.13077   0.00000  Uiso   1.00
C123   C     0.50502   0.38896   0.33974   0.00000  Uiso   1.00
N124   N     0.49764   0.37329   0.37531   0.00000  Uiso   1.00
Cl125  Cl    0.47194   0.02060   0.14871   0.00000  Uiso   1.00
Cl126  Cl    0.54816   0.48291   0.34941   0.00000  Uiso   1.00
Cl127  Cl    0.41987   0.18824   0.12108   0.00000  Uiso   1.00
Cl128  Cl    0.58997   0.30165   0.38142   0.00000  Uiso   1.00
C129   C     0.57740   0.29976   0.13639   0.00000  Uiso   1.00
N130   N     0.61079   0.31943   0.15969   0.00000  Uiso   1.00
C131   C     0.41515   0.20928   0.36454   0.00000  Uiso   1.00
N132   N     0.37902   0.19208   0.34238   0.00000  Uiso   1.00
C133   C     0.83243   0.16353   0.24966   0.00000  Uiso   1.00
C134   C     0.83449   0.33655   0.25021   0.00000  Uiso   1.00
C135   C     0.79878   0.22228   0.04840   0.00000  Uiso   1.00
C136   C     0.87500   0.26974   0.45267   0.00000  Uiso   1.00
C137   C     0.79842   0.22336   0.09752   0.00000  Uiso   1.00
C138   C     0.87344   0.27068   0.40331   0.00000  Uiso   1.00
C139   C     0.86975   0.27533   0.10684   0.00000  Uiso   1.00
C140   C     0.79265   0.23038   0.39327   0.00000  Uiso   1.00
C141   C     0.86948   0.27670   0.05760   0.00000  Uiso   1.00
C142   C     0.79189   0.23093   0.44241   0.00000  Uiso   1.00
C143   C     0.83388   0.24981   0.02694   0.00000  Uiso   1.00
C144   C     0.83377   0.24997   0.47362   0.00000  Uiso   1.00
C145   C     0.73401   0.24914   0.23794   0.00000  Uiso   1.00
C146   C     0.93267   0.25125   0.26199   0.00000  Uiso   1.00
C147   C     0.67965   0.24182   0.23316   0.00000  Uiso   1.00
C148   C     0.98698   0.25923   0.26629   0.00000  Uiso   1.00
C149   C     0.80860   0.04354   0.28223   0.00000  Uiso   1.00
C150   C     0.86656   0.45371   0.21420   0.00000  Uiso   1.00
C151   C     0.81045   0.08986   0.28475   0.00000  Uiso   1.00
C152   C     0.85412   0.40856   0.21076   0.00000  Uiso   1.00
C153   C     0.82841   0.11468   0.24760   0.00000  Uiso   1.00
C154   C     0.84275   0.38528   0.25166   0.00000  Uiso   1.00
C155   C     0.83625   0.09176   0.20562   0.00000  Uiso   1.00
C156   C     0.84704   0.40917   0.29538   0.00000  Uiso   1.00
C157   C     0.83063   0.04584   0.20383   0.00000  Uiso   1.00
C158   C     0.85643   0.45504   0.29573   0.00000  Uiso   1.00
C159   C     0.83100   0.02251   0.24632   0.00000  Uiso   1.00
C160   C     0.85303   0.47739   0.25249   0.00000  Uiso   1.00
H161   H     0.77179   0.19914   0.02797   0.00000  Uiso   1.00
H162   H     0.90884   0.28498   0.47377   0.00000  Uiso   1.00
H163   H     0.89757   0.29889   0.04421   0.00000  Uiso   1.00
H164   H     0.75772   0.21676   0.45542   0.00000  Uiso   1.00
N165   N     0.83333   0.24999   0.12624   0.00000  Uiso   1.00
N166   N     0.83333   0.25001   0.37377   0.00000  Uiso   1.00
O167   O     0.83334   0.18453   0.28974   0.00000  Uiso   1.00
O168   O     0.83333   0.31546   0.21026   0.00000  Uiso   1.00
O169   O     0.83334   0.18453   0.21026   0.00000  Uiso   1.00
O170   O     0.83333   0.31547   0.28974   0.00000  Uiso   1.00
O171   O     0.75725   0.25000   0.28045   0.00000  Uiso   1.00
O172   O     0.90942   0.25000   0.21956   0.00000  Uiso   1.00
O173   O     0.75725   0.24999   0.20097   0.00000  Uiso   1.00
O174   O     0.90942   0.25000   0.29904   0.00000  Uiso   1.00
Zn175  Zn    0.83333   0.25000   0.30307   0.00000  Uiso   1.00
Zn176  Zn    0.83333   0.24999   0.19693   0.00000  Uiso   1.00
C177   C     0.99088   0.20863   0.19810   0.00000  Uiso   1.00
N178   N     0.97332   0.18225   0.17030   0.00000  Uiso   1.00
C179   C     0.67580   0.29324   0.30039   0.00000  Uiso   1.00
N180   N     0.69363   0.32031   0.32729   0.00000  Uiso   1.00
C181   C     0.77649   0.01840   0.31134   0.00000  Uiso   1.00
N182   N     0.75065   0.49840   0.33444   0.00000  Uiso   1.00
C183   C     0.90158   0.47338   0.18392   0.00000  Uiso   1.00
N184   N     0.92976   0.48899   0.15987   0.00000  Uiso   1.00
Cl185  Cl    0.78976   0.11454   0.33485   0.00000  Uiso   1.00
Cl186  Cl    0.84812   0.38545   0.15316   0.00000  Uiso   1.00
C187   C     0.85150   0.11335   0.16406   0.00000  Uiso   1.00
N188   N     0.86390   0.13022   0.13077   0.00000  Uiso   1.00
C189   C     0.83835   0.38896   0.33974   0.00000  Uiso   1.00
N190   N     0.83097   0.37329   0.37531   0.00000  Uiso   1.00
Cl191  Cl    0.80527   0.02060   0.14871   0.00000  Uiso   1.00
Cl192  Cl    0.88149   0.48291   0.34941   0.00000  Uiso   1.00
Cl193  Cl    0.75321   0.18824   0.12108   0.00000  Uiso   1.00
Cl194  Cl    0.92331   0.30165   0.38142   0.00000  Uiso   1.00
C195   C     0.91074   0.29976   0.13639   0.00000  Uiso   1.00
N196   N     0.94413   0.31943   0.15969   0.00000  Uiso   1.00
C197   C     0.74848   0.20928   0.36454   0.00000  Uiso   1.00
N198   N     0.71235   0.19208   0.34238   0.00000  Uiso   1.00
C199   C     0.16577   0.66353   0.24966   0.00000  Uiso   1.00
C200   C     0.16783   0.83655   0.25021   0.00000  Uiso   1.00
C201   C     0.13211   0.72228   0.04840   0.00000  Uiso   1.00
C202   C     0.20833   0.76974   0.45267   0.00000  Uiso   1.00
C203   C     0.13175   0.72336   0.09752   0.00000  Uiso   1.00
C204   C     0.20677   0.77068   0.40331   0.00000  Uiso   1.00
C205   C     0.20308   0.77533   0.10684   0.00000  Uiso   1.00
C206   C     0.12598   0.73038   0.39327   0.00000  Uiso   1.00
C207   C     0.20281   0.77670   0.05760   0.00000  Uiso   1.00
C208   C     0.12523   0.73093   0.44241   0.00000  Uiso   1.00
C209   C     0.16721   0.74981   0.02694   0.00000  Uiso   1.00
C210   C     0.16711   0.74997   0.47362   0.00000  Uiso   1.00
C211   C     0.06734   0.74914   0.23794   0.00000  Uiso   1.00
C212   C     0.26601   0.75125   0.26199   0.00000  Uiso   1.00
C213   C     0.01299   0.74182   0.23316   0.00000  Uiso   1.00
C214   C     0.32031   0.75923   0.26629   0.00000  Uiso   1.00
C215   C     0.14193   0.54354   0.28223   0.00000  Uiso   1.00
C216   C     0.19990   0.95371   0.21420   0.00000  Uiso   1.00
C217   C     0.14378   0.58986   0.28475   0.00000  Uiso   1.00
C218   C     0.18745   0.90856   0.21076   0.00000  Uiso   1.00
C219   C     0.16174   0.61468   0.24760   0.00000  Uiso   1.00
C220   C     0.17608   0.88528   0.25166   0.00000  Uiso   1.00
C221   C     0.16959   0.59176   0.20562   0.00000  Uiso   1.00
C222   C     0.18037   0.90917   0.29538   0.00000  Uiso   1.00
C223   C     0.16396   0.54584   0.20383   0.00000  Uiso   1.00
C224   C     0.18976   0.95504   0.29573   0.00000  Uiso   1.00
C225   C     0.16433   0.52251   0.24632   0.00000  Uiso   1.00
C226   C     0.18637   0.97739   0.25249   0.00000  Uiso   1.00
H227   H     0.10512   0.69914   0.02797   0.00000  Uiso   1.00
H228   H     0.24218   0.78498   0.47377   0.00000  Uiso   1.00
H229   H     0.23090   0.79889   0.04421   0.00000  Uiso   1.00
H230   H     0.09106   0.71676   0.45542   0.00000  Uiso   1.00
N231   N     0.16667   0.74999   0.12624   0.00000  Uiso   1.00
N232   N     0.16667   0.75001   0.37377   0.00000  Uiso   1.00
O233   O     0.16667   0.68453   0.28974   0.00000  Uiso   1.00
O234   O     0.16666   0.81546   0.21026   0.00000  Uiso   1.00
O235   O     0.16667   0.68453   0.21026   0.00000  Uiso   1.00
O236   O     0.16666   0.81547   0.28974   0.00000  Uiso   1.00
O237   O     0.09058   0.75000   0.28045   0.00000  Uiso   1.00
O238   O     0.24275   0.75000   0.21956   0.00000  Uiso   1.00
O239   O     0.09058   0.74999   0.20097   0.00000  Uiso   1.00
O240   O     0.24275   0.75000   0.29904   0.00000  Uiso   1.00
Zn241  Zn    0.16667   0.75000   0.30307   0.00000  Uiso   1.00
Zn242  Zn    0.16667   0.74999   0.19693   0.00000  Uiso   1.00
C243   C     0.32421   0.70863   0.19810   0.00000  Uiso   1.00
N244   N     0.30665   0.68225   0.17030   0.00000  Uiso   1.00
C245   C     0.00914   0.79324   0.30039   0.00000  Uiso   1.00
N246   N     0.02697   0.82031   0.32729   0.00000  Uiso   1.00
C247   C     0.10982   0.51840   0.31134   0.00000  Uiso   1.00
N248   N     0.08399   0.99840   0.33444   0.00000  Uiso   1.00
C249   C     0.23491   0.97338   0.18392   0.00000  Uiso   1.00
N250   N     0.26309   0.98899   0.15987   0.00000  Uiso   1.00
Cl251  Cl    0.12309   0.61454   0.33485   0.00000  Uiso   1.00
Cl252  Cl    0.18146   0.88545   0.15316   0.00000  Uiso   1.00
C253   C     0.18483   0.61335   0.16406   0.00000  Uiso   1.00
N254   N     0.19723   0.63022   0.13077   0.00000  Uiso   1.00
C255   C     0.17168   0.88896   0.33974   0.00000  Uiso   1.00
N256   N     0.16431   0.87329   0.37531   0.00000  Uiso   1.00
Cl257  Cl    0.13861   0.52060   0.14871   0.00000  Uiso   1.00
Cl258  Cl    0.21483   0.98291   0.34941   0.00000  Uiso   1.00
Cl259  Cl    0.08654   0.68824   0.12108   0.00000  Uiso   1.00
Cl260  Cl    0.25664   0.80165   0.38142   0.00000  Uiso   1.00
C261   C     0.24407   0.79976   0.13639   0.00000  Uiso   1.00
N262   N     0.27746   0.81943   0.15969   0.00000  Uiso   1.00
C263   C     0.08182   0.70928   0.36454   0.00000  Uiso   1.00
N264   N     0.04569   0.69208   0.34238   0.00000  Uiso   1.00
C265   C     0.49910   0.66353   0.24966   0.00000  Uiso   1.00
C266   C     0.50116   0.83655   0.25021   0.00000  Uiso   1.00
C267   C     0.46545   0.72228   0.04840   0.00000  Uiso   1.00
C268   C     0.54166   0.76974   0.45267   0.00000  Uiso   1.00
C269   C     0.46509   0.72336   0.09752   0.00000  Uiso   1.00
C270   C     0.54011   0.77068   0.40331   0.00000  Uiso   1.00
C271   C     0.53641   0.77533   0.10684   0.00000  Uiso   1.00
C272   C     0.45932   0.73038   0.39327   0.00000  Uiso   1.00
C273   C     0.53614   0.77670   0.05760   0.00000  Uiso   1.00
C274   C     0.45856   0.73093   0.44241   0.00000  Uiso   1.00
C275   C     0.50054   0.74981   0.02694   0.00000  Uiso   1.00
C276   C     0.50044   0.74997   0.47362   0.00000  Uiso   1.00
C277   C     0.40068   0.74914   0.23794   0.00000  Uiso   1.00
C278   C     0.59934   0.75125   0.26199   0.00000  Uiso   1.00
C279   C     0.34632   0.74182   0.23316   0.00000  Uiso   1.00
C280   C     0.65364   0.75923   0.26629   0.00000  Uiso   1.00
C281   C     0.47526   0.54354   0.28223   0.00000  Uiso   1.00
C282   C     0.53323   0.95371   0.21420   0.00000  Uiso   1.00
C283   C     0.47711   0.58986   0.28475   0.00000  Uiso   1.00
C284   C     0.52079   0.90856   0.21076   0.00000  Uiso   1.00
C285   C     0.49508   0.61468   0.24760   0.00000  Uiso   1.00
C286   C     0.50942   0.88528   0.25166   0.00000  Uiso   1.00
C287   C     0.50292   0.59176   0.20562   0.00000  Uiso   1.00
C288   C     0.51370   0.90917   0.29538   0.00000  Uiso   1.00
C289   C     0.49729   0.54584   0.20383   0.00000  Uiso   1.00
C290   C     0.52310   0.95504   0.29573   0.00000  Uiso   1.00
C291   C     0.49766   0.52251   0.24632   0.00000  Uiso   1.00
C292   C     0.51970   0.97739   0.25249   0.00000  Uiso   1.00
H293   H     0.43846   0.69914   0.02797   0.00000  Uiso   1.00
H294   H     0.57551   0.78498   0.47377   0.00000  Uiso   1.00
H295   H     0.56423   0.79889   0.04421   0.00000  Uiso   1.00
H296   H     0.42439   0.71676   0.45542   0.00000  Uiso   1.00
N297   N     0.50000   0.74999   0.12624   0.00000  Uiso   1.00
N298   N     0.50000   0.75001   0.37377   0.00000  Uiso   1.00
O299   O     0.50000   0.68453   0.28974   0.00000  Uiso   1.00
O300   O     0.50000   0.81546   0.21026   0.00000  Uiso   1.00
O301   O     0.50000   0.68453   0.21026   0.00000  Uiso   1.00
O302   O     0.50000   0.81547   0.28974   0.00000  Uiso   1.00
O303   O     0.42392   0.75000   0.28045   0.00000  Uiso   1.00
O304   O     0.57608   0.75000   0.21956   0.00000  Uiso   1.00
O305   O     0.42392   0.74999   0.20097   0.00000  Uiso   1.00
O306   O     0.57608   0.75000   0.29904   0.00000  Uiso   1.00
Zn307  Zn    0.50000   0.75000   0.30307   0.00000  Uiso   1.00
Zn308  Zn    0.50000   0.74999   0.19693   0.00000  Uiso   1.00
C309   C     0.65755   0.70863   0.19810   0.00000  Uiso   1.00
N310   N     0.63999   0.68225   0.17030   0.00000  Uiso   1.00
C311   C     0.34247   0.79324   0.30039   0.00000  Uiso   1.00
N312   N     0.36030   0.82031   0.32729   0.00000  Uiso   1.00
C313   C     0.44316   0.51840   0.31134   0.00000  Uiso   1.00
N314   N     0.41732   0.99840   0.33444   0.00000  Uiso   1.00
C315   C     0.56825   0.97338   0.18392   0.00000  Uiso   1.00
N316   N     0.59643   0.98899   0.15987   0.00000  Uiso   1.00
Cl317  Cl    0.45643   0.61454   0.33485   0.00000  Uiso   1.00
Cl318  Cl    0.51479   0.88545   0.15316   0.00000  Uiso   1.00
C319   C     0.51817   0.61335   0.16406   0.00000  Uiso   1.00
N320   N     0.53056   0.63022   0.13077   0.00000  Uiso   1.00
C321   C     0.50502   0.88896   0.33974   0.00000  Uiso   1.00
N322   N     0.49764   0.87329   0.37531   0.00000  Uiso   1.00
Cl323  Cl    0.47194   0.52060   0.14871   0.00000  Uiso   1.00
Cl324  Cl    0.54816   0.98291   0.34941   0.00000  Uiso   1.00
Cl325  Cl    0.41987   0.68824   0.12108   0.00000  Uiso   1.00
Cl326  Cl    0.58997   0.80165   0.38142   0.00000  Uiso   1.00
C327   C     0.57740   0.79976   0.13639   0.00000  Uiso   1.00
N328   N     0.61079   0.81943   0.15969   0.00000  Uiso   1.00
C329   C     0.41515   0.70928   0.36454   0.00000  Uiso   1.00
N330   N     0.37902   0.69208   0.34238   0.00000  Uiso   1.00
C331   C     0.83243   0.66353   0.24966   0.00000  Uiso   1.00
C332   C     0.83449   0.83655   0.25021   0.00000  Uiso   1.00
C333   C     0.79878   0.72228   0.04840   0.00000  Uiso   1.00
C334   C     0.87500   0.76974   0.45267   0.00000  Uiso   1.00
C335   C     0.79842   0.72336   0.09752   0.00000  Uiso   1.00
C336   C     0.87344   0.77068   0.40331   0.00000  Uiso   1.00
C337   C     0.86975   0.77533   0.10684   0.00000  Uiso   1.00
C338   C     0.79265   0.73038   0.39327   0.00000  Uiso   1.00
C339   C     0.86948   0.77670   0.05760   0.00000  Uiso   1.00
C340   C     0.79189   0.73093   0.44241   0.00000  Uiso   1.00
C341   C     0.83388   0.74981   0.02694   0.00000  Uiso   1.00
C342   C     0.83377   0.74997   0.47362   0.00000  Uiso   1.00
C343   C     0.73401   0.74914   0.23794   0.00000  Uiso   1.00
C344   C     0.93267   0.75125   0.26199   0.00000  Uiso   1.00
C345   C     0.67965   0.74182   0.23316   0.00000  Uiso   1.00
C346   C     0.98698   0.75923   0.26629   0.00000  Uiso   1.00
C347   C     0.80860   0.54354   0.28223   0.00000  Uiso   1.00
C348   C     0.86656   0.95371   0.21420   0.00000  Uiso   1.00
C349   C     0.81045   0.58986   0.28475   0.00000  Uiso   1.00
C350   C     0.85412   0.90856   0.21076   0.00000  Uiso   1.00
C351   C     0.82841   0.61468   0.24760   0.00000  Uiso   1.00
C352   C     0.84275   0.88528   0.25166   0.00000  Uiso   1.00
C353   C     0.83625   0.59176   0.20562   0.00000  Uiso   1.00
C354   C     0.84704   0.90917   0.29538   0.00000  Uiso   1.00
C355   C     0.83063   0.54584   0.20383   0.00000  Uiso   1.00
C356   C     0.85643   0.95504   0.29573   0.00000  Uiso   1.00
C357   C     0.83100   0.52251   0.24632   0.00000  Uiso   1.00
C358   C     0.85303   0.97739   0.25249   0.00000  Uiso   1.00
H359   H     0.77179   0.69914   0.02797   0.00000  Uiso   1.00
H360   H     0.90884   0.78498   0.47377   0.00000  Uiso   1.00
H361   H     0.89757   0.79889   0.04421   0.00000  Uiso   1.00
H362   H     0.75772   0.71676   0.45542   0.00000  Uiso   1.00
N363   N     0.83333   0.74999   0.12624   0.00000  Uiso   1.00
N364   N     0.83333   0.75001   0.37377   0.00000  Uiso   1.00
O365   O     0.83334   0.68453   0.28974   0.00000  Uiso   1.00
O366   O     0.83333   0.81546   0.21026   0.00000  Uiso   1.00
O367   O     0.83334   0.68453   0.21026   0.00000  Uiso   1.00
O368   O     0.83333   0.81547   0.28974   0.00000  Uiso   1.00
O369   O     0.75725   0.75000   0.28045   0.00000  Uiso   1.00
O370   O     0.90942   0.75000   0.21956   0.00000  Uiso   1.00
O371   O     0.75725   0.74999   0.20097   0.00000  Uiso   1.00
O372   O     0.90942   0.75000   0.29904   0.00000  Uiso   1.00
Zn373  Zn    0.83333   0.75000   0.30307   0.00000  Uiso   1.00
Zn374  Zn    0.83333   0.74999   0.19693   0.00000  Uiso   1.00
C375   C     0.99088   0.70863   0.19810   0.00000  Uiso   1.00
N376   N     0.97332   0.68225   0.17030   0.00000  Uiso   1.00
C377   C     0.67580   0.79324   0.30039   0.00000  Uiso   1.00
N378   N     0.69363   0.82031   0.32729   0.00000  Uiso   1.00
C379   C     0.77649   0.51840   0.31134   0.00000  Uiso   1.00
N380   N     0.75065   0.99840   0.33444   0.00000  Uiso   1.00
C381   C     0.90158   0.97338   0.18392   0.00000  Uiso   1.00
N382   N     0.92976   0.98899   0.15987   0.00000  Uiso   1.00
Cl383  Cl    0.78976   0.61454   0.33485   0.00000  Uiso   1.00
Cl384  Cl    0.84812   0.88545   0.15316   0.00000  Uiso   1.00
C385   C     0.85150   0.61335   0.16406   0.00000  Uiso   1.00
N386   N     0.86390   0.63022   0.13077   0.00000  Uiso   1.00
C387   C     0.83835   0.88896   0.33974   0.00000  Uiso   1.00
N388   N     0.83097   0.87329   0.37531   0.00000  Uiso   1.00
Cl389  Cl    0.80527   0.52060   0.14871   0.00000  Uiso   1.00
Cl390  Cl    0.88149   0.98291   0.34941   0.00000  Uiso   1.00
Cl391  Cl    0.75321   0.68824   0.12108   0.00000  Uiso   1.00
Cl392  Cl    0.92331   0.80165   0.38142   0.00000  Uiso   1.00
C393   C     0.91074   0.79976   0.13639   0.00000  Uiso   1.00
N394   N     0.94413   0.81943   0.15969   0.00000  Uiso   1.00
C395   C     0.74848   0.70928   0.36454   0.00000  Uiso   1.00
N396   N     0.71235   0.69208   0.34238   0.00000  Uiso   1.00
C397   C     0.16577   0.16353   0.74966   0.00000  Uiso   1.00
C398   C     0.16783   0.33655   0.75021   0.00000  Uiso   1.00
C399   C     0.13211   0.22228   0.54840   0.00000  Uiso   1.00
C400   C     0.20833   0.26974   0.95267   0.00000  Uiso   1.00
C401   C     0.13175   0.22336   0.59752   0.00000  Uiso   1.00
C402   C     0.20677   0.27068   0.90331   0.00000  Uiso   1.00
C403   C     0.20308   0.27533   0.60684   0.00000  Uiso   1.00
C404   C     0.12598   0.23038   0.89327   0.00000  Uiso   1.00
C405   C     0.20281   0.27670   0.55760   0.00000  Uiso   1.00
C406   C     0.12523   0.23093   0.94241   0.00000  Uiso   1.00
C407   C     0.16721   0.24981   0.52694   0.00000  Uiso   1.00
C408   C     0.16711   0.24997   0.97362   0.00000  Uiso   1.00
C409   C     0.06734   0.24914   0.73794   0.00000  Uiso   1.00
C410   C     0.26601   0.25125   0.76199   0.00000  Uiso   1.00
C411   C     0.01299   0.24182   0.73316   0.00000  Uiso   1.00
C412   C     0.32031   0.25923   0.76629   0.00000  Uiso   1.00
C413   C     0.14193   0.04354   0.78223   0.00000  Uiso   1.00
C414   C     0.19990   0.45371   0.71420   0.00000  Uiso   1.00
C415   C     0.14378   0.08986   0.78475   0.00000  Uiso   1.00
C416   C     0.18745   0.40856   0.71076   0.00000  Uiso   1.00
C417   C     0.16174   0.11468   0.74760   0.00000  Uiso   1.00
C418   C     0.17608   0.38528   0.75166   0.00000  Uiso   1.00
C419   C     0.16959   0.09176   0.70562   0.00000  Uiso   1.00
C420   C     0.18037   0.40917   0.79538   0.00000  Uiso   1.00
C421   C     0.16396   0.04584   0.70383   0.00000  Uiso   1.00
C422   C     0.18976   0.45504   0.79573   0.00000  Uiso   1.00
C423   C     0.16433   0.02251   0.74632   0.00000  Uiso   1.00
C424   C     0.18637   0.47739   0.75249   0.00000  Uiso   1.00
H425   H     0.10512   0.19914   0.52797   0.00000  Uiso   1.00
H426   H     0.24218   0.28498   0.97377   0.00000  Uiso   1.00
H427   H     0.23090   0.29889   0.54421   0.00000  Uiso   1.00
H428   H     0.09106   0.21676   0.95542   0.00000  Uiso   1.00
N429   N     0.16667   0.24999   0.62624   0.00000  Uiso   1.00
N430   N     0.16667   0.25001   0.87377   0.00000  Uiso   1.00
O431   O     0.16667   0.18453   0.78974   0.00000  Uiso   1.00
O432   O     0.16666   0.31546   0.71026   0.00000  Uiso   1.00
O433   O     0.16667   0.18453   0.71026   0.00000  Uiso   1.00
O434   O     0.16666   0.31547   0.78974   0.00000  Uiso   1.00
O435   O     0.09058   0.25000   0.78045   0.00000  Uiso   1.00
O436   O     0.24275   0.25000   0.71956   0.00000  Uiso   1.00
O437   O     0.09058   0.24999   0.70097   0.00000  Uiso   1.00
O438   O     0.24275   0.25000   0.79904   0.00000  Uiso   1.00
Zn439  Zn    0.16667   0.25000   0.80307   0.00000  Uiso   1.00
Zn440  Zn    0.16667   0.24999   0.69693   0.00000  Uiso   1.00
C441   C     0.32421   0.20863   0.69810   0.00000  Uiso   1.00
N442   N     0.30665   0.18225   0.67030   0.00000  Uiso   1.00
C443   C     0.00914   0.29324   0.80039   0.00000  Uiso   1.00
N444   N     0.02697   0.32031   0.82729   0.00000  Uiso   1.00
C445   C     0.10982   0.01840   0.81134   0.00000  Uiso   1.00
N446   N     0.08399   0.49840   0.83444   0.00000  Uiso   1.00
C447   C     0.23491   0.47338   0.68392   0.00000  Uiso   1.00
N448   N     0.26309   0.48899   0.65987   0.00000  Uiso   1.00
Cl449  Cl    0.12309   0.11454   0.83485   0.00000  Uiso   1.00
Cl450  Cl    0.18146   0.38545   0.65316   0.00000  Uiso   1.00
C451   C     0.18483   0.11335   0.66406   0.00000  Uiso   1.00
N452   N     0.19723   0.13022   0.63077   0.00000  Uiso   1.00
C453   C     0.17168   0.38896   0.83974   0.00000  Uiso   1.00
N454   N     0.16431   0.37329   0.87531   0.00000  Uiso   1.00
Cl455  Cl    0.13861   0.02060   0.64871   0.00000  Uiso   1.00
Cl456  Cl    0.21483   0.48291   0.84941   0.00000  Uiso   1.00
Cl457  Cl    0.08654   0.18824   0.62108   0.00000  Uiso   1.00
Cl458  Cl    0.25664   0.30165   0.88142   0.00000  Uiso   1.00
C459   C     0.24407   0.29976   0.63639   0.00000  Uiso   1.00
N460   N     0.27746   0.31943   0.65969   0.00000  Uiso   1.00
C461   C     0.08182   0.20928   0.86454   0.00000  Uiso   1.00
N462   N     0.04569   0.19208   0.84238   0.00000  Uiso   1.00
C463   C     0.49910   0.16353   0.74966   0.00000  Uiso   1.00
C464   C     0.50116   0.33655   0.75021   0.00000  Uiso   1.00
C465   C     0.46545   0.22228   0.54840   0.00000  Uiso   1.00
C466   C     0.54166   0.26974   0.95267   0.00000  Uiso   1.00
C467   C     0.46509   0.22336   0.59752   0.00000  Uiso   1.00
C468   C     0.54011   0.27068   0.90331   0.00000  Uiso   1.00
C469   C     0.53641   0.27533   0.60684   0.00000  Uiso   1.00
C470   C     0.45932   0.23038   0.89327   0.00000  Uiso   1.00
C471   C     0.53614   0.27670   0.55760   0.00000  Uiso   1.00
C472   C     0.45856   0.23093   0.94241   0.00000  Uiso   1.00
C473   C     0.50054   0.24981   0.52694   0.00000  Uiso   1.00
C474   C     0.50044   0.24997   0.97362   0.00000  Uiso   1.00
C475   C     0.40068   0.24914   0.73794   0.00000  Uiso   1.00
C476   C     0.59934   0.25125   0.76199   0.00000  Uiso   1.00
C477   C     0.34632   0.24182   0.73316   0.00000  Uiso   1.00
C478   C     0.65364   0.25923   0.76629   0.00000  Uiso   1.00
C479   C     0.47526   0.04354   0.78223   0.00000  Uiso   1.00
C480   C     0.53323   0.45371   0.71420   0.00000  Uiso   1.00
C481   C     0.47711   0.08986   0.78475   0.00000  Uiso   1.00
C482   C     0.52079   0.40856   0.71076   0.00000  Uiso   1.00
C483   C     0.49508   0.11468   0.74760   0.00000  Uiso   1.00
C484   C     0.50942   0.38528   0.75166   0.00000  Uiso   1.00
C485   C     0.50292   0.09176   0.70562   0.00000  Uiso   1.00
C486   C     0.51370   0.40917   0.79538   0.00000  Uiso   1.00
C487   C     0.49729   0.04584   0.70383   0.00000  Uiso   1.00
C488   C     0.52310   0.45504   0.79573   0.00000  Uiso   1.00
C489   C     0.49766   0.02251   0.74632   0.00000  Uiso   1.00
C490   C     0.51970   0.47739   0.75249   0.00000  Uiso   1.00
H491   H     0.43846   0.19914   0.52797   0.00000  Uiso   1.00
H492   H     0.57551   0.28498   0.97377   0.00000  Uiso   1.00
H493   H     0.56423   0.29889   0.54421   0.00000  Uiso   1.00
H494   H     0.42439   0.21676   0.95542   0.00000  Uiso   1.00
N495   N     0.50000   0.24999   0.62624   0.00000  Uiso   1.00
N496   N     0.50000   0.25001   0.87377   0.00000  Uiso   1.00
O497   O     0.50000   0.18453   0.78974   0.00000  Uiso   1.00
O498   O     0.50000   0.31546   0.71026   0.00000  Uiso   1.00
O499   O     0.50000   0.18453   0.71026   0.00000  Uiso   1.00
O500   O     0.50000   0.31547   0.78974   0.00000  Uiso   1.00
O501   O     0.42392   0.25000   0.78045   0.00000  Uiso   1.00
O502   O     0.57608   0.25000   0.71956   0.00000  Uiso   1.00
O503   O     0.42392   0.24999   0.70097   0.00000  Uiso   1.00
O504   O     0.57608   0.25000   0.79904   0.00000  Uiso   1.00
Zn505  Zn    0.50000   0.25000   0.80307   0.00000  Uiso   1.00
Zn506  Zn    0.50000   0.24999   0.69693   0.00000  Uiso   1.00
C507   C     0.65755   0.20863   0.69810   0.00000  Uiso   1.00
N508   N     0.63999   0.18225   0.67030   0.00000  Uiso   1.00
C509   C     0.34247   0.29324   0.80039   0.00000  Uiso   1.00
N510   N     0.36030   0.32031   0.82729   0.00000  Uiso   1.00
C511   C     0.44316   0.01840   0.81134   0.00000  Uiso   1.00
N512   N     0.41732   0.49840   0.83444   0.00000  Uiso   1.00
C513   C     0.56825   0.47338   0.68392   0.00000  Uiso   1.00
N514   N     0.59643   0.48899   0.65987   0.00000  Uiso   1.00
Cl515  Cl    0.45643   0.11454   0.83485   0.00000  Uiso   1.00
Cl516  Cl    0.51479   0.38545   0.65316   0.00000  Uiso   1.00
C517   C     0.51817   0.11335   0.66406   0.00000  Uiso   1.00
N518   N     0.53056   0.13022   0.63077   0.00000  Uiso   1.00
C519   C     0.50502   0.38896   0.83974   0.00000  Uiso   1.00
N520   N     0.49764   0.37329   0.87531   0.00000  Uiso   1.00
Cl521  Cl    0.47194   0.02060   0.64871   0.00000  Uiso   1.00
Cl522  Cl    0.54816   0.48291   0.84941   0.00000  Uiso   1.00
Cl523  Cl    0.41987   0.18824   0.62108   0.00000  Uiso   1.00
Cl524  Cl    0.58997   0.30165   0.88142   0.00000  Uiso   1.00
C525   C     0.57740   0.29976   0.63639   0.00000  Uiso   1.00
N526   N     0.61079   0.31943   0.65969   0.00000  Uiso   1.00
C527   C     0.41515   0.20928   0.86454   0.00000  Uiso   1.00
N528   N     0.37902   0.19208   0.84238   0.00000  Uiso   1.00
C529   C     0.83243   0.16353   0.74966   0.00000  Uiso   1.00
C530   C     0.83449   0.33655   0.75021   0.00000  Uiso   1.00
C531   C     0.79878   0.22228   0.54840   0.00000  Uiso   1.00
C532   C     0.87500   0.26974   0.95267   0.00000  Uiso   1.00
C533   C     0.79842   0.22336   0.59752   0.00000  Uiso   1.00
C534   C     0.87344   0.27068   0.90331   0.00000  Uiso   1.00
C535   C     0.86975   0.27533   0.60684   0.00000  Uiso   1.00
C536   C     0.79265   0.23038   0.89327   0.00000  Uiso   1.00
C537   C     0.86948   0.27670   0.55760   0.00000  Uiso   1.00
C538   C     0.79189   0.23093   0.94241   0.00000  Uiso   1.00
C539   C     0.83388   0.24981   0.52694   0.00000  Uiso   1.00
C540   C     0.83377   0.24997   0.97362   0.00000  Uiso   1.00
C541   C     0.73401   0.24914   0.73794   0.00000  Uiso   1.00
C542   C     0.93267   0.25125   0.76199   0.00000  Uiso   1.00
C543   C     0.67965   0.24182   0.73316   0.00000  Uiso   1.00
C544   C     0.98698   0.25923   0.76629   0.00000  Uiso   1.00
C545   C     0.80860   0.04354   0.78223   0.00000  Uiso   1.00
C546   C     0.86656   0.45371   0.71420   0.00000  Uiso   1.00
C547   C     0.81045   0.08986   0.78475   0.00000  Uiso   1.00
C548   C     0.85412   0.40856   0.71076   0.00000  Uiso   1.00
C549   C     0.82841   0.11468   0.74760   0.00000  Uiso   1.00
C550   C     0.84275   0.38528   0.75166   0.00000  Uiso   1.00
C551   C     0.83625   0.09176   0.70562   0.00000  Uiso   1.00
C552   C     0.84704   0.40917   0.79538   0.00000  Uiso   1.00
C553   C     0.83063   0.04584   0.70383   0.00000  Uiso   1.00
C554   C     0.85643   0.45504   0.79573   0.00000  Uiso   1.00
C555   C     0.83100   0.02251   0.74632   0.00000  Uiso   1.00
C556   C     0.85303   0.47739   0.75249   0.00000  Uiso   1.00
H557   H     0.77179   0.19914   0.52797   0.00000  Uiso   1.00
H558   H     0.90884   0.28498   0.97377   0.00000  Uiso   1.00
H559   H     0.89757   0.29889   0.54421   0.00000  Uiso   1.00
H560   H     0.75772   0.21676   0.95542   0.00000  Uiso   1.00
N561   N     0.83333   0.24999   0.62624   0.00000  Uiso   1.00
N562   N     0.83333   0.25001   0.87377   0.00000  Uiso   1.00
O563   O     0.83334   0.18453   0.78974   0.00000  Uiso   1.00
O564   O     0.83333   0.31546   0.71026   0.00000  Uiso   1.00
O565   O     0.83334   0.18453   0.71026   0.00000  Uiso   1.00
O566   O     0.83333   0.31547   0.78974   0.00000  Uiso   1.00
O567   O     0.75725   0.25000   0.78045   0.00000  Uiso   1.00
O568   O     0.90942   0.25000   0.71956   0.00000  Uiso   1.00
O569   O     0.75725   0.24999   0.70097   0.00000  Uiso   1.00
O570   O     0.90942   0.25000   0.79904   0.00000  Uiso   1.00
Zn571  Zn    0.83333   0.25000   0.80307   0.00000  Uiso   1.00
Zn572  Zn    0.83333   0.24999   0.69693   0.00000  Uiso   1.00
C573   C     0.99088   0.20863   0.69810   0.00000  Uiso   1.00
N574   N     0.97332   0.18225   0.67030   0.00000  Uiso   1.00
C575   C     0.67580   0.29324   0.80039   0.00000  Uiso   1.00
N576   N     0.69363   0.32031   0.82729   0.00000  Uiso   1.00
C577   C     0.77649   0.01840   0.81134   0.00000  Uiso   1.00
N578   N     0.75065   0.49840   0.83444   0.00000  Uiso   1.00
C579   C     0.90158   0.47338   0.68392   0.00000  Uiso   1.00
N580   N     0.92976   0.48899   0.65987   0.00000  Uiso   1.00
Cl581  Cl    0.78976   0.11454   0.83485   0.00000  Uiso   1.00
Cl582  Cl    0.84812   0.38545   0.65316   0.00000  Uiso   1.00
C583   C     0.85150   0.11335   0.66406   0.00000  Uiso   1.00
N584   N     0.86390   0.13022   0.63077   0.00000  Uiso   1.00
C585   C     0.83835   0.38896   0.83974   0.00000  Uiso   1.00
N586   N     0.83097   0.37329   0.87531   0.00000  Uiso   1.00
Cl587  Cl    0.80527   0.02060   0.64871   0.00000  Uiso   1.00
Cl588  Cl    0.88149   0.48291   0.84941   0.00000  Uiso   1.00
Cl589  Cl    0.75321   0.18824   0.62108   0.00000  Uiso   1.00
Cl590  Cl    0.92331   0.30165   0.88142   0.00000  Uiso   1.00
C591   C     0.91074   0.29976   0.63639   0.00000  Uiso   1.00
N592   N     0.94413   0.31943   0.65969   0.00000  Uiso   1.00
C593   C     0.74848   0.20928   0.86454   0.00000  Uiso   1.00
N594   N     0.71235   0.19208   0.84238   0.00000  Uiso   1.00
C595   C     0.16577   0.66353   0.74966   0.00000  Uiso   1.00
C596   C     0.16783   0.83655   0.75021   0.00000  Uiso   1.00
C597   C     0.13211   0.72228   0.54840   0.00000  Uiso   1.00
C598   C     0.20833   0.76974   0.95267   0.00000  Uiso   1.00
C599   C     0.13175   0.72336   0.59752   0.00000  Uiso   1.00
C600   C     0.20677   0.77068   0.90331   0.00000  Uiso   1.00
C601   C     0.20308   0.77533   0.60684   0.00000  Uiso   1.00
C602   C     0.12598   0.73038   0.89327   0.00000  Uiso   1.00
C603   C     0.20281   0.77670   0.55760   0.00000  Uiso   1.00
C604   C     0.12523   0.73093   0.94241   0.00000  Uiso   1.00
C605   C     0.16721   0.74981   0.52694   0.00000  Uiso   1.00
C606   C     0.16711   0.74997   0.97362   0.00000  Uiso   1.00
C607   C     0.06734   0.74914   0.73794   0.00000  Uiso   1.00
C608   C     0.26601   0.75125   0.76199   0.00000  Uiso   1.00
C609   C     0.01299   0.74182   0.73316   0.00000  Uiso   1.00
C610   C     0.32031   0.75923   0.76629   0.00000  Uiso   1.00
C611   C     0.14193   0.54354   0.78223   0.00000  Uiso   1.00
C612   C     0.19990   0.95371   0.71420   0.00000  Uiso   1.00
C613   C     0.14378   0.58986   0.78475   0.00000  Uiso   1.00
C614   C     0.18745   0.90856   0.71076   0.00000  Uiso   1.00
C615   C     0.16174   0.61468   0.74760   0.00000  Uiso   1.00
C616   C     0.17608   0.88528   0.75166   0.00000  Uiso   1.00
C617   C     0.16959   0.59176   0.70562   0.00000  Uiso   1.00
C618   C     0.18037   0.90917   0.79538   0.00000  Uiso   1.00
C619   C     0.16396   0.54584   0.70383   0.00000  Uiso   1.00
C620   C     0.18976   0.95504   0.79573   0.00000  Uiso   1.00
C621   C     0.16433   0.52251   0.74632   0.00000  Uiso   1.00
C622   C     0.18637   0.97739   0.75249   0.00000  Uiso   1.00
H623   H     0.10512   0.69914   0.52797   0.00000  Uiso   1.00
H624   H     0.24218   0.78498   0.97377   0.00000  Uiso   1.00
H625   H     0.23090   0.79889   0.54421   0.00000  Uiso   1.00
H626   H     0.09106   0.71676   0.95542   0.00000  Uiso   1.00
N627   N     0.16667   0.74999   0.62624   0.00000  Uiso   1.00
N628   N     0.16667   0.75001   0.87377   0.00000  Uiso   1.00
O629   O     0.16667   0.68453   0.78974   0.00000  Uiso   1.00
O630   O     0.16666   0.81546   0.71026   0.00000  Uiso   1.00
O631   O     0.16667   0.68453   0.71026   0.00000  Uiso   1.00
O632   O     0.16666   0.81547   0.78974   0.00000  Uiso   1.00
O633   O     0.09058   0.75000   0.78045   0.00000  Uiso   1.00
O634   O     0.24275   0.75000   0.71956   0.00000  Uiso   1.00
O635   O     0.09058   0.74999   0.70097   0.00000  Uiso   1.00
O636   O     0.24275   0.75000   0.79904   0.00000  Uiso   1.00
Zn637  Zn    0.16667   0.75000   0.80307   0.00000  Uiso   1.00
Zn638  Zn    0.16667   0.74999   0.69693   0.00000  Uiso   1.00
C639   C     0.32421   0.70863   0.69810   0.00000  Uiso   1.00
N640   N     0.30665   0.68225   0.67030   0.00000  Uiso   1.00
C641   C     0.00914   0.79324   0.80039   0.00000  Uiso   1.00
N642   N     0.02697   0.82031   0.82729   0.00000  Uiso   1.00
C643   C     0.10982   0.51840   0.81134   0.00000  Uiso   1.00
N644   N     0.08399   0.99840   0.83444   0.00000  Uiso   1.00
C645   C     0.23491   0.97338   0.68392   0.00000  Uiso   1.00
N646   N     0.26309   0.98899   0.65987   0.00000  Uiso   1.00
Cl647  Cl    0.12309   0.61454   0.83485   0.00000  Uiso   1.00
Cl648  Cl    0.18146   0.88545   0.65316   0.00000  Uiso   1.00
C649   C     0.18483   0.61335   0.66406   0.00000  Uiso   1.00
N650   N     0.19723   0.63022   0.63077   0.00000  Uiso   1.00
C651   C     0.17168   0.88896   0.83974   0.00000  Uiso   1.00
N652   N     0.16431   0.87329   0.87531   0.00000  Uiso   1.00
Cl653  Cl    0.13861   0.52060   0.64871   0.00000  Uiso   1.00
Cl654  Cl    0.21483   0.98291   0.84941   0.00000  Uiso   1.00
Cl655  Cl    0.08654   0.68824   0.62108   0.00000  Uiso   1.00
Cl656  Cl    0.25664   0.80165   0.88142   0.00000  Uiso   1.00
C657   C     0.24407   0.79976   0.63639   0.00000  Uiso   1.00
N658   N     0.27746   0.81943   0.65969   0.00000  Uiso   1.00
C659   C     0.08182   0.70928   0.86454   0.00000  Uiso   1.00
N660   N     0.04569   0.69208   0.84238   0.00000  Uiso   1.00
C661   C     0.49910   0.66353   0.74966   0.00000  Uiso   1.00
C662   C     0.50116   0.83655   0.75021   0.00000  Uiso   1.00
C663   C     0.46545   0.72228   0.54840   0.00000  Uiso   1.00
C664   C     0.54166   0.76974   0.95267   0.00000  Uiso   1.00
C665   C     0.46509   0.72336   0.59752   0.00000  Uiso   1.00
C666   C     0.54011   0.77068   0.90331   0.00000  Uiso   1.00
C667   C     0.53641   0.77533   0.60684   0.00000  Uiso   1.00
C668   C     0.45932   0.73038   0.89327   0.00000  Uiso   1.00
C669   C     0.53614   0.77670   0.55760   0.00000  Uiso   1.00
C670   C     0.45856   0.73093   0.94241   0.00000  Uiso   1.00
C671   C     0.50054   0.74981   0.52694   0.00000  Uiso   1.00
C672   C     0.50044   0.74997   0.97362   0.00000  Uiso   1.00
C673   C     0.40068   0.74914   0.73794   0.00000  Uiso   1.00
C674   C     0.59934   0.75125   0.76199   0.00000  Uiso   1.00
C675   C     0.34632   0.74182   0.73316   0.00000  Uiso   1.00
C676   C     0.65364   0.75923   0.76629   0.00000  Uiso   1.00
C677   C     0.47526   0.54354   0.78223   0.00000  Uiso   1.00
C678   C     0.53323   0.95371   0.71420   0.00000  Uiso   1.00
C679   C     0.47711   0.58986   0.78475   0.00000  Uiso   1.00
C680   C     0.52079   0.90856   0.71076   0.00000  Uiso   1.00
C681   C     0.49508   0.61468   0.74760   0.00000  Uiso   1.00
C682   C     0.50942   0.88528   0.75166   0.00000  Uiso   1.00
C683   C     0.50292   0.59176   0.70562   0.00000  Uiso   1.00
C684   C     0.51370   0.90917   0.79538   0.00000  Uiso   1.00
C685   C     0.49729   0.54584   0.70383   0.00000  Uiso   1.00
C686   C     0.52310   0.95504   0.79573   0.00000  Uiso   1.00
C687   C     0.49766   0.52251   0.74632   0.00000  Uiso   1.00
C688   C     0.51970   0.97739   0.75249   0.00000  Uiso   1.00
H689   H     0.43846   0.69914   0.52797   0.00000  Uiso   1.00
H690   H     0.57551   0.78498   0.97377   0.00000  Uiso   1.00
H691   H     0.56423   0.79889   0.54421   0.00000  Uiso   1.00
H692   H     0.42439   0.71676   0.95542   0.00000  Uiso   1.00
N693   N     0.50000   0.74999   0.62624   0.00000  Uiso   1.00
N694   N     0.50000   0.75001   0.87377   0.00000  Uiso   1.00
O695   O     0.50000   0.68453   0.78974   0.00000  Uiso   1.00
O696   O     0.50000   0.81546   0.71026   0.00000  Uiso   1.00
O697   O     0.50000   0.68453   0.71026   0.00000  Uiso   1.00
O698   O     0.50000   0.81547   0.78974   0.00000  Uiso   1.00
O699   O     0.42392   0.75000   0.78045   0.00000  Uiso   1.00
O700   O     0.57608   0.75000   0.71956   0.00000  Uiso   1.00
O701   O     0.42392   0.74999   0.70097   0.00000  Uiso   1.00
O702   O     0.57608   0.75000   0.79904   0.00000  Uiso   1.00
Zn703  Zn    0.50000   0.75000   0.80307   0.00000  Uiso   1.00
Zn704  Zn    0.50000   0.74999   0.69693   0.00000  Uiso   1.00
C705   C     0.65755   0.70863   0.69810   0.00000  Uiso   1.00
N706   N     0.63999   0.68225   0.67030   0.00000  Uiso   1.00
C707   C     0.34247   0.79324   0.80039   0.00000  Uiso   1.00
N708   N     0.36030   0.82031   0.82729   0.00000  Uiso   1.00
C709   C     0.44316   0.51840   0.81134   0.00000  Uiso   1.00
N710   N     0.41732   0.99840   0.83444   0.00000  Uiso   1.00
C711   C     0.56825   0.97338   0.68392   0.00000  Uiso   1.00
N712   N     0.59643   0.98899   0.65987   0.00000  Uiso   1.00
Cl713  Cl    0.45643   0.61454   0.83485   0.00000  Uiso   1.00
Cl714  Cl    0.51479   0.88545   0.65316   0.00000  Uiso   1.00
C715   C     0.51817   0.61335   0.66406   0.00000  Uiso   1.00
N716   N     0.53056   0.63022   0.63077   0.00000  Uiso   1.00
C717   C     0.50502   0.88896   0.83974   0.00000  Uiso   1.00
N718   N     0.49764   0.87329   0.87531   0.00000  Uiso   1.00
Cl719  Cl    0.47194   0.52060   0.64871   0.00000  Uiso   1.00
Cl720  Cl    0.54816   0.98291   0.84941   0.00000  Uiso   1.00
Cl721  Cl    0.41987   0.68824   0.62108   0.00000  Uiso   1.00
Cl722  Cl    0.58997   0.80165   0.88142   0.00000  Uiso   1.00
C723   C     0.57740   0.79976   0.63639   0.00000  Uiso   1.00
N724   N     0.61079   0.81943   0.65969   0.00000  Uiso   1.00
C725   C     0.41515   0.70928   0.86454   0.00000  Uiso   1.00
N726   N     0.37902   0.69208   0.84238   0.00000  Uiso   1.00
C727   C     0.83243   0.66353   0.74966   0.00000  Uiso   1.00
C728   C     0.83449   0.83655   0.75021   0.00000  Uiso   1.00
C729   C     0.79878   0.72228   0.54840   0.00000  Uiso   1.00
C730   C     0.87500   0.76974   0.95267   0.00000  Uiso   1.00
C731   C     0.79842   0.72336   0.59752   0.00000  Uiso   1.00
C732   C     0.87344   0.77068   0.90331   0.00000  Uiso   1.00
C733   C     0.86975   0.77533   0.60684   0.00000  Uiso   1.00
C734   C     0.79265   0.73038   0.89327   0.00000  Uiso   1.00
C735   C     0.86948   0.77670   0.55760   0.00000  Uiso   1.00
C736   C     0.79189   0.73093   0.94241   0.00000  Uiso   1.00
C737   C     0.83388   0.74981   0.52694   0.00000  Uiso   1.00
C738   C     0.83377   0.74997   0.97362   0.00000  Uiso   1.00
C739   C     0.73401   0.74914   0.73794   0.00000  Uiso   1.00
C740   C     0.93267   0.75125   0.76199   0.00000  Uiso   1.00
C741   C     0.67965   0.74182   0.73316   0.00000  Uiso   1.00
C742   C     0.98698   0.75923   0.76629   0.00000  Uiso   1.00
C743   C     0.80860   0.54354   0.78223   0.00000  Uiso   1.00
C744   C     0.86656   0.95371   0.71420   0.00000  Uiso   1.00
C745   C     0.81045   0.58986   0.78475   0.00000  Uiso   1.00
C746   C     0.85412   0.90856   0.71076   0.00000  Uiso   1.00
C747   C     0.82841   0.61468   0.74760   0.00000  Uiso   1.00
C748   C     0.84275   0.88528   0.75166   0.00000  Uiso   1.00
C749   C     0.83625   0.59176   0.70562   0.00000  Uiso   1.00
C750   C     0.84704   0.90917   0.79538   0.00000  Uiso   1.00
C751   C     0.83063   0.54584   0.70383   0.00000  Uiso   1.00
C752   C     0.85643   0.95504   0.79573   0.00000  Uiso   1.00
C753   C     0.83100   0.52251   0.74632   0.00000  Uiso   1.00
C754   C     0.85303   0.97739   0.75249   0.00000  Uiso   1.00
H755   H     0.77179   0.69914   0.52797   0.00000  Uiso   1.00
H756   H     0.90884   0.78498   0.97377   0.00000  Uiso   1.00
H757   H     0.89757   0.79889   0.54421   0.00000  Uiso   1.00
H758   H     0.75772   0.71676   0.95542   0.00000  Uiso   1.00
N759   N     0.83333   0.74999   0.62624   0.00000  Uiso   1.00
N760   N     0.83333   0.75001   0.87377   0.00000  Uiso   1.00
O761   O     0.83334   0.68453   0.78974   0.00000  Uiso   1.00
O762   O     0.83333   0.81546   0.71026   0.00000  Uiso   1.00
O763   O     0.83334   0.68453   0.71026   0.00000  Uiso   1.00
O764   O     0.83333   0.81547   0.78974   0.00000  Uiso   1.00
O765   O     0.75725   0.75000   0.78045   0.00000  Uiso   1.00
O766   O     0.90942   0.75000   0.71956   0.00000  Uiso   1.00
O767   O     0.75725   0.74999   0.70097   0.00000  Uiso   1.00
O768   O     0.90942   0.75000   0.79904   0.00000  Uiso   1.00
Zn769  Zn    0.83333   0.75000   0.80307   0.00000  Uiso   1.00
Zn770  Zn    0.83333   0.74999   0.69693   0.00000  Uiso   1.00
C771   C     0.99088   0.70863   0.69810   0.00000  Uiso   1.00
N772   N     0.97332   0.68225   0.67030   0.00000  Uiso   1.00
C773   C     0.67580   0.79324   0.80039   0.00000  Uiso   1.00
N774   N     0.69363   0.82031   0.82729   0.00000  Uiso   1.00
C775   C     0.77649   0.51840   0.81134   0.00000  Uiso   1.00
N776   N     0.75065   0.99840   0.83444   0.00000  Uiso   1.00
C777   C     0.90158   0.97338   0.68392   0.00000  Uiso   1.00
N778   N     0.92976   0.98899   0.65987   0.00000  Uiso   1.00
Cl779  Cl    0.78976   0.61454   0.83485   0.00000  Uiso   1.00
Cl780  Cl    0.84812   0.88545   0.65316   0.00000  Uiso   1.00
C781   C     0.85150   0.61335   0.66406   0.00000  Uiso   1.00
N782   N     0.86390   0.63022   0.63077   0.00000  Uiso   1.00
C783   C     0.83835   0.88896   0.83974   0.00000  Uiso   1.00
N784   N     0.83097   0.87329   0.87531   0.00000  Uiso   1.00
Cl785  Cl    0.80527   0.52060   0.64871   0.00000  Uiso   1.00
Cl786  Cl    0.88149   0.98291   0.84941   0.00000  Uiso   1.00
Cl787  Cl    0.75321   0.68824   0.62108   0.00000  Uiso   1.00
Cl788  Cl    0.92331   0.80165   0.88142   0.00000  Uiso   1.00
C789   C     0.91074   0.79976   0.63639   0.00000  Uiso   1.00
N790   N     0.94413   0.81943   0.65969   0.00000  Uiso   1.00
C791   C     0.74848   0.70928   0.86454   0.00000  Uiso   1.00
N792   N     0.71235   0.69208   0.84238   0.00000  Uiso   1.00
loop_
_geom_bond_atom_site_label_1
_geom_bond_atom_site_label_2
_geom_bond_distance
_geom_bond_site_symmetry_2
_ccdc_geom_bond_type
C1     C21     1.472   .     S
C1     O37     1.294   .     A
C1     O35     1.304   .     A
C2     C22     1.476   .     S
C2     O38     1.299   .     A
C2     O36     1.301   .     A
C3     C11     1.411   .     A
C3     H29     1.079   .     S
C3     C5      1.404   .     A
C4     H30     1.078   .     S
C4     C12     1.408   .     A
C4     C6      1.404   .     A
C5     Cl61    1.753   .     S
C5     N33     1.367   .     A
C6     N34     1.372   .     A
C6     Cl62    1.751   .     S
C7     C63     1.438   .     S
C7     C9      1.405   .     A
C7     N33     1.368   .     A
C8     N34     1.374   .     A
C8     C10     1.406   .     A
C8     C65     1.437   .     S
C9     C11     1.410   .     A
C9     H31     1.079   .     S
C10    C12     1.407   .     A
C10    H32     1.080   .     S
C11    C408    1.522   1_554 S
C12    C407    1.522   .     S
C13    C15     1.402   .     S
C13    O41     1.285   .     A
C13    O39     1.276   .     A
C14    O42     1.288   .     A
C14    C16     1.404   .     S
C14    O40     1.275   .     A
C15    C148    1.351   1_455 S
C15    C177    1.457   1_455 S
C16    C81     1.351   .     S
C16    C113    1.457   .     S
C17    C27     1.406   .     A
C17    C19     1.396   .     A
C17    C49     1.451   .     S
C18    C28     1.396   .     A
C18    C51     1.449   .     S
C18    C20     1.387   .     A
C19    Cl53    1.767   .     S
C19    C21     1.420   .     A
C20    Cl54    1.769   .     S
C20    C22     1.423   .     A
C21    C23     1.425   .     A
C22    C24     1.428   .     A
C23    C55     1.450   .     S
C23    C25     1.386   .     A
C24    C26     1.395   .     A
C24    C57     1.448   .     S
C25    C27     1.402   .     A
C25    Cl59    1.776   .     S
C26    C28     1.401   .     A
C26    Cl60    1.776   .     S
C27    C226    1.494   1_545 S
C28    C225    1.494   .     S
N33    Zn44    2.018   .     S
N34    Zn43    2.018   .     S
O35    Zn43    2.009   .     S
O36    Zn44    2.009   .     S
O37    Zn44    2.010   .     S
O38    Zn43    2.010   .     S
O39    Zn43    1.983   .     S
O40    Zn44    1.983   .     S
O41    Zn44    1.987   .     S
O42    Zn43    1.987   .     S
C45    N46     1.157   .     T
C45    C81     1.457   .     S
C47    N48     1.158   .     T
C47    C148    1.457   1_455 S
C49    N248    1.158   1_545 S
N50    C247    1.158   .     S
C51    N52     1.158   .     T
C55    N56     1.158   .     T
C57    N58     1.158   .     T
C63    N64     1.158   .     T
C65    N66     1.158   .     T
C67    C87     1.472   .     S
C67    O103    1.294   .     A
C67    O101    1.304   .     A
C68    C88     1.476   .     S
C68    O104    1.299   .     A
C68    O102    1.301   .     A
C69    C77     1.411   .     A
C69    H95     1.079   .     S
C69    C71     1.404   .     A
C70    H96     1.078   .     S
C70    C78     1.408   .     A
C70    C72     1.404   .     A
C71    Cl127   1.753   .     S
C71    N99     1.367   .     A
C72    N100    1.372   .     A
C72    Cl128   1.751   .     S
C73    C129    1.438   .     S
C73    C75     1.405   .     A
C73    N99     1.368   .     A
C74    N100    1.374   .     A
C74    C76     1.406   .     A
C74    C131    1.437   .     S
C75    C77     1.410   .     A
C75    H97     1.079   .     S
C76    C78     1.407   .     A
C76    H98     1.080   .     S
C77    C474    1.522   1_554 S
C78    C473    1.522   .     S
C79    C81     1.402   .     S
C79    O107    1.285   .     A
C79    O105    1.276   .     A
C80    O108    1.288   .     A
C80    C82     1.404   .     S
C80    O106    1.275   .     A
C82    C147    1.351   .     S
C82    C179    1.457   .     S
C83    C93     1.406   .     A
C83    C85     1.396   .     A
C83    C115    1.451   .     S
C84    C94     1.396   .     A
C84    C117    1.449   .     S
C84    C86     1.387   .     A
C85    Cl119   1.767   .     S
C85    C87     1.420   .     A
C86    Cl120   1.769   .     S
C86    C88     1.423   .     A
C87    C89     1.425   .     A
C88    C90     1.428   .     A
C89    C121    1.450   .     S
C89    C91     1.386   .     A
C90    C92     1.395   .     A
C90    C123    1.448   .     S
C91    C93     1.402   .     A
C91    Cl125   1.776   .     S
C92    C94     1.401   .     A
C92    Cl126   1.776   .     S
C93    C292    1.494   1_545 S
C94    C291    1.494   .     S
N99    Zn110   2.018   .     S
N100   Zn109   2.018   .     S
O101   Zn109   2.009   .     S
O102   Zn110   2.009   .     S
O103   Zn110   2.010   .     S
O104   Zn109   2.010   .     S
O105   Zn109   1.983   .     S
O106   Zn110   1.983   .     S
O107   Zn110   1.987   .     S
O108   Zn109   1.987   .     S
C111   N112    1.157   .     T
C111   C147    1.457   .     S
C113   N114    1.158   .     T
C115   N314    1.158   1_545 S
N116   C313    1.158   .     S
C117   N118    1.158   .     T
C121   N122    1.158   .     T
C123   N124    1.158   .     T
C129   N130    1.158   .     T
C131   N132    1.158   .     T
C133   C153    1.472   .     S
C133   O169    1.294   .     A
C133   O167    1.304   .     A
C134   C154    1.476   .     S
C134   O170    1.299   .     A
C134   O168    1.301   .     A
C135   C143    1.411   .     A
C135   H161    1.079   .     S
C135   C137    1.404   .     A
C136   H162    1.078   .     S
C136   C144    1.408   .     A
C136   C138    1.404   .     A
C137   Cl193   1.753   .     S
C137   N165    1.367   .     A
C138   N166    1.372   .     A
C138   Cl194   1.751   .     S
C139   C195    1.438   .     S
C139   C141    1.405   .     A
C139   N165    1.368   .     A
C140   N166    1.374   .     A
C140   C142    1.406   .     A
C140   C197    1.437   .     S
C141   C143    1.410   .     A
C141   H163    1.079   .     S
C142   C144    1.407   .     A
C142   H164    1.080   .     S
C143   C540    1.522   1_554 S
C144   C539    1.522   .     S
C145   C147    1.402   .     S
C145   O173    1.285   .     A
C145   O171    1.276   .     A
C146   O174    1.288   .     A
C146   C148    1.404   .     S
C146   O172    1.275   .     A
C148   C15     1.351   1_655 S
C148   C47     1.457   1_655 S
C149   C159    1.406   .     A
C149   C151    1.396   .     A
C149   C181    1.451   .     S
C150   C160    1.396   .     A
C150   C183    1.449   .     S
C150   C152    1.387   .     A
C151   Cl185   1.767   .     S
C151   C153    1.420   .     A
C152   Cl186   1.769   .     S
C152   C154    1.423   .     A
C153   C155    1.425   .     A
C154   C156    1.428   .     A
C155   C187    1.450   .     S
C155   C157    1.386   .     A
C156   C158    1.395   .     A
C156   C189    1.448   .     S
C157   C159    1.402   .     A
C157   Cl191   1.776   .     S
C158   C160    1.401   .     A
C158   Cl192   1.776   .     S
C159   C358    1.494   1_545 S
C160   C357    1.494   .     S
N165   Zn176   2.018   .     S
N166   Zn175   2.018   .     S
O167   Zn175   2.009   .     S
O168   Zn176   2.009   .     S
O169   Zn176   2.010   .     S
O170   Zn175   2.010   .     S
O171   Zn175   1.983   .     S
O172   Zn176   1.983   .     S
O173   Zn176   1.987   .     S
O174   Zn175   1.987   .     S
C177   N178    1.157   .     T
C177   C15     1.457   1_655 S
C179   N180    1.158   .     T
C181   N380    1.158   1_545 S
N182   C379    1.158   .     S
C183   N184    1.158   .     T
C187   N188    1.158   .     T
C189   N190    1.158   .     T
C195   N196    1.158   .     T
C197   N198    1.158   .     T
C199   C219    1.472   .     S
C199   O235    1.294   .     A
C199   O233    1.304   .     A
C200   C220    1.476   .     S
C200   O236    1.299   .     A
C200   O234    1.301   .     A
C201   C209    1.411   .     A
C201   H227    1.079   .     S
C201   C203    1.404   .     A
C202   H228    1.078   .     S
C202   C210    1.408   .     A
C202   C204    1.404   .     A
C203   Cl259   1.753   .     S
C203   N231    1.367   .     A
C204   N232    1.372   .     A
C204   Cl260   1.751   .     S
C205   C261    1.438   .     S
C205   C207    1.405   .     A
C205   N231    1.368   .     A
C206   N232    1.374   .     A
C206   C208    1.406   .     A
C206   C263    1.437   .     S
C207   C209    1.410   .     A
C207   H229    1.079   .     S
C208   C210    1.407   .     A
C208   H230    1.080   .     S
C209   C606    1.522   1_554 S
C210   C605    1.522   .     S
C211   C213    1.402   .     S
C211   O239    1.285   .     A
C211   O237    1.276   .     A
C212   O240    1.288   .     A
C212   C214    1.404   .     S
C212   O238    1.275   .     A
C213   C346    1.351   1_455 S
C213   C375    1.457   1_455 S
C214   C279    1.351   .     S
C214   C311    1.457   .     S
C215   C225    1.406   .     A
C215   C217    1.396   .     A
C215   C247    1.451   .     S
C216   C226    1.396   .     A
C216   C249    1.449   .     S
C216   C218    1.387   .     A
C217   Cl251   1.767   .     S
C217   C219    1.420   .     A
C218   Cl252   1.769   .     S
C218   C220    1.423   .     A
C219   C221    1.425   .     A
C220   C222    1.428   .     A
C221   C253    1.450   .     S
C221   C223    1.386   .     A
C222   C224    1.395   .     A
C222   C255    1.448   .     S
C223   C225    1.402   .     A
C223   Cl257   1.776   .     S
C224   C226    1.401   .     A
C224   Cl258   1.776   .     S
C226   C27     1.494   1_565 S
N231   Zn242   2.018   .     S
N232   Zn241   2.018   .     S
O233   Zn241   2.009   .     S
O234   Zn242   2.009   .     S
O235   Zn242   2.010   .     S
O236   Zn241   2.010   .     S
O237   Zn241   1.983   .     S
O238   Zn242   1.983   .     S
O239   Zn242   1.987   .     S
O240   Zn241   1.987   .     S
C243   N244    1.157   .     T
C243   C279    1.457   .     S
C245   N246    1.158   .     T
C245   C346    1.457   1_455 S
N248   C49     1.158   1_565 S
C249   N250    1.158   .     T
C253   N254    1.158   .     T
C255   N256    1.158   .     T
C261   N262    1.158   .     T
C263   N264    1.158   .     T
C265   C285    1.472   .     S
C265   O301    1.294   .     A
C265   O299    1.304   .     A
C266   C286    1.476   .     S
C266   O302    1.299   .     A
C266   O300    1.301   .     A
C267   C275    1.411   .     A
C267   H293    1.079   .     S
C267   C269    1.404   .     A
C268   H294    1.078   .     S
C268   C276    1.408   .     A
C268   C270    1.404   .     A
C269   Cl325   1.753   .     S
C269   N297    1.367   .     A
C270   N298    1.372   .     A
C270   Cl326   1.751   .     S
C271   C327    1.438   .     S
C271   C273    1.405   .     A
C271   N297    1.368   .     A
C272   N298    1.374   .     A
C272   C274    1.406   .     A
C272   C329    1.437   .     S
C273   C275    1.410   .     A
C273   H295    1.079   .     S
C274   C276    1.407   .     A
C274   H296    1.080   .     S
C275   C672    1.522   1_554 S
C276   C671    1.522   .     S
C277   C279    1.402   .     S
C277   O305    1.285   .     A
C277   O303    1.276   .     A
C278   O306    1.288   .     A
C278   C280    1.404   .     S
C278   O304    1.275   .     A
C280   C345    1.351   .     S
C280   C377    1.457   .     S
C281   C291    1.406   .     A
C281   C283    1.396   .     A
C281   C313    1.451   .     S
C282   C292    1.396   .     A
C282   C315    1.449   .     S
C282   C284    1.387   .     A
C283   Cl317   1.767   .     S
C283   C285    1.420   .     A
C284   Cl318   1.769   .     S
C284   C286    1.423   .     A
C285   C287    1.425   .     A
C286   C288    1.428   .     A
C287   C319    1.450   .     S
C287   C289    1.386   .     A
C288   C290    1.395   .     A
C288   C321    1.448   .     S
C289   C291    1.402   .     A
C289   Cl323   1.776   .     S
C290   C292    1.401   .     A
C290   Cl324   1.776   .     S
C292   C93     1.494   1_565 S
N297   Zn308   2.018   .     S
N298   Zn307   2.018   .     S
O299   Zn307   2.009   .     S
O300   Zn308   2.009   .     S
O301   Zn308   2.010   .     S
O302   Zn307   2.010   .     S
O303   Zn307   1.983   .     S
O304   Zn308   1.983   .     S
O305   Zn308   1.987   .     S
O306   Zn307   1.987   .     S
C309   N310    1.157   .     T
C309   C345    1.457   .     S
C311   N312    1.158   .     T
N314   C115    1.158   1_565 S
C315   N316    1.158   .     T
C319   N320    1.158   .     T
C321   N322    1.158   .     T
C327   N328    1.158   .     T
C329   N330    1.158   .     T
C331   C351    1.472   .     S
C331   O367    1.294   .     A
C331   O365    1.304   .     A
C332   C352    1.476   .     S
C332   O368    1.299   .     A
C332   O366    1.301   .     A
C333   C341    1.411   .     A
C333   H359    1.079   .     S
C333   C335    1.404   .     A
C334   H360    1.078   .     S
C334   C342    1.408   .     A
C334   C336    1.404   .     A
C335   Cl391   1.753   .     S
C335   N363    1.367   .     A
C336   N364    1.372   .     A
C336   Cl392   1.751   .     S
C337   C393    1.438   .     S
C337   C339    1.405   .     A
C337   N363    1.368   .     A
C338   N364    1.374   .     A
C338   C340    1.406   .     A
C338   C395    1.437   .     S
C339   C341    1.410   .     A
C339   H361    1.079   .     S
C340   C342    1.407   .     A
C340   H362    1.080   .     S
C341   C738    1.522   1_554 S
C342   C737    1.522   .     S
C343   C345    1.402   .     S
C343   O371    1.285   .     A
C343   O369    1.276   .     A
C344   O372    1.288   .     A
C344   C346    1.404   .     S
C344   O370    1.275   .     A
C346   C213    1.351   1_655 S
C346   C245    1.457   1_655 S
C347   C357    1.406   .     A
C347   C349    1.396   .     A
C347   C379    1.451   .     S
C348   C358    1.396   .     A
C348   C381    1.449   .     S
C348   C350    1.387   .     A
C349   Cl383   1.767   .     S
C349   C351    1.420   .     A
C350   Cl384   1.769   .     S
C350   C352    1.423   .     A
C351   C353    1.425   .     A
C352   C354    1.428   .     A
C353   C385    1.450   .     S
C353   C355    1.386   .     A
C354   C356    1.395   .     A
C354   C387    1.448   .     S
C355   C357    1.402   .     A
C355   Cl389   1.776   .     S
C356   C358    1.401   .     A
C356   Cl390   1.776   .     S
C358   C159    1.494   1_565 S
N363   Zn374   2.018   .     S
N364   Zn373   2.018   .     S
O365   Zn373   2.009   .     S
O366   Zn374   2.009   .     S
O367   Zn374   2.010   .     S
O368   Zn373   2.010   .     S
O369   Zn373   1.983   .     S
O370   Zn374   1.983   .     S
O371   Zn374   1.987   .     S
O372   Zn373   1.987   .     S
C375   N376    1.157   .     T
C375   C213    1.457   1_655 S
C377   N378    1.158   .     T
N380   C181    1.158   1_565 S
C381   N382    1.158   .     T
C385   N386    1.158   .     T
C387   N388    1.158   .     T
C393   N394    1.158   .     T
C395   N396    1.158   .     T
C397   C417    1.472   .     S
C397   O433    1.294   .     A
C397   O431    1.304   .     A
C398   C418    1.476   .     S
C398   O434    1.299   .     A
C398   O432    1.301   .     A
C399   C407    1.411   .     A
C399   H425    1.079   .     S
C399   C401    1.404   .     A
C400   H426    1.078   .     S
C400   C408    1.408   .     A
C400   C402    1.404   .     A
C401   Cl457   1.753   .     S
C401   N429    1.367   .     A
C402   N430    1.372   .     A
C402   Cl458   1.751   .     S
C403   C459    1.438   .     S
C403   C405    1.405   .     A
C403   N429    1.368   .     A
C404   N430    1.374   .     A
C404   C406    1.406   .     A
C404   C461    1.437   .     S
C405   C407    1.410   .     A
C405   H427    1.079   .     S
C406   C408    1.407   .     A
C406   H428    1.080   .     S
C408   C11     1.522   1_556 S
C409   C411    1.402   .     S
C409   O437    1.285   .     A
C409   O435    1.276   .     A
C410   O438    1.288   .     A
C410   C412    1.404   .     S
C410   O436    1.275   .     A
C411   C544    1.351   1_455 S
C411   C573    1.457   1_455 S
C412   C477    1.351   .     S
C412   C509    1.457   .     S
C413   C423    1.406   .     A
C413   C415    1.396   .     A
C413   C445    1.451   .     S
C414   C424    1.396   .     A
C414   C447    1.449   .     S
C414   C416    1.387   .     A
C415   Cl449   1.767   .     S
C415   C417    1.420   .     A
C416   Cl450   1.769   .     S
C416   C418    1.423   .     A
C417   C419    1.425   .     A
C418   C420    1.428   .     A
C419   C451    1.450   .     S
C419   C421    1.386   .     A
C420   C422    1.395   .     A
C420   C453    1.448   .     S
C421   C423    1.402   .     A
C421   Cl455   1.776   .     S
C422   C424    1.401   .     A
C422   Cl456   1.776   .     S
C423   C622    1.494   1_545 S
C424   C621    1.494   .     S
N429   Zn440   2.018   .     S
N430   Zn439   2.018   .     S
O431   Zn439   2.009   .     S
O432   Zn440   2.009   .     S
O433   Zn440   2.010   .     S
O434   Zn439   2.010   .     S
O435   Zn439   1.983   .     S
O436   Zn440   1.983   .     S
O437   Zn440   1.987   .     S
O438   Zn439   1.987   .     S
C441   N442    1.157   .     T
C441   C477    1.457   .     S
C443   N444    1.158   .     T
C443   C544    1.457   1_455 S
C445   N644    1.158   1_545 S
N446   C643    1.158   .     S
C447   N448    1.158   .     T
C451   N452    1.158   .     T
C453   N454    1.158   .     T
C459   N460    1.158   .     T
C461   N462    1.158   .     T
C463   C483    1.472   .     S
C463   O499    1.294   .     A
C463   O497    1.304   .     A
C464   C484    1.476   .     S
C464   O500    1.299   .     A
C464   O498    1.301   .     A
C465   C473    1.411   .     A
C465   H491    1.079   .     S
C465   C467    1.404   .     A
C466   H492    1.078   .     S
C466   C474    1.408   .     A
C466   C468    1.404   .     A
C467   Cl523   1.753   .     S
C467   N495    1.367   .     A
C468   N496    1.372   .     A
C468   Cl524   1.751   .     S
C469   C525    1.438   .     S
C469   C471    1.405   .     A
C469   N495    1.368   .     A
C470   N496    1.374   .     A
C470   C472    1.406   .     A
C470   C527    1.437   .     S
C471   C473    1.410   .     A
C471   H493    1.079   .     S
C472   C474    1.407   .     A
C472   H494    1.080   .     S
C474   C77     1.522   1_556 S
C475   C477    1.402   .     S
C475   O503    1.285   .     A
C475   O501    1.276   .     A
C476   O504    1.288   .     A
C476   C478    1.404   .     S
C476   O502    1.275   .     A
C478   C543    1.351   .     S
C478   C575    1.457   .     S
C479   C489    1.406   .     A
C479   C481    1.396   .     A
C479   C511    1.451   .     S
C480   C490    1.396   .     A
C480   C513    1.449   .     S
C480   C482    1.387   .     A
C481   Cl515   1.767   .     S
C481   C483    1.420   .     A
C482   Cl516   1.769   .     S
C482   C484    1.423   .     A
C483   C485    1.425   .     A
C484   C486    1.428   .     A
C485   C517    1.450   .     S
C485   C487    1.386   .     A
C486   C488    1.395   .     A
C486   C519    1.448   .     S
C487   C489    1.402   .     A
C487   Cl521   1.776   .     S
C488   C490    1.401   .     A
C488   Cl522   1.776   .     S
C489   C688    1.494   1_545 S
C490   C687    1.494   .     S
N495   Zn506   2.018   .     S
N496   Zn505   2.018   .     S
O497   Zn505   2.009   .     S
O498   Zn506   2.009   .     S
O499   Zn506   2.010   .     S
O500   Zn505   2.010   .     S
O501   Zn505   1.983   .     S
O502   Zn506   1.983   .     S
O503   Zn506   1.987   .     S
O504   Zn505   1.987   .     S
C507   N508    1.157   .     T
C507   C543    1.457   .     S
C509   N510    1.158   .     T
C511   N710    1.158   1_545 S
N512   C709    1.158   .     S
C513   N514    1.158   .     T
C517   N518    1.158   .     T
C519   N520    1.158   .     T
C525   N526    1.158   .     T
C527   N528    1.158   .     T
C529   C549    1.472   .     S
C529   O565    1.294   .     A
C529   O563    1.304   .     A
C530   C550    1.476   .     S
C530   O566    1.299   .     A
C530   O564    1.301   .     A
C531   C539    1.411   .     A
C531   H557    1.079   .     S
C531   C533    1.404   .     A
C532   H558    1.078   .     S
C532   C540    1.408   .     A
C532   C534    1.404   .     A
C533   Cl589   1.753   .     S
C533   N561    1.367   .     A
C534   N562    1.372   .     A
C534   Cl590   1.751   .     S
C535   C591    1.438   .     S
C535   C537    1.405   .     A
C535   N561    1.368   .     A
C536   N562    1.374   .     A
C536   C538    1.406   .     A
C536   C593    1.437   .     S
C537   C539    1.410   .     A
C537   H559    1.079   .     S
C538   C540    1.407   .     A
C538   H560    1.080   .     S
C540   C143    1.522   1_556 S
C541   C543    1.402   .     S
C541   O569    1.285   .     A
C541   O567    1.276   .     A
C542   O570    1.288   .     A
C542   C544    1.404   .     S
C542   O568    1.275   .     A
C544   C411    1.351   1_655 S
C544   C443    1.457   1_655 S
C545   C555    1.406   .     A
C545   C547    1.396   .     A
C545   C577    1.451   .     S
C546   C556    1.396   .     A
C546   C579    1.449   .     S
C546   C548    1.387   .     A
C547   Cl581   1.767   .     S
C547   C549    1.420   .     A
C548   Cl582   1.769   .     S
C548   C550    1.423   .     A
C549   C551    1.425   .     A
C550   C552    1.428   .     A
C551   C583    1.450   .     S
C551   C553    1.386   .     A
C552   C554    1.395   .     A
C552   C585    1.448   .     S
C553   C555    1.402   .     A
C553   Cl587   1.776   .     S
C554   C556    1.401   .     A
C554   Cl588   1.776   .     S
C555   C754    1.494   1_545 S
C556   C753    1.494   .     S
N561   Zn572   2.018   .     S
N562   Zn571   2.018   .     S
O563   Zn571   2.009   .     S
O564   Zn572   2.009   .     S
O565   Zn572   2.010   .     S
O566   Zn571   2.010   .     S
O567   Zn571   1.983   .     S
O568   Zn572   1.983   .     S
O569   Zn572   1.987   .     S
O570   Zn571   1.987   .     S
C573   N574    1.157   .     T
C573   C411    1.457   1_655 S
C575   N576    1.158   .     T
C577   N776    1.158   1_545 S
N578   C775    1.158   .     S
C579   N580    1.158   .     T
C583   N584    1.158   .     T
C585   N586    1.158   .     T
C591   N592    1.158   .     T
C593   N594    1.158   .     T
C595   C615    1.472   .     S
C595   O631    1.294   .     A
C595   O629    1.304   .     A
C596   C616    1.476   .     S
C596   O632    1.299   .     A
C596   O630    1.301   .     A
C597   C605    1.411   .     A
C597   H623    1.079   .     S
C597   C599    1.404   .     A
C598   H624    1.078   .     S
C598   C606    1.408   .     A
C598   C600    1.404   .     A
C599   Cl655   1.753   .     S
C599   N627    1.367   .     A
C600   N628    1.372   .     A
C600   Cl656   1.751   .     S
C601   C657    1.438   .     S
C601   C603    1.405   .     A
C601   N627    1.368   .     A
C602   N628    1.374   .     A
C602   C604    1.406   .     A
C602   C659    1.437   .     S
C603   C605    1.410   .     A
C603   H625    1.079   .     S
C604   C606    1.407   .     A
C604   H626    1.080   .     S
C606   C209    1.522   1_556 S
C607   C609    1.402   .     S
C607   O635    1.285   .     A
C607   O633    1.276   .     A
C608   O636    1.288   .     A
C608   C610    1.404   .     S
C608   O634    1.275   .     A
C609   C742    1.351   1_455 S
C609   C771    1.457   1_455 S
C610   C675    1.351   .     S
C610   C707    1.457   .     S
C611   C621    1.406   .     A
C611   C613    1.396   .     A
C611   C643    1.451   .     S
C612   C622    1.396   .     A
C612   C645    1.449   .     S
C612   C614    1.387   .     A
C613   Cl647   1.767   .     S
C613   C615    1.420   .     A
C614   Cl648   1.769   .     S
C614   C616    1.423   .     A
C615   C617    1.425   .     A
C616   C618    1.428   .     A
C617   C649    1.450   .     S
C617   C619    1.386   .     A
C618   C620    1.395   .     A
C618   C651    1.448   .     S
C619   C621    1.402   .     A
C619   Cl653   1.776   .     S
C620   C622    1.401   .     A
C620   Cl654   1.776   .     S
C622   C423    1.494   1_565 S
N627   Zn638   2.018   .     S
N628   Zn637   2.018   .     S
O629   Zn637   2.009   .     S
O630   Zn638   2.009   .     S
O631   Zn638   2.010   .     S
O632   Zn637   2.010   .     S
O633   Zn637   1.983   .     S
O634   Zn638   1.983   .     S
O635   Zn638   1.987   .     S
O636   Zn637   1.987   .     S
C639   N640    1.157   .     T
C639   C675    1.457   .     S
C641   N642    1.158   .     T
C641   C742    1.457   1_455 S
N644   C445    1.158   1_565 S
C645   N646    1.158   .     T
C649   N650    1.158   .     T
C651   N652    1.158   .     T
C657   N658    1.158   .     T
C659   N660    1.158   .     T
C661   C681    1.472   .     S
C661   O697    1.294   .     A
C661   O695    1.304   .     A
C662   C682    1.476   .     S
C662   O698    1.299   .     A
C662   O696    1.301   .     A
C663   C671    1.411   .     A
C663   H689    1.079   .     S
C663   C665    1.404   .     A
C664   H690    1.078   .     S
C664   C672    1.408   .     A
C664   C666    1.404   .     A
C665   Cl721   1.753   .     S
C665   N693    1.367   .     A
C666   N694    1.372   .     A
C666   Cl722   1.751   .     S
C667   C723    1.438   .     S
C667   C669    1.405   .     A
C667   N693    1.368   .     A
C668   N694    1.374   .     A
C668   C670    1.406   .     A
C668   C725    1.437   .     S
C669   C671    1.410   .     A
C669   H691    1.079   .     S
C670   C672    1.407   .     A
C670   H692    1.080   .     S
C672   C275    1.522   1_556 S
C673   C675    1.402   .     S
C673   O701    1.285   .     A
C673   O699    1.276   .     A
C674   O702    1.288   .     A
C674   C676    1.404   .     S
C674   O700    1.275   .     A
C676   C741    1.351   .     S
C676   C773    1.457   .     S
C677   C687    1.406   .     A
C677   C679    1.396   .     A
C677   C709    1.451   .     S
C678   C688    1.396   .     A
C678   C711    1.449   .     S
C678   C680    1.387   .     A
C679   Cl713   1.767   .     S
C679   C681    1.420   .     A
C680   Cl714   1.769   .     S
C680   C682    1.423   .     A
C681   C683    1.425   .     A
C682   C684    1.428   .     A
C683   C715    1.450   .     S
C683   C685    1.386   .     A
C684   C686    1.395   .     A
C684   C717    1.448   .     S
C685   C687    1.402   .     A
C685   Cl719   1.776   .     S
C686   C688    1.401   .     A
C686   Cl720   1.776   .     S
C688   C489    1.494   1_565 S
N693   Zn704   2.018   .     S
N694   Zn703   2.018   .     S
O695   Zn703   2.009   .     S
O696   Zn704   2.009   .     S
O697   Zn704   2.010   .     S
O698   Zn703   2.010   .     S
O699   Zn703   1.983   .     S
O700   Zn704   1.983   .     S
O701   Zn704   1.987   .     S
O702   Zn703   1.987   .     S
C705   N706    1.157   .     T
C705   C741    1.457   .     S
C707   N708    1.158   .     T
N710   C511    1.158   1_565 S
C711   N712    1.158   .     T
C715   N716    1.158   .     T
C717   N718    1.158   .     T
C723   N724    1.158   .     T
C725   N726    1.158   .     T
C727   C747    1.472   .     S
C727   O763    1.294   .     A
C727   O761    1.304   .     A
C728   C748    1.476   .     S
C728   O764    1.299   .     A
C728   O762    1.301   .     A
C729   C737    1.411   .     A
C729   H755    1.079   .     S
C729   C731    1.404   .     A
C730   H756    1.078   .     S
C730   C738    1.408   .     A
C730   C732    1.404   .     A
C731   Cl787   1.753   .     S
C731   N759    1.367   .     A
C732   N760    1.372   .     A
C732   Cl788   1.751   .     S
C733   C789    1.438   .     S
C733   C735    1.405   .     A
C733   N759    1.368   .     A
C734   N760    1.374   .     A
C734   C736    1.406   .     A
C734   C791    1.437   .     S
C735   C737    1.410   .     A
C735   H757    1.079   .     S
C736   C738    1.407   .     A
C736   H758    1.080   .     S
C738   C341    1.522   1_556 S
C739   C741    1.402   .     S
C739   O767    1.285   .     A
C739   O765    1.276   .     A
C740   O768    1.288   .     A
C740   C742    1.404   .     S
C740   O766    1.275   .     A
C742   C609    1.351   1_655 S
C742   C641    1.457   1_655 S
C743   C753    1.406   .     A
C743   C745    1.396   .     A
C743   C775    1.451   .     S
C744   C754    1.396   .     A
C744   C777    1.449   .     S
C744   C746    1.387   .     A
C745   Cl779   1.767   .     S
C745   C747    1.420   .     A
C746   Cl780   1.769   .     S
C746   C748    1.423   .     A
C747   C749    1.425   .     A
C748   C750    1.428   .     A
C749   C781    1.450   .     S
C749   C751    1.386   .     A
C750   C752    1.395   .     A
C750   C783    1.448   .     S
C751   C753    1.402   .     A
C751   Cl785   1.776   .     S
C752   C754    1.401   .     A
C752   Cl786   1.776   .     S
C754   C555    1.494   1_565 S
N759   Zn770   2.018   .     S
N760   Zn769   2.018   .     S
O761   Zn769   2.009   .     S
O762   Zn770   2.009   .     S
O763   Zn770   2.010   .     S
O764   Zn769   2.010   .     S
O765   Zn769   1.983   .     S
O766   Zn770   1.983   .     S
O767   Zn770   1.987   .     S
O768   Zn769   1.987   .     S
C771   N772    1.157   .     T
C771   C609    1.457   1_655 S
C773   N774    1.158   .     T
N776   C577    1.158   1_565 S
C777   N778    1.158   .     T
C781   N782    1.158   .     T
C783   N784    1.158   .     T
C789   N790    1.158   .     T
C791   N792    1.158   .     T
