data_str_m3_o1_o10_pcu_sym.24
_audit_creation_date              2020-01-03
_audit_creation_method            'Materials Studio'
_symmetry_space_group_name_H-M    'P1'
_symmetry_Int_Tables_number       1
_symmetry_cell_setting            triclinic
loop_
_symmetry_equiv_pos_as_xyz
  x,y,z
_cell_length_a                    25.7250
_cell_length_b                    31.9379
_cell_length_c                    29.7479
_cell_angle_alpha                 90.2229
_cell_angle_beta                  99.3763
_cell_angle_gamma                 90.4142
loop_
_atom_site_label
_atom_site_type_symbol
_atom_site_fract_x
_atom_site_fract_y
_atom_site_fract_z
_atom_site_U_iso_or_equiv
_atom_site_adp_type
_atom_site_occupancy
C1     C     0.16831   0.08685   0.16685   0.00000  Uiso   1.00
C2     C     0.13118   0.02267   0.18786   0.00000  Uiso   1.00
C3     C     0.16382   0.29068   0.16607   0.00000  Uiso   1.00
C4     C     0.16952   0.04266   0.16726   0.00000  Uiso   1.00
C5     C     0.20456   0.18772   0.02987   0.00000  Uiso   1.00
C6     C     0.12878   0.14562   0.30346   0.00000  Uiso   1.00
C7     C     0.20504   0.18785   0.31552   0.00000  Uiso   1.00
C8     C     0.12830   0.14548   0.01781   0.00000  Uiso   1.00
C9     C     0.25001   0.04039   0.12689   0.00000  Uiso   1.00
C10    C     0.08333   0.29294   0.20644   0.00000  Uiso   1.00
C11    C     0.24958   0.21067   0.29915   0.00000  Uiso   1.00
C12    C     0.16503   0.24649   0.16649   0.00000  Uiso   1.00
C13    C     0.08375   0.12266   0.03419   0.00000  Uiso   1.00
C14    C     0.06704   0.16641   0.15458   0.00000  Uiso   1.00
C15    C     0.26630   0.16692   0.17875   0.00000  Uiso   1.00
C16    C     0.01177   0.16642   0.14824   0.00000  Uiso   1.00
C17    C     0.32156   0.16692   0.18509   0.00000  Uiso   1.00
C18    C     0.20611   0.02040   0.14622   0.00000  Uiso   1.00
C19    C     0.12722   0.31293   0.18712   0.00000  Uiso   1.00
C20    C     0.20215   0.31067   0.14547   0.00000  Uiso   1.00
H21    H     0.32400   0.16605   0.11344   0.00000  Uiso   1.00
H22    H     0.27091   0.23153   0.32609   0.00000  Uiso   1.00
H23    H     0.27866   0.18782   0.29050   0.00000  Uiso   1.00
H24    H     0.09825   0.10247   0.06350   0.00000  Uiso   1.00
H25    H     0.05468   0.14552   0.04283   0.00000  Uiso   1.00
H26    H     0.06242   0.10180   0.00724   0.00000  Uiso   1.00
H27    H     0.00934   0.16728   0.21990   0.00000  Uiso   1.00
H28    H     0.23033   0.29232   0.13043   0.00000  Uiso   1.00
H29    H     0.10300   0.04101   0.20290   0.00000  Uiso   1.00
H30    H     0.23482   0.20424   0.05292   0.00000  Uiso   1.00
H31    H     0.09851   0.12910   0.28041   0.00000  Uiso   1.00
H32    H     0.30094   0.03650   0.08213   0.00000  Uiso   1.00
H33    H     0.03239   0.29684   0.25120   0.00000  Uiso   1.00
H34    H     0.23508   0.23086   0.26984   0.00000  Uiso   1.00
N35    N     0.16665   0.16666   0.28573   0.00000  Uiso   1.00
N36    N     0.16668   0.16668   0.04760   0.00000  Uiso   1.00
O37    O     0.16666   0.10558   0.20487   0.00000  Uiso   1.00
O38    O     0.27084   0.02019   0.09208   0.00000  Uiso   1.00
O39    O     0.06418   0.25968   0.19117   0.00000  Uiso   1.00
O40    O     0.06249   0.31314   0.24126   0.00000  Uiso   1.00
O41    O     0.16667   0.22775   0.12846   0.00000  Uiso   1.00
O42    O     0.16666   0.10559   0.12843   0.00000  Uiso   1.00
O43    O     0.16667   0.22774   0.20490   0.00000  Uiso   1.00
O44    O     0.09058   0.16666   0.19595   0.00000  Uiso   1.00
O45    O     0.24275   0.16667   0.13739   0.00000  Uiso   1.00
O46    O     0.09058   0.16667   0.11950   0.00000  Uiso   1.00
O47    O     0.24275   0.16666   0.21383   0.00000  Uiso   1.00
O48    O     0.26916   0.07365   0.14216   0.00000  Uiso   1.00
Zn49   Zn    0.16667   0.16666   0.21771   0.00000  Uiso   1.00
Zn50   Zn    0.16667   0.16667   0.11563   0.00000  Uiso   1.00
C51    C     0.50164   0.08685   0.16685   0.00000  Uiso   1.00
C52    C     0.46452   0.02267   0.18786   0.00000  Uiso   1.00
C53    C     0.49715   0.29068   0.16607   0.00000  Uiso   1.00
C54    C     0.50285   0.04266   0.16726   0.00000  Uiso   1.00
C55    C     0.53789   0.18772   0.02987   0.00000  Uiso   1.00
C56    C     0.46211   0.14562   0.30346   0.00000  Uiso   1.00
C57    C     0.53837   0.18785   0.31552   0.00000  Uiso   1.00
C58    C     0.46163   0.14548   0.01781   0.00000  Uiso   1.00
C59    C     0.58334   0.04039   0.12689   0.00000  Uiso   1.00
C60    C     0.41666   0.29294   0.20644   0.00000  Uiso   1.00
C61    C     0.58291   0.21067   0.29915   0.00000  Uiso   1.00
C62    C     0.49836   0.24649   0.16649   0.00000  Uiso   1.00
C63    C     0.41709   0.12266   0.03419   0.00000  Uiso   1.00
C64    C     0.40037   0.16641   0.15458   0.00000  Uiso   1.00
C65    C     0.59963   0.16692   0.17875   0.00000  Uiso   1.00
C66    C     0.34511   0.16642   0.14824   0.00000  Uiso   1.00
C67    C     0.65489   0.16692   0.18509   0.00000  Uiso   1.00
C68    C     0.53944   0.02040   0.14622   0.00000  Uiso   1.00
C69    C     0.46056   0.31293   0.18712   0.00000  Uiso   1.00
C70    C     0.53548   0.31067   0.14547   0.00000  Uiso   1.00
H71    H     0.65733   0.16605   0.11344   0.00000  Uiso   1.00
H72    H     0.60425   0.23153   0.32609   0.00000  Uiso   1.00
H73    H     0.61199   0.18782   0.29050   0.00000  Uiso   1.00
H74    H     0.43158   0.10247   0.06350   0.00000  Uiso   1.00
H75    H     0.38801   0.14552   0.04283   0.00000  Uiso   1.00
H76    H     0.39575   0.10180   0.00724   0.00000  Uiso   1.00
H77    H     0.34267   0.16728   0.21990   0.00000  Uiso   1.00
H78    H     0.56366   0.29232   0.13043   0.00000  Uiso   1.00
H79    H     0.43634   0.04101   0.20290   0.00000  Uiso   1.00
H80    H     0.56815   0.20424   0.05292   0.00000  Uiso   1.00
H81    H     0.43185   0.12910   0.28041   0.00000  Uiso   1.00
H82    H     0.63427   0.03650   0.08213   0.00000  Uiso   1.00
H83    H     0.36573   0.29684   0.25120   0.00000  Uiso   1.00
H84    H     0.56842   0.23086   0.26984   0.00000  Uiso   1.00
N85    N     0.49999   0.16666   0.28573   0.00000  Uiso   1.00
N86    N     0.50001   0.16668   0.04760   0.00000  Uiso   1.00
O87    O     0.50000   0.10558   0.20487   0.00000  Uiso   1.00
O88    O     0.60418   0.02019   0.09208   0.00000  Uiso   1.00
O89    O     0.39751   0.25968   0.19117   0.00000  Uiso   1.00
O90    O     0.39582   0.31314   0.24126   0.00000  Uiso   1.00
O91    O     0.50000   0.22775   0.12846   0.00000  Uiso   1.00
O92    O     0.50000   0.10559   0.12843   0.00000  Uiso   1.00
O93    O     0.50000   0.22774   0.20490   0.00000  Uiso   1.00
O94    O     0.42392   0.16666   0.19595   0.00000  Uiso   1.00
O95    O     0.57608   0.16667   0.13739   0.00000  Uiso   1.00
O96    O     0.42392   0.16667   0.11950   0.00000  Uiso   1.00
O97    O     0.57608   0.16666   0.21383   0.00000  Uiso   1.00
O98    O     0.60249   0.07365   0.14216   0.00000  Uiso   1.00
Zn99   Zn    0.50000   0.16666   0.21771   0.00000  Uiso   1.00
Zn100  Zn    0.50000   0.16667   0.11563   0.00000  Uiso   1.00
C101   C     0.83497   0.08685   0.16685   0.00000  Uiso   1.00
C102   C     0.79785   0.02267   0.18786   0.00000  Uiso   1.00
C103   C     0.83048   0.29068   0.16607   0.00000  Uiso   1.00
C104   C     0.83618   0.04266   0.16726   0.00000  Uiso   1.00
C105   C     0.87122   0.18772   0.02987   0.00000  Uiso   1.00
C106   C     0.79544   0.14562   0.30346   0.00000  Uiso   1.00
C107   C     0.87170   0.18785   0.31552   0.00000  Uiso   1.00
C108   C     0.79496   0.14548   0.01781   0.00000  Uiso   1.00
C109   C     0.91667   0.04039   0.12689   0.00000  Uiso   1.00
C110   C     0.74999   0.29294   0.20644   0.00000  Uiso   1.00
C111   C     0.91625   0.21067   0.29915   0.00000  Uiso   1.00
C112   C     0.83169   0.24649   0.16649   0.00000  Uiso   1.00
C113   C     0.75042   0.12266   0.03419   0.00000  Uiso   1.00
C114   C     0.73370   0.16641   0.15458   0.00000  Uiso   1.00
C115   C     0.93296   0.16692   0.17875   0.00000  Uiso   1.00
C116   C     0.67844   0.16642   0.14824   0.00000  Uiso   1.00
C117   C     0.98823   0.16692   0.18509   0.00000  Uiso   1.00
C118   C     0.87278   0.02040   0.14622   0.00000  Uiso   1.00
C119   C     0.79389   0.31293   0.18712   0.00000  Uiso   1.00
C120   C     0.86882   0.31067   0.14547   0.00000  Uiso   1.00
H121   H     0.99066   0.16605   0.11344   0.00000  Uiso   1.00
H122   H     0.93758   0.23153   0.32609   0.00000  Uiso   1.00
H123   H     0.94532   0.18782   0.29050   0.00000  Uiso   1.00
H124   H     0.76492   0.10247   0.06350   0.00000  Uiso   1.00
H125   H     0.72134   0.14552   0.04283   0.00000  Uiso   1.00
H126   H     0.72909   0.10180   0.00724   0.00000  Uiso   1.00
H127   H     0.67600   0.16728   0.21990   0.00000  Uiso   1.00
H128   H     0.89700   0.29232   0.13043   0.00000  Uiso   1.00
H129   H     0.76967   0.04101   0.20290   0.00000  Uiso   1.00
H130   H     0.90149   0.20424   0.05292   0.00000  Uiso   1.00
H131   H     0.76518   0.12910   0.28041   0.00000  Uiso   1.00
H132   H     0.96761   0.03650   0.08213   0.00000  Uiso   1.00
H133   H     0.69906   0.29684   0.25120   0.00000  Uiso   1.00
H134   H     0.90175   0.23086   0.26984   0.00000  Uiso   1.00
N135   N     0.83332   0.16666   0.28573   0.00000  Uiso   1.00
N136   N     0.83335   0.16668   0.04760   0.00000  Uiso   1.00
O137   O     0.83333   0.10558   0.20487   0.00000  Uiso   1.00
O138   O     0.93751   0.02019   0.09208   0.00000  Uiso   1.00
O139   O     0.73084   0.25968   0.19117   0.00000  Uiso   1.00
O140   O     0.72916   0.31314   0.24126   0.00000  Uiso   1.00
O141   O     0.83334   0.22775   0.12846   0.00000  Uiso   1.00
O142   O     0.83333   0.10559   0.12843   0.00000  Uiso   1.00
O143   O     0.83334   0.22774   0.20490   0.00000  Uiso   1.00
O144   O     0.75725   0.16666   0.19595   0.00000  Uiso   1.00
O145   O     0.90942   0.16667   0.13739   0.00000  Uiso   1.00
O146   O     0.75725   0.16667   0.11950   0.00000  Uiso   1.00
O147   O     0.90942   0.16666   0.21383   0.00000  Uiso   1.00
O148   O     0.93582   0.07365   0.14216   0.00000  Uiso   1.00
Zn149  Zn    0.83333   0.16666   0.21771   0.00000  Uiso   1.00
Zn150  Zn    0.83333   0.16667   0.11563   0.00000  Uiso   1.00
C151   C     0.16831   0.42018   0.16685   0.00000  Uiso   1.00
C152   C     0.13118   0.35600   0.18786   0.00000  Uiso   1.00
C153   C     0.16382   0.62401   0.16607   0.00000  Uiso   1.00
C154   C     0.16952   0.37599   0.16726   0.00000  Uiso   1.00
C155   C     0.20456   0.52105   0.02987   0.00000  Uiso   1.00
C156   C     0.12878   0.47895   0.30346   0.00000  Uiso   1.00
C157   C     0.20504   0.52118   0.31552   0.00000  Uiso   1.00
C158   C     0.12830   0.47882   0.01781   0.00000  Uiso   1.00
C159   C     0.25001   0.37372   0.12689   0.00000  Uiso   1.00
C160   C     0.08333   0.62628   0.20644   0.00000  Uiso   1.00
C161   C     0.24958   0.54400   0.29915   0.00000  Uiso   1.00
C162   C     0.16503   0.57982   0.16649   0.00000  Uiso   1.00
C163   C     0.08375   0.45600   0.03419   0.00000  Uiso   1.00
C164   C     0.06704   0.49975   0.15458   0.00000  Uiso   1.00
C165   C     0.26630   0.50025   0.17875   0.00000  Uiso   1.00
C166   C     0.01177   0.49975   0.14824   0.00000  Uiso   1.00
C167   C     0.32156   0.50025   0.18509   0.00000  Uiso   1.00
C168   C     0.20611   0.35373   0.14622   0.00000  Uiso   1.00
C169   C     0.12722   0.64627   0.18712   0.00000  Uiso   1.00
C170   C     0.20215   0.64400   0.14547   0.00000  Uiso   1.00
H171   H     0.32400   0.49938   0.11344   0.00000  Uiso   1.00
H172   H     0.27091   0.56486   0.32609   0.00000  Uiso   1.00
H173   H     0.27866   0.52115   0.29050   0.00000  Uiso   1.00
H174   H     0.09825   0.43580   0.06350   0.00000  Uiso   1.00
H175   H     0.05468   0.47885   0.04283   0.00000  Uiso   1.00
H176   H     0.06242   0.43514   0.00724   0.00000  Uiso   1.00
H177   H     0.00934   0.50062   0.21990   0.00000  Uiso   1.00
H178   H     0.23033   0.62565   0.13043   0.00000  Uiso   1.00
H179   H     0.10300   0.37435   0.20290   0.00000  Uiso   1.00
H180   H     0.23482   0.53757   0.05292   0.00000  Uiso   1.00
H181   H     0.09851   0.46243   0.28041   0.00000  Uiso   1.00
H182   H     0.30094   0.36983   0.08213   0.00000  Uiso   1.00
H183   H     0.03239   0.63017   0.25120   0.00000  Uiso   1.00
H184   H     0.23508   0.56420   0.26984   0.00000  Uiso   1.00
N185   N     0.16665   0.49999   0.28573   0.00000  Uiso   1.00
N186   N     0.16668   0.50001   0.04760   0.00000  Uiso   1.00
O187   O     0.16666   0.43892   0.20487   0.00000  Uiso   1.00
O188   O     0.27084   0.35352   0.09208   0.00000  Uiso   1.00
O189   O     0.06418   0.59301   0.19117   0.00000  Uiso   1.00
O190   O     0.06249   0.64648   0.24126   0.00000  Uiso   1.00
O191   O     0.16667   0.56108   0.12846   0.00000  Uiso   1.00
O192   O     0.16666   0.43893   0.12843   0.00000  Uiso   1.00
O193   O     0.16667   0.56107   0.20490   0.00000  Uiso   1.00
O194   O     0.09058   0.50000   0.19595   0.00000  Uiso   1.00
O195   O     0.24275   0.50000   0.13739   0.00000  Uiso   1.00
O196   O     0.09058   0.50000   0.11950   0.00000  Uiso   1.00
O197   O     0.24275   0.50000   0.21383   0.00000  Uiso   1.00
O198   O     0.26916   0.40699   0.14216   0.00000  Uiso   1.00
Zn199  Zn    0.16667   0.49999   0.21771   0.00000  Uiso   1.00
Zn200  Zn    0.16667   0.50001   0.11563   0.00000  Uiso   1.00
C201   C     0.50164   0.42018   0.16685   0.00000  Uiso   1.00
C202   C     0.46452   0.35600   0.18786   0.00000  Uiso   1.00
C203   C     0.49715   0.62401   0.16607   0.00000  Uiso   1.00
C204   C     0.50285   0.37599   0.16726   0.00000  Uiso   1.00
C205   C     0.53789   0.52105   0.02987   0.00000  Uiso   1.00
C206   C     0.46211   0.47895   0.30346   0.00000  Uiso   1.00
C207   C     0.53837   0.52118   0.31552   0.00000  Uiso   1.00
C208   C     0.46163   0.47882   0.01781   0.00000  Uiso   1.00
C209   C     0.58334   0.37372   0.12689   0.00000  Uiso   1.00
C210   C     0.41666   0.62628   0.20644   0.00000  Uiso   1.00
C211   C     0.58291   0.54400   0.29915   0.00000  Uiso   1.00
C212   C     0.49836   0.57982   0.16649   0.00000  Uiso   1.00
C213   C     0.41709   0.45600   0.03419   0.00000  Uiso   1.00
C214   C     0.40037   0.49975   0.15458   0.00000  Uiso   1.00
C215   C     0.59963   0.50025   0.17875   0.00000  Uiso   1.00
C216   C     0.34511   0.49975   0.14824   0.00000  Uiso   1.00
C217   C     0.65489   0.50025   0.18509   0.00000  Uiso   1.00
C218   C     0.53944   0.35373   0.14622   0.00000  Uiso   1.00
C219   C     0.46056   0.64627   0.18712   0.00000  Uiso   1.00
C220   C     0.53548   0.64400   0.14547   0.00000  Uiso   1.00
H221   H     0.65733   0.49938   0.11344   0.00000  Uiso   1.00
H222   H     0.60425   0.56486   0.32609   0.00000  Uiso   1.00
H223   H     0.61199   0.52115   0.29050   0.00000  Uiso   1.00
H224   H     0.43158   0.43580   0.06350   0.00000  Uiso   1.00
H225   H     0.38801   0.47885   0.04283   0.00000  Uiso   1.00
H226   H     0.39575   0.43514   0.00724   0.00000  Uiso   1.00
H227   H     0.34267   0.50062   0.21990   0.00000  Uiso   1.00
H228   H     0.56366   0.62565   0.13043   0.00000  Uiso   1.00
H229   H     0.43634   0.37435   0.20290   0.00000  Uiso   1.00
H230   H     0.56815   0.53757   0.05292   0.00000  Uiso   1.00
H231   H     0.43185   0.46243   0.28041   0.00000  Uiso   1.00
H232   H     0.63427   0.36983   0.08213   0.00000  Uiso   1.00
H233   H     0.36573   0.63017   0.25120   0.00000  Uiso   1.00
H234   H     0.56842   0.56420   0.26984   0.00000  Uiso   1.00
N235   N     0.49999   0.49999   0.28573   0.00000  Uiso   1.00
N236   N     0.50001   0.50001   0.04760   0.00000  Uiso   1.00
O237   O     0.50000   0.43892   0.20487   0.00000  Uiso   1.00
O238   O     0.60418   0.35352   0.09208   0.00000  Uiso   1.00
O239   O     0.39751   0.59301   0.19117   0.00000  Uiso   1.00
O240   O     0.39582   0.64648   0.24126   0.00000  Uiso   1.00
O241   O     0.50000   0.56108   0.12846   0.00000  Uiso   1.00
O242   O     0.50000   0.43893   0.12843   0.00000  Uiso   1.00
O243   O     0.50000   0.56107   0.20490   0.00000  Uiso   1.00
O244   O     0.42392   0.50000   0.19595   0.00000  Uiso   1.00
O245   O     0.57608   0.50000   0.13739   0.00000  Uiso   1.00
O246   O     0.42392   0.50000   0.11950   0.00000  Uiso   1.00
O247   O     0.57608   0.50000   0.21383   0.00000  Uiso   1.00
O248   O     0.60249   0.40699   0.14216   0.00000  Uiso   1.00
Zn249  Zn    0.50000   0.49999   0.21771   0.00000  Uiso   1.00
Zn250  Zn    0.50000   0.50001   0.11563   0.00000  Uiso   1.00
C251   C     0.83497   0.42018   0.16685   0.00000  Uiso   1.00
C252   C     0.79785   0.35600   0.18786   0.00000  Uiso   1.00
C253   C     0.83048   0.62401   0.16607   0.00000  Uiso   1.00
C254   C     0.83618   0.37599   0.16726   0.00000  Uiso   1.00
C255   C     0.87122   0.52105   0.02987   0.00000  Uiso   1.00
C256   C     0.79544   0.47895   0.30346   0.00000  Uiso   1.00
C257   C     0.87170   0.52118   0.31552   0.00000  Uiso   1.00
C258   C     0.79496   0.47882   0.01781   0.00000  Uiso   1.00
C259   C     0.91667   0.37372   0.12689   0.00000  Uiso   1.00
C260   C     0.74999   0.62628   0.20644   0.00000  Uiso   1.00
C261   C     0.91625   0.54400   0.29915   0.00000  Uiso   1.00
C262   C     0.83169   0.57982   0.16649   0.00000  Uiso   1.00
C263   C     0.75042   0.45600   0.03419   0.00000  Uiso   1.00
C264   C     0.73370   0.49975   0.15458   0.00000  Uiso   1.00
C265   C     0.93296   0.50025   0.17875   0.00000  Uiso   1.00
C266   C     0.67844   0.49975   0.14824   0.00000  Uiso   1.00
C267   C     0.98823   0.50025   0.18509   0.00000  Uiso   1.00
C268   C     0.87278   0.35373   0.14622   0.00000  Uiso   1.00
C269   C     0.79389   0.64627   0.18712   0.00000  Uiso   1.00
C270   C     0.86882   0.64400   0.14547   0.00000  Uiso   1.00
H271   H     0.99066   0.49938   0.11344   0.00000  Uiso   1.00
H272   H     0.93758   0.56486   0.32609   0.00000  Uiso   1.00
H273   H     0.94532   0.52115   0.29050   0.00000  Uiso   1.00
H274   H     0.76492   0.43580   0.06350   0.00000  Uiso   1.00
H275   H     0.72134   0.47885   0.04283   0.00000  Uiso   1.00
H276   H     0.72909   0.43514   0.00724   0.00000  Uiso   1.00
H277   H     0.67600   0.50062   0.21990   0.00000  Uiso   1.00
H278   H     0.89700   0.62565   0.13043   0.00000  Uiso   1.00
H279   H     0.76967   0.37435   0.20290   0.00000  Uiso   1.00
H280   H     0.90149   0.53757   0.05292   0.00000  Uiso   1.00
H281   H     0.76518   0.46243   0.28041   0.00000  Uiso   1.00
H282   H     0.96761   0.36983   0.08213   0.00000  Uiso   1.00
H283   H     0.69906   0.63017   0.25120   0.00000  Uiso   1.00
H284   H     0.90175   0.56420   0.26984   0.00000  Uiso   1.00
N285   N     0.83332   0.49999   0.28573   0.00000  Uiso   1.00
N286   N     0.83335   0.50001   0.04760   0.00000  Uiso   1.00
O287   O     0.83333   0.43892   0.20487   0.00000  Uiso   1.00
O288   O     0.93751   0.35352   0.09208   0.00000  Uiso   1.00
O289   O     0.73084   0.59301   0.19117   0.00000  Uiso   1.00
O290   O     0.72916   0.64648   0.24126   0.00000  Uiso   1.00
O291   O     0.83334   0.56108   0.12846   0.00000  Uiso   1.00
O292   O     0.83333   0.43893   0.12843   0.00000  Uiso   1.00
O293   O     0.83334   0.56107   0.20490   0.00000  Uiso   1.00
O294   O     0.75725   0.50000   0.19595   0.00000  Uiso   1.00
O295   O     0.90942   0.50000   0.13739   0.00000  Uiso   1.00
O296   O     0.75725   0.50000   0.11950   0.00000  Uiso   1.00
O297   O     0.90942   0.50000   0.21383   0.00000  Uiso   1.00
O298   O     0.93582   0.40699   0.14216   0.00000  Uiso   1.00
Zn299  Zn    0.83333   0.49999   0.21771   0.00000  Uiso   1.00
Zn300  Zn    0.83333   0.50001   0.11563   0.00000  Uiso   1.00
C301   C     0.16831   0.75351   0.16685   0.00000  Uiso   1.00
C302   C     0.13118   0.68933   0.18786   0.00000  Uiso   1.00
C303   C     0.16382   0.95734   0.16607   0.00000  Uiso   1.00
C304   C     0.16952   0.70932   0.16726   0.00000  Uiso   1.00
C305   C     0.20456   0.85438   0.02987   0.00000  Uiso   1.00
C306   C     0.12878   0.81228   0.30346   0.00000  Uiso   1.00
C307   C     0.20504   0.85452   0.31552   0.00000  Uiso   1.00
C308   C     0.12830   0.81215   0.01781   0.00000  Uiso   1.00
C309   C     0.25001   0.70706   0.12689   0.00000  Uiso   1.00
C310   C     0.08333   0.95961   0.20644   0.00000  Uiso   1.00
C311   C     0.24958   0.87734   0.29915   0.00000  Uiso   1.00
C312   C     0.16503   0.91315   0.16649   0.00000  Uiso   1.00
C313   C     0.08375   0.78933   0.03419   0.00000  Uiso   1.00
C314   C     0.06704   0.83308   0.15458   0.00000  Uiso   1.00
C315   C     0.26630   0.83359   0.17875   0.00000  Uiso   1.00
C316   C     0.01177   0.83308   0.14824   0.00000  Uiso   1.00
C317   C     0.32156   0.83358   0.18509   0.00000  Uiso   1.00
C318   C     0.20611   0.68707   0.14622   0.00000  Uiso   1.00
C319   C     0.12722   0.97960   0.18712   0.00000  Uiso   1.00
C320   C     0.20215   0.97733   0.14547   0.00000  Uiso   1.00
H321   H     0.32400   0.83272   0.11344   0.00000  Uiso   1.00
H322   H     0.27091   0.89819   0.32609   0.00000  Uiso   1.00
H323   H     0.27866   0.85448   0.29050   0.00000  Uiso   1.00
H324   H     0.09825   0.76914   0.06350   0.00000  Uiso   1.00
H325   H     0.05468   0.81218   0.04283   0.00000  Uiso   1.00
H326   H     0.06242   0.76847   0.00724   0.00000  Uiso   1.00
H327   H     0.00934   0.83395   0.21990   0.00000  Uiso   1.00
H328   H     0.23033   0.95899   0.13043   0.00000  Uiso   1.00
H329   H     0.10300   0.70768   0.20290   0.00000  Uiso   1.00
H330   H     0.23482   0.87090   0.05292   0.00000  Uiso   1.00
H331   H     0.09851   0.79576   0.28041   0.00000  Uiso   1.00
H332   H     0.30094   0.70316   0.08213   0.00000  Uiso   1.00
H333   H     0.03239   0.96350   0.25120   0.00000  Uiso   1.00
H334   H     0.23508   0.89753   0.26984   0.00000  Uiso   1.00
N335   N     0.16665   0.83332   0.28573   0.00000  Uiso   1.00
N336   N     0.16668   0.83334   0.04760   0.00000  Uiso   1.00
O337   O     0.16666   0.77225   0.20487   0.00000  Uiso   1.00
O338   O     0.27084   0.68686   0.09208   0.00000  Uiso   1.00
O339   O     0.06418   0.92635   0.19117   0.00000  Uiso   1.00
O340   O     0.06249   0.97981   0.24126   0.00000  Uiso   1.00
O341   O     0.16667   0.89442   0.12846   0.00000  Uiso   1.00
O342   O     0.16666   0.77226   0.12843   0.00000  Uiso   1.00
O343   O     0.16667   0.89441   0.20490   0.00000  Uiso   1.00
O344   O     0.09058   0.83333   0.19595   0.00000  Uiso   1.00
O345   O     0.24275   0.83334   0.13739   0.00000  Uiso   1.00
O346   O     0.09058   0.83334   0.11950   0.00000  Uiso   1.00
O347   O     0.24275   0.83333   0.21383   0.00000  Uiso   1.00
O348   O     0.26916   0.74032   0.14216   0.00000  Uiso   1.00
Zn349  Zn    0.16667   0.83333   0.21771   0.00000  Uiso   1.00
Zn350  Zn    0.16667   0.83334   0.11563   0.00000  Uiso   1.00
C351   C     0.50164   0.75351   0.16685   0.00000  Uiso   1.00
C352   C     0.46452   0.68933   0.18786   0.00000  Uiso   1.00
C353   C     0.49715   0.95734   0.16607   0.00000  Uiso   1.00
C354   C     0.50285   0.70932   0.16726   0.00000  Uiso   1.00
C355   C     0.53789   0.85438   0.02987   0.00000  Uiso   1.00
C356   C     0.46211   0.81228   0.30346   0.00000  Uiso   1.00
C357   C     0.53837   0.85452   0.31552   0.00000  Uiso   1.00
C358   C     0.46163   0.81215   0.01781   0.00000  Uiso   1.00
C359   C     0.58334   0.70706   0.12689   0.00000  Uiso   1.00
C360   C     0.41666   0.95961   0.20644   0.00000  Uiso   1.00
C361   C     0.58291   0.87734   0.29915   0.00000  Uiso   1.00
C362   C     0.49836   0.91315   0.16649   0.00000  Uiso   1.00
C363   C     0.41709   0.78933   0.03419   0.00000  Uiso   1.00
C364   C     0.40037   0.83308   0.15458   0.00000  Uiso   1.00
C365   C     0.59963   0.83359   0.17875   0.00000  Uiso   1.00
C366   C     0.34511   0.83308   0.14824   0.00000  Uiso   1.00
C367   C     0.65489   0.83358   0.18509   0.00000  Uiso   1.00
C368   C     0.53944   0.68707   0.14622   0.00000  Uiso   1.00
C369   C     0.46056   0.97960   0.18712   0.00000  Uiso   1.00
C370   C     0.53548   0.97733   0.14547   0.00000  Uiso   1.00
H371   H     0.65733   0.83272   0.11344   0.00000  Uiso   1.00
H372   H     0.60425   0.89819   0.32609   0.00000  Uiso   1.00
H373   H     0.61199   0.85448   0.29050   0.00000  Uiso   1.00
H374   H     0.43158   0.76914   0.06350   0.00000  Uiso   1.00
H375   H     0.38801   0.81218   0.04283   0.00000  Uiso   1.00
H376   H     0.39575   0.76847   0.00724   0.00000  Uiso   1.00
H377   H     0.34267   0.83395   0.21990   0.00000  Uiso   1.00
H378   H     0.56366   0.95899   0.13043   0.00000  Uiso   1.00
H379   H     0.43634   0.70768   0.20290   0.00000  Uiso   1.00
H380   H     0.56815   0.87090   0.05292   0.00000  Uiso   1.00
H381   H     0.43185   0.79576   0.28041   0.00000  Uiso   1.00
H382   H     0.63427   0.70316   0.08213   0.00000  Uiso   1.00
H383   H     0.36573   0.96350   0.25120   0.00000  Uiso   1.00
H384   H     0.56842   0.89753   0.26984   0.00000  Uiso   1.00
N385   N     0.49999   0.83332   0.28573   0.00000  Uiso   1.00
N386   N     0.50001   0.83334   0.04760   0.00000  Uiso   1.00
O387   O     0.50000   0.77225   0.20487   0.00000  Uiso   1.00
O388   O     0.60418   0.68686   0.09208   0.00000  Uiso   1.00
O389   O     0.39751   0.92635   0.19117   0.00000  Uiso   1.00
O390   O     0.39582   0.97981   0.24126   0.00000  Uiso   1.00
O391   O     0.50000   0.89442   0.12846   0.00000  Uiso   1.00
O392   O     0.50000   0.77226   0.12843   0.00000  Uiso   1.00
O393   O     0.50000   0.89441   0.20490   0.00000  Uiso   1.00
O394   O     0.42392   0.83333   0.19595   0.00000  Uiso   1.00
O395   O     0.57608   0.83334   0.13739   0.00000  Uiso   1.00
O396   O     0.42392   0.83334   0.11950   0.00000  Uiso   1.00
O397   O     0.57608   0.83333   0.21383   0.00000  Uiso   1.00
O398   O     0.60249   0.74032   0.14216   0.00000  Uiso   1.00
Zn399  Zn    0.50000   0.83333   0.21771   0.00000  Uiso   1.00
Zn400  Zn    0.50000   0.83334   0.11563   0.00000  Uiso   1.00
C401   C     0.83497   0.75351   0.16685   0.00000  Uiso   1.00
C402   C     0.79785   0.68933   0.18786   0.00000  Uiso   1.00
C403   C     0.83048   0.95734   0.16607   0.00000  Uiso   1.00
C404   C     0.83618   0.70932   0.16726   0.00000  Uiso   1.00
C405   C     0.87122   0.85438   0.02987   0.00000  Uiso   1.00
C406   C     0.79544   0.81228   0.30346   0.00000  Uiso   1.00
C407   C     0.87170   0.85452   0.31552   0.00000  Uiso   1.00
C408   C     0.79496   0.81215   0.01781   0.00000  Uiso   1.00
C409   C     0.91667   0.70706   0.12689   0.00000  Uiso   1.00
C410   C     0.74999   0.95961   0.20644   0.00000  Uiso   1.00
C411   C     0.91625   0.87734   0.29915   0.00000  Uiso   1.00
C412   C     0.83169   0.91315   0.16649   0.00000  Uiso   1.00
C413   C     0.75042   0.78933   0.03419   0.00000  Uiso   1.00
C414   C     0.73370   0.83308   0.15458   0.00000  Uiso   1.00
C415   C     0.93296   0.83359   0.17875   0.00000  Uiso   1.00
C416   C     0.67844   0.83308   0.14824   0.00000  Uiso   1.00
C417   C     0.98823   0.83358   0.18509   0.00000  Uiso   1.00
C418   C     0.87278   0.68707   0.14622   0.00000  Uiso   1.00
C419   C     0.79389   0.97960   0.18712   0.00000  Uiso   1.00
C420   C     0.86882   0.97733   0.14547   0.00000  Uiso   1.00
H421   H     0.99066   0.83272   0.11344   0.00000  Uiso   1.00
H422   H     0.93758   0.89819   0.32609   0.00000  Uiso   1.00
H423   H     0.94532   0.85448   0.29050   0.00000  Uiso   1.00
H424   H     0.76492   0.76914   0.06350   0.00000  Uiso   1.00
H425   H     0.72134   0.81218   0.04283   0.00000  Uiso   1.00
H426   H     0.72909   0.76847   0.00724   0.00000  Uiso   1.00
H427   H     0.67600   0.83395   0.21990   0.00000  Uiso   1.00
H428   H     0.89700   0.95899   0.13043   0.00000  Uiso   1.00
H429   H     0.76967   0.70768   0.20290   0.00000  Uiso   1.00
H430   H     0.90149   0.87090   0.05292   0.00000  Uiso   1.00
H431   H     0.76518   0.79576   0.28041   0.00000  Uiso   1.00
H432   H     0.96761   0.70316   0.08213   0.00000  Uiso   1.00
H433   H     0.69906   0.96350   0.25120   0.00000  Uiso   1.00
H434   H     0.90175   0.89753   0.26984   0.00000  Uiso   1.00
N435   N     0.83332   0.83332   0.28573   0.00000  Uiso   1.00
N436   N     0.83335   0.83334   0.04760   0.00000  Uiso   1.00
O437   O     0.83333   0.77225   0.20487   0.00000  Uiso   1.00
O438   O     0.93751   0.68686   0.09208   0.00000  Uiso   1.00
O439   O     0.73084   0.92635   0.19117   0.00000  Uiso   1.00
O440   O     0.72916   0.97981   0.24126   0.00000  Uiso   1.00
O441   O     0.83334   0.89442   0.12846   0.00000  Uiso   1.00
O442   O     0.83333   0.77226   0.12843   0.00000  Uiso   1.00
O443   O     0.83334   0.89441   0.20490   0.00000  Uiso   1.00
O444   O     0.75725   0.83333   0.19595   0.00000  Uiso   1.00
O445   O     0.90942   0.83334   0.13739   0.00000  Uiso   1.00
O446   O     0.75725   0.83334   0.11950   0.00000  Uiso   1.00
O447   O     0.90942   0.83333   0.21383   0.00000  Uiso   1.00
O448   O     0.93582   0.74032   0.14216   0.00000  Uiso   1.00
Zn449  Zn    0.83333   0.83333   0.21771   0.00000  Uiso   1.00
Zn450  Zn    0.83333   0.83334   0.11563   0.00000  Uiso   1.00
C451   C     0.16831   0.08685   0.50018   0.00000  Uiso   1.00
C452   C     0.13118   0.02267   0.52119   0.00000  Uiso   1.00
C453   C     0.16382   0.29068   0.49941   0.00000  Uiso   1.00
C454   C     0.16952   0.04266   0.50059   0.00000  Uiso   1.00
C455   C     0.20456   0.18772   0.36320   0.00000  Uiso   1.00
C456   C     0.12878   0.14562   0.63680   0.00000  Uiso   1.00
C457   C     0.20504   0.18785   0.64886   0.00000  Uiso   1.00
C458   C     0.12830   0.14548   0.35114   0.00000  Uiso   1.00
C459   C     0.25001   0.04039   0.46023   0.00000  Uiso   1.00
C460   C     0.08333   0.29294   0.53977   0.00000  Uiso   1.00
C461   C     0.24958   0.21067   0.63248   0.00000  Uiso   1.00
C462   C     0.16503   0.24649   0.49982   0.00000  Uiso   1.00
C463   C     0.08375   0.12266   0.36752   0.00000  Uiso   1.00
C464   C     0.06704   0.16641   0.48791   0.00000  Uiso   1.00
C465   C     0.26630   0.16692   0.51209   0.00000  Uiso   1.00
C466   C     0.01177   0.16642   0.48157   0.00000  Uiso   1.00
C467   C     0.32156   0.16692   0.51843   0.00000  Uiso   1.00
C468   C     0.20611   0.02040   0.47955   0.00000  Uiso   1.00
C469   C     0.12722   0.31293   0.52045   0.00000  Uiso   1.00
C470   C     0.20215   0.31067   0.47881   0.00000  Uiso   1.00
H471   H     0.32400   0.16605   0.44677   0.00000  Uiso   1.00
H472   H     0.27091   0.23153   0.65942   0.00000  Uiso   1.00
H473   H     0.27866   0.18782   0.62383   0.00000  Uiso   1.00
H474   H     0.09825   0.10247   0.39683   0.00000  Uiso   1.00
H475   H     0.05468   0.14552   0.37617   0.00000  Uiso   1.00
H476   H     0.06242   0.10180   0.34058   0.00000  Uiso   1.00
H477   H     0.00934   0.16728   0.55323   0.00000  Uiso   1.00
H478   H     0.23033   0.29232   0.46377   0.00000  Uiso   1.00
H479   H     0.10300   0.04101   0.53623   0.00000  Uiso   1.00
H480   H     0.23482   0.20424   0.38625   0.00000  Uiso   1.00
H481   H     0.09851   0.12910   0.61375   0.00000  Uiso   1.00
H482   H     0.30094   0.03650   0.41546   0.00000  Uiso   1.00
H483   H     0.03239   0.29684   0.58454   0.00000  Uiso   1.00
H484   H     0.23508   0.23086   0.60317   0.00000  Uiso   1.00
N485   N     0.16665   0.16666   0.61907   0.00000  Uiso   1.00
N486   N     0.16668   0.16668   0.38093   0.00000  Uiso   1.00
O487   O     0.16666   0.10558   0.53821   0.00000  Uiso   1.00
O488   O     0.27084   0.02019   0.42541   0.00000  Uiso   1.00
O489   O     0.06418   0.25968   0.52450   0.00000  Uiso   1.00
O490   O     0.06249   0.31314   0.57459   0.00000  Uiso   1.00
O491   O     0.16667   0.22775   0.46179   0.00000  Uiso   1.00
O492   O     0.16666   0.10559   0.46176   0.00000  Uiso   1.00
O493   O     0.16667   0.22774   0.53824   0.00000  Uiso   1.00
O494   O     0.09058   0.16666   0.52928   0.00000  Uiso   1.00
O495   O     0.24275   0.16667   0.47072   0.00000  Uiso   1.00
O496   O     0.09058   0.16667   0.45284   0.00000  Uiso   1.00
O497   O     0.24275   0.16666   0.54716   0.00000  Uiso   1.00
O498   O     0.26916   0.07365   0.47550   0.00000  Uiso   1.00
Zn499  Zn    0.16667   0.16666   0.55104   0.00000  Uiso   1.00
Zn500  Zn    0.16667   0.16667   0.44896   0.00000  Uiso   1.00
C501   C     0.50164   0.08685   0.50018   0.00000  Uiso   1.00
C502   C     0.46452   0.02267   0.52119   0.00000  Uiso   1.00
C503   C     0.49715   0.29068   0.49941   0.00000  Uiso   1.00
C504   C     0.50285   0.04266   0.50059   0.00000  Uiso   1.00
C505   C     0.53789   0.18772   0.36320   0.00000  Uiso   1.00
C506   C     0.46211   0.14562   0.63680   0.00000  Uiso   1.00
C507   C     0.53837   0.18785   0.64886   0.00000  Uiso   1.00
C508   C     0.46163   0.14548   0.35114   0.00000  Uiso   1.00
C509   C     0.58334   0.04039   0.46023   0.00000  Uiso   1.00
C510   C     0.41666   0.29294   0.53977   0.00000  Uiso   1.00
C511   C     0.58291   0.21067   0.63248   0.00000  Uiso   1.00
C512   C     0.49836   0.24649   0.49982   0.00000  Uiso   1.00
C513   C     0.41709   0.12266   0.36752   0.00000  Uiso   1.00
C514   C     0.40037   0.16641   0.48791   0.00000  Uiso   1.00
C515   C     0.59963   0.16692   0.51209   0.00000  Uiso   1.00
C516   C     0.34511   0.16642   0.48157   0.00000  Uiso   1.00
C517   C     0.65489   0.16692   0.51843   0.00000  Uiso   1.00
C518   C     0.53944   0.02040   0.47955   0.00000  Uiso   1.00
C519   C     0.46056   0.31293   0.52045   0.00000  Uiso   1.00
C520   C     0.53548   0.31067   0.47881   0.00000  Uiso   1.00
H521   H     0.65733   0.16605   0.44677   0.00000  Uiso   1.00
H522   H     0.60425   0.23153   0.65942   0.00000  Uiso   1.00
H523   H     0.61199   0.18782   0.62383   0.00000  Uiso   1.00
H524   H     0.43158   0.10247   0.39683   0.00000  Uiso   1.00
H525   H     0.38801   0.14552   0.37617   0.00000  Uiso   1.00
H526   H     0.39575   0.10180   0.34058   0.00000  Uiso   1.00
H527   H     0.34267   0.16728   0.55323   0.00000  Uiso   1.00
H528   H     0.56366   0.29232   0.46377   0.00000  Uiso   1.00
H529   H     0.43634   0.04101   0.53623   0.00000  Uiso   1.00
H530   H     0.56815   0.20424   0.38625   0.00000  Uiso   1.00
H531   H     0.43185   0.12910   0.61375   0.00000  Uiso   1.00
H532   H     0.63427   0.03650   0.41546   0.00000  Uiso   1.00
H533   H     0.36573   0.29684   0.58454   0.00000  Uiso   1.00
H534   H     0.56842   0.23086   0.60317   0.00000  Uiso   1.00
N535   N     0.49999   0.16666   0.61907   0.00000  Uiso   1.00
N536   N     0.50001   0.16668   0.38093   0.00000  Uiso   1.00
O537   O     0.50000   0.10558   0.53821   0.00000  Uiso   1.00
O538   O     0.60418   0.02019   0.42541   0.00000  Uiso   1.00
O539   O     0.39751   0.25968   0.52450   0.00000  Uiso   1.00
O540   O     0.39582   0.31314   0.57459   0.00000  Uiso   1.00
O541   O     0.50000   0.22775   0.46179   0.00000  Uiso   1.00
O542   O     0.50000   0.10559   0.46176   0.00000  Uiso   1.00
O543   O     0.50000   0.22774   0.53824   0.00000  Uiso   1.00
O544   O     0.42392   0.16666   0.52928   0.00000  Uiso   1.00
O545   O     0.57608   0.16667   0.47072   0.00000  Uiso   1.00
O546   O     0.42392   0.16667   0.45284   0.00000  Uiso   1.00
O547   O     0.57608   0.16666   0.54716   0.00000  Uiso   1.00
O548   O     0.60249   0.07365   0.47550   0.00000  Uiso   1.00
Zn549  Zn    0.50000   0.16666   0.55104   0.00000  Uiso   1.00
Zn550  Zn    0.50000   0.16667   0.44896   0.00000  Uiso   1.00
C551   C     0.83497   0.08685   0.50018   0.00000  Uiso   1.00
C552   C     0.79785   0.02267   0.52119   0.00000  Uiso   1.00
C553   C     0.83048   0.29068   0.49941   0.00000  Uiso   1.00
C554   C     0.83618   0.04266   0.50059   0.00000  Uiso   1.00
C555   C     0.87122   0.18772   0.36320   0.00000  Uiso   1.00
C556   C     0.79544   0.14562   0.63680   0.00000  Uiso   1.00
C557   C     0.87170   0.18785   0.64886   0.00000  Uiso   1.00
C558   C     0.79496   0.14548   0.35114   0.00000  Uiso   1.00
C559   C     0.91667   0.04039   0.46023   0.00000  Uiso   1.00
C560   C     0.74999   0.29294   0.53977   0.00000  Uiso   1.00
C561   C     0.91625   0.21067   0.63248   0.00000  Uiso   1.00
C562   C     0.83169   0.24649   0.49982   0.00000  Uiso   1.00
C563   C     0.75042   0.12266   0.36752   0.00000  Uiso   1.00
C564   C     0.73370   0.16641   0.48791   0.00000  Uiso   1.00
C565   C     0.93296   0.16692   0.51209   0.00000  Uiso   1.00
C566   C     0.67844   0.16642   0.48157   0.00000  Uiso   1.00
C567   C     0.98823   0.16692   0.51843   0.00000  Uiso   1.00
C568   C     0.87278   0.02040   0.47955   0.00000  Uiso   1.00
C569   C     0.79389   0.31293   0.52045   0.00000  Uiso   1.00
C570   C     0.86882   0.31067   0.47881   0.00000  Uiso   1.00
H571   H     0.99066   0.16605   0.44677   0.00000  Uiso   1.00
H572   H     0.93758   0.23153   0.65942   0.00000  Uiso   1.00
H573   H     0.94532   0.18782   0.62383   0.00000  Uiso   1.00
H574   H     0.76492   0.10247   0.39683   0.00000  Uiso   1.00
H575   H     0.72134   0.14552   0.37617   0.00000  Uiso   1.00
H576   H     0.72909   0.10180   0.34058   0.00000  Uiso   1.00
H577   H     0.67600   0.16728   0.55323   0.00000  Uiso   1.00
H578   H     0.89700   0.29232   0.46377   0.00000  Uiso   1.00
H579   H     0.76967   0.04101   0.53623   0.00000  Uiso   1.00
H580   H     0.90149   0.20424   0.38625   0.00000  Uiso   1.00
H581   H     0.76518   0.12910   0.61375   0.00000  Uiso   1.00
H582   H     0.96761   0.03650   0.41546   0.00000  Uiso   1.00
H583   H     0.69906   0.29684   0.58454   0.00000  Uiso   1.00
H584   H     0.90175   0.23086   0.60317   0.00000  Uiso   1.00
N585   N     0.83332   0.16666   0.61907   0.00000  Uiso   1.00
N586   N     0.83335   0.16668   0.38093   0.00000  Uiso   1.00
O587   O     0.83333   0.10558   0.53821   0.00000  Uiso   1.00
O588   O     0.93751   0.02019   0.42541   0.00000  Uiso   1.00
O589   O     0.73084   0.25968   0.52450   0.00000  Uiso   1.00
O590   O     0.72916   0.31314   0.57459   0.00000  Uiso   1.00
O591   O     0.83334   0.22775   0.46179   0.00000  Uiso   1.00
O592   O     0.83333   0.10559   0.46176   0.00000  Uiso   1.00
O593   O     0.83334   0.22774   0.53824   0.00000  Uiso   1.00
O594   O     0.75725   0.16666   0.52928   0.00000  Uiso   1.00
O595   O     0.90942   0.16667   0.47072   0.00000  Uiso   1.00
O596   O     0.75725   0.16667   0.45284   0.00000  Uiso   1.00
O597   O     0.90942   0.16666   0.54716   0.00000  Uiso   1.00
O598   O     0.93582   0.07365   0.47550   0.00000  Uiso   1.00
Zn599  Zn    0.83333   0.16666   0.55104   0.00000  Uiso   1.00
Zn600  Zn    0.83333   0.16667   0.44896   0.00000  Uiso   1.00
C601   C     0.16831   0.42018   0.50018   0.00000  Uiso   1.00
C602   C     0.13118   0.35600   0.52119   0.00000  Uiso   1.00
C603   C     0.16382   0.62401   0.49941   0.00000  Uiso   1.00
C604   C     0.16952   0.37599   0.50059   0.00000  Uiso   1.00
C605   C     0.20456   0.52105   0.36320   0.00000  Uiso   1.00
C606   C     0.12878   0.47895   0.63680   0.00000  Uiso   1.00
C607   C     0.20504   0.52118   0.64886   0.00000  Uiso   1.00
C608   C     0.12830   0.47882   0.35114   0.00000  Uiso   1.00
C609   C     0.25001   0.37372   0.46023   0.00000  Uiso   1.00
C610   C     0.08333   0.62628   0.53977   0.00000  Uiso   1.00
C611   C     0.24958   0.54400   0.63248   0.00000  Uiso   1.00
C612   C     0.16503   0.57982   0.49982   0.00000  Uiso   1.00
C613   C     0.08375   0.45600   0.36752   0.00000  Uiso   1.00
C614   C     0.06704   0.49975   0.48791   0.00000  Uiso   1.00
C615   C     0.26630   0.50025   0.51209   0.00000  Uiso   1.00
C616   C     0.01177   0.49975   0.48157   0.00000  Uiso   1.00
C617   C     0.32156   0.50025   0.51843   0.00000  Uiso   1.00
C618   C     0.20611   0.35373   0.47955   0.00000  Uiso   1.00
C619   C     0.12722   0.64627   0.52045   0.00000  Uiso   1.00
C620   C     0.20215   0.64400   0.47881   0.00000  Uiso   1.00
H621   H     0.32400   0.49938   0.44677   0.00000  Uiso   1.00
H622   H     0.27091   0.56486   0.65942   0.00000  Uiso   1.00
H623   H     0.27866   0.52115   0.62383   0.00000  Uiso   1.00
H624   H     0.09825   0.43580   0.39683   0.00000  Uiso   1.00
H625   H     0.05468   0.47885   0.37617   0.00000  Uiso   1.00
H626   H     0.06242   0.43514   0.34058   0.00000  Uiso   1.00
H627   H     0.00934   0.50062   0.55323   0.00000  Uiso   1.00
H628   H     0.23033   0.62565   0.46377   0.00000  Uiso   1.00
H629   H     0.10300   0.37435   0.53623   0.00000  Uiso   1.00
H630   H     0.23482   0.53757   0.38625   0.00000  Uiso   1.00
H631   H     0.09851   0.46243   0.61375   0.00000  Uiso   1.00
H632   H     0.30094   0.36983   0.41546   0.00000  Uiso   1.00
H633   H     0.03239   0.63017   0.58454   0.00000  Uiso   1.00
H634   H     0.23508   0.56420   0.60317   0.00000  Uiso   1.00
N635   N     0.16665   0.49999   0.61907   0.00000  Uiso   1.00
N636   N     0.16668   0.50001   0.38093   0.00000  Uiso   1.00
O637   O     0.16666   0.43892   0.53821   0.00000  Uiso   1.00
O638   O     0.27084   0.35352   0.42541   0.00000  Uiso   1.00
O639   O     0.06418   0.59301   0.52450   0.00000  Uiso   1.00
O640   O     0.06249   0.64648   0.57459   0.00000  Uiso   1.00
O641   O     0.16667   0.56108   0.46179   0.00000  Uiso   1.00
O642   O     0.16666   0.43893   0.46176   0.00000  Uiso   1.00
O643   O     0.16667   0.56107   0.53824   0.00000  Uiso   1.00
O644   O     0.09058   0.50000   0.52928   0.00000  Uiso   1.00
O645   O     0.24275   0.50000   0.47072   0.00000  Uiso   1.00
O646   O     0.09058   0.50000   0.45284   0.00000  Uiso   1.00
O647   O     0.24275   0.50000   0.54716   0.00000  Uiso   1.00
O648   O     0.26916   0.40699   0.47550   0.00000  Uiso   1.00
Zn649  Zn    0.16667   0.49999   0.55104   0.00000  Uiso   1.00
Zn650  Zn    0.16667   0.50001   0.44896   0.00000  Uiso   1.00
C651   C     0.50164   0.42018   0.50018   0.00000  Uiso   1.00
C652   C     0.46452   0.35600   0.52119   0.00000  Uiso   1.00
C653   C     0.49715   0.62401   0.49941   0.00000  Uiso   1.00
C654   C     0.50285   0.37599   0.50059   0.00000  Uiso   1.00
C655   C     0.53789   0.52105   0.36320   0.00000  Uiso   1.00
C656   C     0.46211   0.47895   0.63680   0.00000  Uiso   1.00
C657   C     0.53837   0.52118   0.64886   0.00000  Uiso   1.00
C658   C     0.46163   0.47882   0.35114   0.00000  Uiso   1.00
C659   C     0.58334   0.37372   0.46023   0.00000  Uiso   1.00
C660   C     0.41666   0.62628   0.53977   0.00000  Uiso   1.00
C661   C     0.58291   0.54400   0.63248   0.00000  Uiso   1.00
C662   C     0.49836   0.57982   0.49982   0.00000  Uiso   1.00
C663   C     0.41709   0.45600   0.36752   0.00000  Uiso   1.00
C664   C     0.40037   0.49975   0.48791   0.00000  Uiso   1.00
C665   C     0.59963   0.50025   0.51209   0.00000  Uiso   1.00
C666   C     0.34511   0.49975   0.48157   0.00000  Uiso   1.00
C667   C     0.65489   0.50025   0.51843   0.00000  Uiso   1.00
C668   C     0.53944   0.35373   0.47955   0.00000  Uiso   1.00
C669   C     0.46056   0.64627   0.52045   0.00000  Uiso   1.00
C670   C     0.53548   0.64400   0.47881   0.00000  Uiso   1.00
H671   H     0.65733   0.49938   0.44677   0.00000  Uiso   1.00
H672   H     0.60425   0.56486   0.65942   0.00000  Uiso   1.00
H673   H     0.61199   0.52115   0.62383   0.00000  Uiso   1.00
H674   H     0.43158   0.43580   0.39683   0.00000  Uiso   1.00
H675   H     0.38801   0.47885   0.37617   0.00000  Uiso   1.00
H676   H     0.39575   0.43514   0.34058   0.00000  Uiso   1.00
H677   H     0.34267   0.50062   0.55323   0.00000  Uiso   1.00
H678   H     0.56366   0.62565   0.46377   0.00000  Uiso   1.00
H679   H     0.43634   0.37435   0.53623   0.00000  Uiso   1.00
H680   H     0.56815   0.53757   0.38625   0.00000  Uiso   1.00
H681   H     0.43185   0.46243   0.61375   0.00000  Uiso   1.00
H682   H     0.63427   0.36983   0.41546   0.00000  Uiso   1.00
H683   H     0.36573   0.63017   0.58454   0.00000  Uiso   1.00
H684   H     0.56842   0.56420   0.60317   0.00000  Uiso   1.00
N685   N     0.49999   0.49999   0.61907   0.00000  Uiso   1.00
N686   N     0.50001   0.50001   0.38093   0.00000  Uiso   1.00
O687   O     0.50000   0.43892   0.53821   0.00000  Uiso   1.00
O688   O     0.60418   0.35352   0.42541   0.00000  Uiso   1.00
O689   O     0.39751   0.59301   0.52450   0.00000  Uiso   1.00
O690   O     0.39582   0.64648   0.57459   0.00000  Uiso   1.00
O691   O     0.50000   0.56108   0.46179   0.00000  Uiso   1.00
O692   O     0.50000   0.43893   0.46176   0.00000  Uiso   1.00
O693   O     0.50000   0.56107   0.53824   0.00000  Uiso   1.00
O694   O     0.42392   0.50000   0.52928   0.00000  Uiso   1.00
O695   O     0.57608   0.50000   0.47072   0.00000  Uiso   1.00
O696   O     0.42392   0.50000   0.45284   0.00000  Uiso   1.00
O697   O     0.57608   0.50000   0.54716   0.00000  Uiso   1.00
O698   O     0.60249   0.40699   0.47550   0.00000  Uiso   1.00
Zn699  Zn    0.50000   0.49999   0.55104   0.00000  Uiso   1.00
Zn700  Zn    0.50000   0.50001   0.44896   0.00000  Uiso   1.00
C701   C     0.83497   0.42018   0.50018   0.00000  Uiso   1.00
C702   C     0.79785   0.35600   0.52119   0.00000  Uiso   1.00
C703   C     0.83048   0.62401   0.49941   0.00000  Uiso   1.00
C704   C     0.83618   0.37599   0.50059   0.00000  Uiso   1.00
C705   C     0.87122   0.52105   0.36320   0.00000  Uiso   1.00
C706   C     0.79544   0.47895   0.63680   0.00000  Uiso   1.00
C707   C     0.87170   0.52118   0.64886   0.00000  Uiso   1.00
C708   C     0.79496   0.47882   0.35114   0.00000  Uiso   1.00
C709   C     0.91667   0.37372   0.46023   0.00000  Uiso   1.00
C710   C     0.74999   0.62628   0.53977   0.00000  Uiso   1.00
C711   C     0.91625   0.54400   0.63248   0.00000  Uiso   1.00
C712   C     0.83169   0.57982   0.49982   0.00000  Uiso   1.00
C713   C     0.75042   0.45600   0.36752   0.00000  Uiso   1.00
C714   C     0.73370   0.49975   0.48791   0.00000  Uiso   1.00
C715   C     0.93296   0.50025   0.51209   0.00000  Uiso   1.00
C716   C     0.67844   0.49975   0.48157   0.00000  Uiso   1.00
C717   C     0.98823   0.50025   0.51843   0.00000  Uiso   1.00
C718   C     0.87278   0.35373   0.47955   0.00000  Uiso   1.00
C719   C     0.79389   0.64627   0.52045   0.00000  Uiso   1.00
C720   C     0.86882   0.64400   0.47881   0.00000  Uiso   1.00
H721   H     0.99066   0.49938   0.44677   0.00000  Uiso   1.00
H722   H     0.93758   0.56486   0.65942   0.00000  Uiso   1.00
H723   H     0.94532   0.52115   0.62383   0.00000  Uiso   1.00
H724   H     0.76492   0.43580   0.39683   0.00000  Uiso   1.00
H725   H     0.72134   0.47885   0.37617   0.00000  Uiso   1.00
H726   H     0.72909   0.43514   0.34058   0.00000  Uiso   1.00
H727   H     0.67600   0.50062   0.55323   0.00000  Uiso   1.00
H728   H     0.89700   0.62565   0.46377   0.00000  Uiso   1.00
H729   H     0.76967   0.37435   0.53623   0.00000  Uiso   1.00
H730   H     0.90149   0.53757   0.38625   0.00000  Uiso   1.00
H731   H     0.76518   0.46243   0.61375   0.00000  Uiso   1.00
H732   H     0.96761   0.36983   0.41546   0.00000  Uiso   1.00
H733   H     0.69906   0.63017   0.58454   0.00000  Uiso   1.00
H734   H     0.90175   0.56420   0.60317   0.00000  Uiso   1.00
N735   N     0.83332   0.49999   0.61907   0.00000  Uiso   1.00
N736   N     0.83335   0.50001   0.38093   0.00000  Uiso   1.00
O737   O     0.83333   0.43892   0.53821   0.00000  Uiso   1.00
O738   O     0.93751   0.35352   0.42541   0.00000  Uiso   1.00
O739   O     0.73084   0.59301   0.52450   0.00000  Uiso   1.00
O740   O     0.72916   0.64648   0.57459   0.00000  Uiso   1.00
O741   O     0.83334   0.56108   0.46179   0.00000  Uiso   1.00
O742   O     0.83333   0.43893   0.46176   0.00000  Uiso   1.00
O743   O     0.83334   0.56107   0.53824   0.00000  Uiso   1.00
O744   O     0.75725   0.50000   0.52928   0.00000  Uiso   1.00
O745   O     0.90942   0.50000   0.47072   0.00000  Uiso   1.00
O746   O     0.75725   0.50000   0.45284   0.00000  Uiso   1.00
O747   O     0.90942   0.50000   0.54716   0.00000  Uiso   1.00
O748   O     0.93582   0.40699   0.47550   0.00000  Uiso   1.00
Zn749  Zn    0.83333   0.49999   0.55104   0.00000  Uiso   1.00
Zn750  Zn    0.83333   0.50001   0.44896   0.00000  Uiso   1.00
C751   C     0.16831   0.75351   0.50018   0.00000  Uiso   1.00
C752   C     0.13118   0.68933   0.52119   0.00000  Uiso   1.00
C753   C     0.16382   0.95734   0.49941   0.00000  Uiso   1.00
C754   C     0.16952   0.70932   0.50059   0.00000  Uiso   1.00
C755   C     0.20456   0.85438   0.36320   0.00000  Uiso   1.00
C756   C     0.12878   0.81228   0.63680   0.00000  Uiso   1.00
C757   C     0.20504   0.85452   0.64886   0.00000  Uiso   1.00
C758   C     0.12830   0.81215   0.35114   0.00000  Uiso   1.00
C759   C     0.25001   0.70706   0.46023   0.00000  Uiso   1.00
C760   C     0.08333   0.95961   0.53977   0.00000  Uiso   1.00
C761   C     0.24958   0.87734   0.63248   0.00000  Uiso   1.00
C762   C     0.16503   0.91315   0.49982   0.00000  Uiso   1.00
C763   C     0.08375   0.78933   0.36752   0.00000  Uiso   1.00
C764   C     0.06704   0.83308   0.48791   0.00000  Uiso   1.00
C765   C     0.26630   0.83359   0.51209   0.00000  Uiso   1.00
C766   C     0.01177   0.83308   0.48157   0.00000  Uiso   1.00
C767   C     0.32156   0.83358   0.51843   0.00000  Uiso   1.00
C768   C     0.20611   0.68707   0.47955   0.00000  Uiso   1.00
C769   C     0.12722   0.97960   0.52045   0.00000  Uiso   1.00
C770   C     0.20215   0.97733   0.47881   0.00000  Uiso   1.00
H771   H     0.32400   0.83272   0.44677   0.00000  Uiso   1.00
H772   H     0.27091   0.89819   0.65942   0.00000  Uiso   1.00
H773   H     0.27866   0.85448   0.62383   0.00000  Uiso   1.00
H774   H     0.09825   0.76914   0.39683   0.00000  Uiso   1.00
H775   H     0.05468   0.81218   0.37617   0.00000  Uiso   1.00
H776   H     0.06242   0.76847   0.34058   0.00000  Uiso   1.00
H777   H     0.00934   0.83395   0.55323   0.00000  Uiso   1.00
H778   H     0.23033   0.95899   0.46377   0.00000  Uiso   1.00
H779   H     0.10300   0.70768   0.53623   0.00000  Uiso   1.00
H780   H     0.23482   0.87090   0.38625   0.00000  Uiso   1.00
H781   H     0.09851   0.79576   0.61375   0.00000  Uiso   1.00
H782   H     0.30094   0.70316   0.41546   0.00000  Uiso   1.00
H783   H     0.03239   0.96350   0.58454   0.00000  Uiso   1.00
H784   H     0.23508   0.89753   0.60317   0.00000  Uiso   1.00
N785   N     0.16665   0.83332   0.61907   0.00000  Uiso   1.00
N786   N     0.16668   0.83334   0.38093   0.00000  Uiso   1.00
O787   O     0.16666   0.77225   0.53821   0.00000  Uiso   1.00
O788   O     0.27084   0.68686   0.42541   0.00000  Uiso   1.00
O789   O     0.06418   0.92635   0.52450   0.00000  Uiso   1.00
O790   O     0.06249   0.97981   0.57459   0.00000  Uiso   1.00
O791   O     0.16667   0.89442   0.46179   0.00000  Uiso   1.00
O792   O     0.16666   0.77226   0.46176   0.00000  Uiso   1.00
O793   O     0.16667   0.89441   0.53824   0.00000  Uiso   1.00
O794   O     0.09058   0.83333   0.52928   0.00000  Uiso   1.00
O795   O     0.24275   0.83334   0.47072   0.00000  Uiso   1.00
O796   O     0.09058   0.83334   0.45284   0.00000  Uiso   1.00
O797   O     0.24275   0.83333   0.54716   0.00000  Uiso   1.00
O798   O     0.26916   0.74032   0.47550   0.00000  Uiso   1.00
Zn799  Zn    0.16667   0.83333   0.55104   0.00000  Uiso   1.00
Zn800  Zn    0.16667   0.83334   0.44896   0.00000  Uiso   1.00
C801   C     0.50164   0.75351   0.50018   0.00000  Uiso   1.00
C802   C     0.46452   0.68933   0.52119   0.00000  Uiso   1.00
C803   C     0.49715   0.95734   0.49941   0.00000  Uiso   1.00
C804   C     0.50285   0.70932   0.50059   0.00000  Uiso   1.00
C805   C     0.53789   0.85438   0.36320   0.00000  Uiso   1.00
C806   C     0.46211   0.81228   0.63680   0.00000  Uiso   1.00
C807   C     0.53837   0.85452   0.64886   0.00000  Uiso   1.00
C808   C     0.46163   0.81215   0.35114   0.00000  Uiso   1.00
C809   C     0.58334   0.70706   0.46023   0.00000  Uiso   1.00
C810   C     0.41666   0.95961   0.53977   0.00000  Uiso   1.00
C811   C     0.58291   0.87734   0.63248   0.00000  Uiso   1.00
C812   C     0.49836   0.91315   0.49982   0.00000  Uiso   1.00
C813   C     0.41709   0.78933   0.36752   0.00000  Uiso   1.00
C814   C     0.40037   0.83308   0.48791   0.00000  Uiso   1.00
C815   C     0.59963   0.83359   0.51209   0.00000  Uiso   1.00
C816   C     0.34511   0.83308   0.48157   0.00000  Uiso   1.00
C817   C     0.65489   0.83358   0.51843   0.00000  Uiso   1.00
C818   C     0.53944   0.68707   0.47955   0.00000  Uiso   1.00
C819   C     0.46056   0.97960   0.52045   0.00000  Uiso   1.00
C820   C     0.53548   0.97733   0.47881   0.00000  Uiso   1.00
H821   H     0.65733   0.83272   0.44677   0.00000  Uiso   1.00
H822   H     0.60425   0.89819   0.65942   0.00000  Uiso   1.00
H823   H     0.61199   0.85448   0.62383   0.00000  Uiso   1.00
H824   H     0.43158   0.76914   0.39683   0.00000  Uiso   1.00
H825   H     0.38801   0.81218   0.37617   0.00000  Uiso   1.00
H826   H     0.39575   0.76847   0.34058   0.00000  Uiso   1.00
H827   H     0.34267   0.83395   0.55323   0.00000  Uiso   1.00
H828   H     0.56366   0.95899   0.46377   0.00000  Uiso   1.00
H829   H     0.43634   0.70768   0.53623   0.00000  Uiso   1.00
H830   H     0.56815   0.87090   0.38625   0.00000  Uiso   1.00
H831   H     0.43185   0.79576   0.61375   0.00000  Uiso   1.00
H832   H     0.63427   0.70316   0.41546   0.00000  Uiso   1.00
H833   H     0.36573   0.96350   0.58454   0.00000  Uiso   1.00
H834   H     0.56842   0.89753   0.60317   0.00000  Uiso   1.00
N835   N     0.49999   0.83332   0.61907   0.00000  Uiso   1.00
N836   N     0.50001   0.83334   0.38093   0.00000  Uiso   1.00
O837   O     0.50000   0.77225   0.53821   0.00000  Uiso   1.00
O838   O     0.60418   0.68686   0.42541   0.00000  Uiso   1.00
O839   O     0.39751   0.92635   0.52450   0.00000  Uiso   1.00
O840   O     0.39582   0.97981   0.57459   0.00000  Uiso   1.00
O841   O     0.50000   0.89442   0.46179   0.00000  Uiso   1.00
O842   O     0.50000   0.77226   0.46176   0.00000  Uiso   1.00
O843   O     0.50000   0.89441   0.53824   0.00000  Uiso   1.00
O844   O     0.42392   0.83333   0.52928   0.00000  Uiso   1.00
O845   O     0.57608   0.83334   0.47072   0.00000  Uiso   1.00
O846   O     0.42392   0.83334   0.45284   0.00000  Uiso   1.00
O847   O     0.57608   0.83333   0.54716   0.00000  Uiso   1.00
O848   O     0.60249   0.74032   0.47550   0.00000  Uiso   1.00
Zn849  Zn    0.50000   0.83333   0.55104   0.00000  Uiso   1.00
Zn850  Zn    0.50000   0.83334   0.44896   0.00000  Uiso   1.00
C851   C     0.83497   0.75351   0.50018   0.00000  Uiso   1.00
C852   C     0.79785   0.68933   0.52119   0.00000  Uiso   1.00
C853   C     0.83048   0.95734   0.49941   0.00000  Uiso   1.00
C854   C     0.83618   0.70932   0.50059   0.00000  Uiso   1.00
C855   C     0.87122   0.85438   0.36320   0.00000  Uiso   1.00
C856   C     0.79544   0.81228   0.63680   0.00000  Uiso   1.00
C857   C     0.87170   0.85452   0.64886   0.00000  Uiso   1.00
C858   C     0.79496   0.81215   0.35114   0.00000  Uiso   1.00
C859   C     0.91667   0.70706   0.46023   0.00000  Uiso   1.00
C860   C     0.74999   0.95961   0.53977   0.00000  Uiso   1.00
C861   C     0.91625   0.87734   0.63248   0.00000  Uiso   1.00
C862   C     0.83169   0.91315   0.49982   0.00000  Uiso   1.00
C863   C     0.75042   0.78933   0.36752   0.00000  Uiso   1.00
C864   C     0.73370   0.83308   0.48791   0.00000  Uiso   1.00
C865   C     0.93296   0.83359   0.51209   0.00000  Uiso   1.00
C866   C     0.67844   0.83308   0.48157   0.00000  Uiso   1.00
C867   C     0.98823   0.83358   0.51843   0.00000  Uiso   1.00
C868   C     0.87278   0.68707   0.47955   0.00000  Uiso   1.00
C869   C     0.79389   0.97960   0.52045   0.00000  Uiso   1.00
C870   C     0.86882   0.97733   0.47881   0.00000  Uiso   1.00
H871   H     0.99066   0.83272   0.44677   0.00000  Uiso   1.00
H872   H     0.93758   0.89819   0.65942   0.00000  Uiso   1.00
H873   H     0.94532   0.85448   0.62383   0.00000  Uiso   1.00
H874   H     0.76492   0.76914   0.39683   0.00000  Uiso   1.00
H875   H     0.72134   0.81218   0.37617   0.00000  Uiso   1.00
H876   H     0.72909   0.76847   0.34058   0.00000  Uiso   1.00
H877   H     0.67600   0.83395   0.55323   0.00000  Uiso   1.00
H878   H     0.89700   0.95899   0.46377   0.00000  Uiso   1.00
H879   H     0.76967   0.70768   0.53623   0.00000  Uiso   1.00
H880   H     0.90149   0.87090   0.38625   0.00000  Uiso   1.00
H881   H     0.76518   0.79576   0.61375   0.00000  Uiso   1.00
H882   H     0.96761   0.70316   0.41546   0.00000  Uiso   1.00
H883   H     0.69906   0.96350   0.58454   0.00000  Uiso   1.00
H884   H     0.90175   0.89753   0.60317   0.00000  Uiso   1.00
N885   N     0.83332   0.83332   0.61907   0.00000  Uiso   1.00
N886   N     0.83335   0.83334   0.38093   0.00000  Uiso   1.00
O887   O     0.83333   0.77225   0.53821   0.00000  Uiso   1.00
O888   O     0.93751   0.68686   0.42541   0.00000  Uiso   1.00
O889   O     0.73084   0.92635   0.52450   0.00000  Uiso   1.00
O890   O     0.72916   0.97981   0.57459   0.00000  Uiso   1.00
O891   O     0.83334   0.89442   0.46179   0.00000  Uiso   1.00
O892   O     0.83333   0.77226   0.46176   0.00000  Uiso   1.00
O893   O     0.83334   0.89441   0.53824   0.00000  Uiso   1.00
O894   O     0.75725   0.83333   0.52928   0.00000  Uiso   1.00
O895   O     0.90942   0.83334   0.47072   0.00000  Uiso   1.00
O896   O     0.75725   0.83334   0.45284   0.00000  Uiso   1.00
O897   O     0.90942   0.83333   0.54716   0.00000  Uiso   1.00
O898   O     0.93582   0.74032   0.47550   0.00000  Uiso   1.00
Zn899  Zn    0.83333   0.83333   0.55104   0.00000  Uiso   1.00
Zn900  Zn    0.83333   0.83334   0.44896   0.00000  Uiso   1.00
C901   C     0.16831   0.08685   0.83351   0.00000  Uiso   1.00
C902   C     0.13118   0.02267   0.85453   0.00000  Uiso   1.00
C903   C     0.16382   0.29068   0.83274   0.00000  Uiso   1.00
C904   C     0.16952   0.04266   0.83393   0.00000  Uiso   1.00
C905   C     0.20456   0.18772   0.69654   0.00000  Uiso   1.00
C906   C     0.12878   0.14562   0.97013   0.00000  Uiso   1.00
C907   C     0.20504   0.18785   0.98219   0.00000  Uiso   1.00
C908   C     0.12830   0.14548   0.68448   0.00000  Uiso   1.00
C909   C     0.25001   0.04039   0.79356   0.00000  Uiso   1.00
C910   C     0.08333   0.29294   0.87311   0.00000  Uiso   1.00
C911   C     0.24958   0.21067   0.96581   0.00000  Uiso   1.00
C912   C     0.16503   0.24649   0.83315   0.00000  Uiso   1.00
C913   C     0.08375   0.12266   0.70085   0.00000  Uiso   1.00
C914   C     0.06704   0.16641   0.82125   0.00000  Uiso   1.00
C915   C     0.26630   0.16692   0.84542   0.00000  Uiso   1.00
C916   C     0.01177   0.16642   0.81491   0.00000  Uiso   1.00
C917   C     0.32156   0.16692   0.85176   0.00000  Uiso   1.00
C918   C     0.20611   0.02040   0.81288   0.00000  Uiso   1.00
C919   C     0.12722   0.31293   0.85378   0.00000  Uiso   1.00
C920   C     0.20215   0.31067   0.81214   0.00000  Uiso   1.00
H921   H     0.32400   0.16605   0.78010   0.00000  Uiso   1.00
H922   H     0.27091   0.23153   0.99276   0.00000  Uiso   1.00
H923   H     0.27866   0.18782   0.95717   0.00000  Uiso   1.00
H924   H     0.09825   0.10247   0.73016   0.00000  Uiso   1.00
H925   H     0.05468   0.14552   0.70950   0.00000  Uiso   1.00
H926   H     0.06242   0.10180   0.67391   0.00000  Uiso   1.00
H927   H     0.00934   0.16728   0.88656   0.00000  Uiso   1.00
H928   H     0.23033   0.29232   0.79710   0.00000  Uiso   1.00
H929   H     0.10300   0.04101   0.86957   0.00000  Uiso   1.00
H930   H     0.23482   0.20424   0.71959   0.00000  Uiso   1.00
H931   H     0.09851   0.12910   0.94708   0.00000  Uiso   1.00
H932   H     0.30094   0.03650   0.74880   0.00000  Uiso   1.00
H933   H     0.03239   0.29684   0.91787   0.00000  Uiso   1.00
H934   H     0.23508   0.23086   0.93650   0.00000  Uiso   1.00
N935   N     0.16665   0.16666   0.95240   0.00000  Uiso   1.00
N936   N     0.16668   0.16668   0.71427   0.00000  Uiso   1.00
O937   O     0.16666   0.10558   0.87154   0.00000  Uiso   1.00
O938   O     0.27084   0.02019   0.75874   0.00000  Uiso   1.00
O939   O     0.06418   0.25968   0.85784   0.00000  Uiso   1.00
O940   O     0.06249   0.31314   0.90792   0.00000  Uiso   1.00
O941   O     0.16667   0.22775   0.79513   0.00000  Uiso   1.00
O942   O     0.16666   0.10559   0.79510   0.00000  Uiso   1.00
O943   O     0.16667   0.22774   0.87157   0.00000  Uiso   1.00
O944   O     0.09058   0.16666   0.86261   0.00000  Uiso   1.00
O945   O     0.24275   0.16667   0.80405   0.00000  Uiso   1.00
O946   O     0.09058   0.16667   0.78617   0.00000  Uiso   1.00
O947   O     0.24275   0.16666   0.88050   0.00000  Uiso   1.00
O948   O     0.26916   0.07365   0.80883   0.00000  Uiso   1.00
Zn949  Zn    0.16667   0.16666   0.88437   0.00000  Uiso   1.00
Zn950  Zn    0.16667   0.16667   0.78229   0.00000  Uiso   1.00
C951   C     0.50164   0.08685   0.83351   0.00000  Uiso   1.00
C952   C     0.46452   0.02267   0.85453   0.00000  Uiso   1.00
C953   C     0.49715   0.29068   0.83274   0.00000  Uiso   1.00
C954   C     0.50285   0.04266   0.83393   0.00000  Uiso   1.00
C955   C     0.53789   0.18772   0.69654   0.00000  Uiso   1.00
C956   C     0.46211   0.14562   0.97013   0.00000  Uiso   1.00
C957   C     0.53837   0.18785   0.98219   0.00000  Uiso   1.00
C958   C     0.46163   0.14548   0.68448   0.00000  Uiso   1.00
C959   C     0.58334   0.04039   0.79356   0.00000  Uiso   1.00
C960   C     0.41666   0.29294   0.87311   0.00000  Uiso   1.00
C961   C     0.58291   0.21067   0.96581   0.00000  Uiso   1.00
C962   C     0.49836   0.24649   0.83315   0.00000  Uiso   1.00
C963   C     0.41709   0.12266   0.70085   0.00000  Uiso   1.00
C964   C     0.40037   0.16641   0.82125   0.00000  Uiso   1.00
C965   C     0.59963   0.16692   0.84542   0.00000  Uiso   1.00
C966   C     0.34511   0.16642   0.81491   0.00000  Uiso   1.00
C967   C     0.65489   0.16692   0.85176   0.00000  Uiso   1.00
C968   C     0.53944   0.02040   0.81288   0.00000  Uiso   1.00
C969   C     0.46056   0.31293   0.85378   0.00000  Uiso   1.00
C970   C     0.53548   0.31067   0.81214   0.00000  Uiso   1.00
H971   H     0.65733   0.16605   0.78010   0.00000  Uiso   1.00
H972   H     0.60425   0.23153   0.99276   0.00000  Uiso   1.00
H973   H     0.61199   0.18782   0.95717   0.00000  Uiso   1.00
H974   H     0.43158   0.10247   0.73016   0.00000  Uiso   1.00
H975   H     0.38801   0.14552   0.70950   0.00000  Uiso   1.00
H976   H     0.39575   0.10180   0.67391   0.00000  Uiso   1.00
H977   H     0.34267   0.16728   0.88656   0.00000  Uiso   1.00
H978   H     0.56366   0.29232   0.79710   0.00000  Uiso   1.00
H979   H     0.43634   0.04101   0.86957   0.00000  Uiso   1.00
H980   H     0.56815   0.20424   0.71959   0.00000  Uiso   1.00
H981   H     0.43185   0.12910   0.94708   0.00000  Uiso   1.00
H982   H     0.63427   0.03650   0.74880   0.00000  Uiso   1.00
H983   H     0.36573   0.29684   0.91787   0.00000  Uiso   1.00
H984   H     0.56842   0.23086   0.93650   0.00000  Uiso   1.00
N985   N     0.49999   0.16666   0.95240   0.00000  Uiso   1.00
N986   N     0.50001   0.16668   0.71427   0.00000  Uiso   1.00
O987   O     0.50000   0.10558   0.87154   0.00000  Uiso   1.00
O988   O     0.60418   0.02019   0.75874   0.00000  Uiso   1.00
O989   O     0.39751   0.25968   0.85784   0.00000  Uiso   1.00
O990   O     0.39582   0.31314   0.90792   0.00000  Uiso   1.00
O991   O     0.50000   0.22775   0.79513   0.00000  Uiso   1.00
O992   O     0.50000   0.10559   0.79510   0.00000  Uiso   1.00
O993   O     0.50000   0.22774   0.87157   0.00000  Uiso   1.00
O994   O     0.42392   0.16666   0.86261   0.00000  Uiso   1.00
O995   O     0.57608   0.16667   0.80405   0.00000  Uiso   1.00
O996   O     0.42392   0.16667   0.78617   0.00000  Uiso   1.00
O997   O     0.57608   0.16666   0.88050   0.00000  Uiso   1.00
O998   O     0.60249   0.07365   0.80883   0.00000  Uiso   1.00
Zn999  Zn    0.50000   0.16666   0.88437   0.00000  Uiso   1.00
Zn1000 Zn    0.50000   0.16667   0.78229   0.00000  Uiso   1.00
C1001  C     0.83497   0.08685   0.83351   0.00000  Uiso   1.00
C1002  C     0.79785   0.02267   0.85453   0.00000  Uiso   1.00
C1003  C     0.83048   0.29068   0.83274   0.00000  Uiso   1.00
C1004  C     0.83618   0.04266   0.83393   0.00000  Uiso   1.00
C1005  C     0.87122   0.18772   0.69654   0.00000  Uiso   1.00
C1006  C     0.79544   0.14562   0.97013   0.00000  Uiso   1.00
C1007  C     0.87170   0.18785   0.98219   0.00000  Uiso   1.00
C1008  C     0.79496   0.14548   0.68448   0.00000  Uiso   1.00
C1009  C     0.91667   0.04039   0.79356   0.00000  Uiso   1.00
C1010  C     0.74999   0.29294   0.87311   0.00000  Uiso   1.00
C1011  C     0.91625   0.21067   0.96581   0.00000  Uiso   1.00
C1012  C     0.83169   0.24649   0.83315   0.00000  Uiso   1.00
C1013  C     0.75042   0.12266   0.70085   0.00000  Uiso   1.00
C1014  C     0.73370   0.16641   0.82125   0.00000  Uiso   1.00
C1015  C     0.93296   0.16692   0.84542   0.00000  Uiso   1.00
C1016  C     0.67844   0.16642   0.81491   0.00000  Uiso   1.00
C1017  C     0.98823   0.16692   0.85176   0.00000  Uiso   1.00
C1018  C     0.87278   0.02040   0.81288   0.00000  Uiso   1.00
C1019  C     0.79389   0.31293   0.85378   0.00000  Uiso   1.00
C1020  C     0.86882   0.31067   0.81214   0.00000  Uiso   1.00
H1021  H     0.99066   0.16605   0.78010   0.00000  Uiso   1.00
H1022  H     0.93758   0.23153   0.99276   0.00000  Uiso   1.00
H1023  H     0.94532   0.18782   0.95717   0.00000  Uiso   1.00
H1024  H     0.76492   0.10247   0.73016   0.00000  Uiso   1.00
H1025  H     0.72134   0.14552   0.70950   0.00000  Uiso   1.00
H1026  H     0.72909   0.10180   0.67391   0.00000  Uiso   1.00
H1027  H     0.67600   0.16728   0.88656   0.00000  Uiso   1.00
H1028  H     0.89700   0.29232   0.79710   0.00000  Uiso   1.00
H1029  H     0.76967   0.04101   0.86957   0.00000  Uiso   1.00
H1030  H     0.90149   0.20424   0.71959   0.00000  Uiso   1.00
H1031  H     0.76518   0.12910   0.94708   0.00000  Uiso   1.00
H1032  H     0.96761   0.03650   0.74880   0.00000  Uiso   1.00
H1033  H     0.69906   0.29684   0.91787   0.00000  Uiso   1.00
H1034  H     0.90175   0.23086   0.93650   0.00000  Uiso   1.00
N1035  N     0.83332   0.16666   0.95240   0.00000  Uiso   1.00
N1036  N     0.83335   0.16668   0.71427   0.00000  Uiso   1.00
O1037  O     0.83333   0.10558   0.87154   0.00000  Uiso   1.00
O1038  O     0.93751   0.02019   0.75874   0.00000  Uiso   1.00
O1039  O     0.73084   0.25968   0.85784   0.00000  Uiso   1.00
O1040  O     0.72916   0.31314   0.90792   0.00000  Uiso   1.00
O1041  O     0.83334   0.22775   0.79513   0.00000  Uiso   1.00
O1042  O     0.83333   0.10559   0.79510   0.00000  Uiso   1.00
O1043  O     0.83334   0.22774   0.87157   0.00000  Uiso   1.00
O1044  O     0.75725   0.16666   0.86261   0.00000  Uiso   1.00
O1045  O     0.90942   0.16667   0.80405   0.00000  Uiso   1.00
O1046  O     0.75725   0.16667   0.78617   0.00000  Uiso   1.00
O1047  O     0.90942   0.16666   0.88050   0.00000  Uiso   1.00
O1048  O     0.93582   0.07365   0.80883   0.00000  Uiso   1.00
Zn1049 Zn    0.83333   0.16666   0.88437   0.00000  Uiso   1.00
Zn1050 Zn    0.83333   0.16667   0.78229   0.00000  Uiso   1.00
C1051  C     0.16831   0.42018   0.83351   0.00000  Uiso   1.00
C1052  C     0.13118   0.35600   0.85453   0.00000  Uiso   1.00
C1053  C     0.16382   0.62401   0.83274   0.00000  Uiso   1.00
C1054  C     0.16952   0.37599   0.83393   0.00000  Uiso   1.00
C1055  C     0.20456   0.52105   0.69654   0.00000  Uiso   1.00
C1056  C     0.12878   0.47895   0.97013   0.00000  Uiso   1.00
C1057  C     0.20504   0.52118   0.98219   0.00000  Uiso   1.00
C1058  C     0.12830   0.47882   0.68448   0.00000  Uiso   1.00
C1059  C     0.25001   0.37372   0.79356   0.00000  Uiso   1.00
C1060  C     0.08333   0.62628   0.87311   0.00000  Uiso   1.00
C1061  C     0.24958   0.54400   0.96581   0.00000  Uiso   1.00
C1062  C     0.16503   0.57982   0.83315   0.00000  Uiso   1.00
C1063  C     0.08375   0.45600   0.70085   0.00000  Uiso   1.00
C1064  C     0.06704   0.49975   0.82125   0.00000  Uiso   1.00
C1065  C     0.26630   0.50025   0.84542   0.00000  Uiso   1.00
C1066  C     0.01177   0.49975   0.81491   0.00000  Uiso   1.00
C1067  C     0.32156   0.50025   0.85176   0.00000  Uiso   1.00
C1068  C     0.20611   0.35373   0.81288   0.00000  Uiso   1.00
C1069  C     0.12722   0.64627   0.85378   0.00000  Uiso   1.00
C1070  C     0.20215   0.64400   0.81214   0.00000  Uiso   1.00
H1071  H     0.32400   0.49938   0.78010   0.00000  Uiso   1.00
H1072  H     0.27091   0.56486   0.99276   0.00000  Uiso   1.00
H1073  H     0.27866   0.52115   0.95717   0.00000  Uiso   1.00
H1074  H     0.09825   0.43580   0.73016   0.00000  Uiso   1.00
H1075  H     0.05468   0.47885   0.70950   0.00000  Uiso   1.00
H1076  H     0.06242   0.43514   0.67391   0.00000  Uiso   1.00
H1077  H     0.00934   0.50062   0.88656   0.00000  Uiso   1.00
H1078  H     0.23033   0.62565   0.79710   0.00000  Uiso   1.00
H1079  H     0.10300   0.37435   0.86957   0.00000  Uiso   1.00
H1080  H     0.23482   0.53757   0.71959   0.00000  Uiso   1.00
H1081  H     0.09851   0.46243   0.94708   0.00000  Uiso   1.00
H1082  H     0.30094   0.36983   0.74880   0.00000  Uiso   1.00
H1083  H     0.03239   0.63017   0.91787   0.00000  Uiso   1.00
H1084  H     0.23508   0.56420   0.93650   0.00000  Uiso   1.00
N1085  N     0.16665   0.49999   0.95240   0.00000  Uiso   1.00
N1086  N     0.16668   0.50001   0.71427   0.00000  Uiso   1.00
O1087  O     0.16666   0.43892   0.87154   0.00000  Uiso   1.00
O1088  O     0.27084   0.35352   0.75874   0.00000  Uiso   1.00
O1089  O     0.06418   0.59301   0.85784   0.00000  Uiso   1.00
O1090  O     0.06249   0.64648   0.90792   0.00000  Uiso   1.00
O1091  O     0.16667   0.56108   0.79513   0.00000  Uiso   1.00
O1092  O     0.16666   0.43893   0.79510   0.00000  Uiso   1.00
O1093  O     0.16667   0.56107   0.87157   0.00000  Uiso   1.00
O1094  O     0.09058   0.50000   0.86261   0.00000  Uiso   1.00
O1095  O     0.24275   0.50000   0.80405   0.00000  Uiso   1.00
O1096  O     0.09058   0.50000   0.78617   0.00000  Uiso   1.00
O1097  O     0.24275   0.50000   0.88050   0.00000  Uiso   1.00
O1098  O     0.26916   0.40699   0.80883   0.00000  Uiso   1.00
Zn1099 Zn    0.16667   0.49999   0.88437   0.00000  Uiso   1.00
Zn1100 Zn    0.16667   0.50001   0.78229   0.00000  Uiso   1.00
C1101  C     0.50164   0.42018   0.83351   0.00000  Uiso   1.00
C1102  C     0.46452   0.35600   0.85453   0.00000  Uiso   1.00
C1103  C     0.49715   0.62401   0.83274   0.00000  Uiso   1.00
C1104  C     0.50285   0.37599   0.83393   0.00000  Uiso   1.00
C1105  C     0.53789   0.52105   0.69654   0.00000  Uiso   1.00
C1106  C     0.46211   0.47895   0.97013   0.00000  Uiso   1.00
C1107  C     0.53837   0.52118   0.98219   0.00000  Uiso   1.00
C1108  C     0.46163   0.47882   0.68448   0.00000  Uiso   1.00
C1109  C     0.58334   0.37372   0.79356   0.00000  Uiso   1.00
C1110  C     0.41666   0.62628   0.87311   0.00000  Uiso   1.00
C1111  C     0.58291   0.54400   0.96581   0.00000  Uiso   1.00
C1112  C     0.49836   0.57982   0.83315   0.00000  Uiso   1.00
C1113  C     0.41709   0.45600   0.70085   0.00000  Uiso   1.00
C1114  C     0.40037   0.49975   0.82125   0.00000  Uiso   1.00
C1115  C     0.59963   0.50025   0.84542   0.00000  Uiso   1.00
C1116  C     0.34511   0.49975   0.81491   0.00000  Uiso   1.00
C1117  C     0.65489   0.50025   0.85176   0.00000  Uiso   1.00
C1118  C     0.53944   0.35373   0.81288   0.00000  Uiso   1.00
C1119  C     0.46056   0.64627   0.85378   0.00000  Uiso   1.00
C1120  C     0.53548   0.64400   0.81214   0.00000  Uiso   1.00
H1121  H     0.65733   0.49938   0.78010   0.00000  Uiso   1.00
H1122  H     0.60425   0.56486   0.99276   0.00000  Uiso   1.00
H1123  H     0.61199   0.52115   0.95717   0.00000  Uiso   1.00
H1124  H     0.43158   0.43580   0.73016   0.00000  Uiso   1.00
H1125  H     0.38801   0.47885   0.70950   0.00000  Uiso   1.00
H1126  H     0.39575   0.43514   0.67391   0.00000  Uiso   1.00
H1127  H     0.34267   0.50062   0.88656   0.00000  Uiso   1.00
H1128  H     0.56366   0.62565   0.79710   0.00000  Uiso   1.00
H1129  H     0.43634   0.37435   0.86957   0.00000  Uiso   1.00
H1130  H     0.56815   0.53757   0.71959   0.00000  Uiso   1.00
H1131  H     0.43185   0.46243   0.94708   0.00000  Uiso   1.00
H1132  H     0.63427   0.36983   0.74880   0.00000  Uiso   1.00
H1133  H     0.36573   0.63017   0.91787   0.00000  Uiso   1.00
H1134  H     0.56842   0.56420   0.93650   0.00000  Uiso   1.00
N1135  N     0.49999   0.49999   0.95240   0.00000  Uiso   1.00
N1136  N     0.50001   0.50001   0.71427   0.00000  Uiso   1.00
O1137  O     0.50000   0.43892   0.87154   0.00000  Uiso   1.00
O1138  O     0.60418   0.35352   0.75874   0.00000  Uiso   1.00
O1139  O     0.39751   0.59301   0.85784   0.00000  Uiso   1.00
O1140  O     0.39582   0.64648   0.90792   0.00000  Uiso   1.00
O1141  O     0.50000   0.56108   0.79513   0.00000  Uiso   1.00
O1142  O     0.50000   0.43893   0.79510   0.00000  Uiso   1.00
O1143  O     0.50000   0.56107   0.87157   0.00000  Uiso   1.00
O1144  O     0.42392   0.50000   0.86261   0.00000  Uiso   1.00
O1145  O     0.57608   0.50000   0.80405   0.00000  Uiso   1.00
O1146  O     0.42392   0.50000   0.78617   0.00000  Uiso   1.00
O1147  O     0.57608   0.50000   0.88050   0.00000  Uiso   1.00
O1148  O     0.60249   0.40699   0.80883   0.00000  Uiso   1.00
Zn1149 Zn    0.50000   0.49999   0.88437   0.00000  Uiso   1.00
Zn1150 Zn    0.50000   0.50001   0.78229   0.00000  Uiso   1.00
C1151  C     0.83497   0.42018   0.83351   0.00000  Uiso   1.00
C1152  C     0.79785   0.35600   0.85453   0.00000  Uiso   1.00
C1153  C     0.83048   0.62401   0.83274   0.00000  Uiso   1.00
C1154  C     0.83618   0.37599   0.83393   0.00000  Uiso   1.00
C1155  C     0.87122   0.52105   0.69654   0.00000  Uiso   1.00
C1156  C     0.79544   0.47895   0.97013   0.00000  Uiso   1.00
C1157  C     0.87170   0.52118   0.98219   0.00000  Uiso   1.00
C1158  C     0.79496   0.47882   0.68448   0.00000  Uiso   1.00
C1159  C     0.91667   0.37372   0.79356   0.00000  Uiso   1.00
C1160  C     0.74999   0.62628   0.87311   0.00000  Uiso   1.00
C1161  C     0.91625   0.54400   0.96581   0.00000  Uiso   1.00
C1162  C     0.83169   0.57982   0.83315   0.00000  Uiso   1.00
C1163  C     0.75042   0.45600   0.70085   0.00000  Uiso   1.00
C1164  C     0.73370   0.49975   0.82125   0.00000  Uiso   1.00
C1165  C     0.93296   0.50025   0.84542   0.00000  Uiso   1.00
C1166  C     0.67844   0.49975   0.81491   0.00000  Uiso   1.00
C1167  C     0.98823   0.50025   0.85176   0.00000  Uiso   1.00
C1168  C     0.87278   0.35373   0.81288   0.00000  Uiso   1.00
C1169  C     0.79389   0.64627   0.85378   0.00000  Uiso   1.00
C1170  C     0.86882   0.64400   0.81214   0.00000  Uiso   1.00
H1171  H     0.99066   0.49938   0.78010   0.00000  Uiso   1.00
H1172  H     0.93758   0.56486   0.99276   0.00000  Uiso   1.00
H1173  H     0.94532   0.52115   0.95717   0.00000  Uiso   1.00
H1174  H     0.76492   0.43580   0.73016   0.00000  Uiso   1.00
H1175  H     0.72134   0.47885   0.70950   0.00000  Uiso   1.00
H1176  H     0.72909   0.43514   0.67391   0.00000  Uiso   1.00
H1177  H     0.67600   0.50062   0.88656   0.00000  Uiso   1.00
H1178  H     0.89700   0.62565   0.79710   0.00000  Uiso   1.00
H1179  H     0.76967   0.37435   0.86957   0.00000  Uiso   1.00
H1180  H     0.90149   0.53757   0.71959   0.00000  Uiso   1.00
H1181  H     0.76518   0.46243   0.94708   0.00000  Uiso   1.00
H1182  H     0.96761   0.36983   0.74880   0.00000  Uiso   1.00
H1183  H     0.69906   0.63017   0.91787   0.00000  Uiso   1.00
H1184  H     0.90175   0.56420   0.93650   0.00000  Uiso   1.00
N1185  N     0.83332   0.49999   0.95240   0.00000  Uiso   1.00
N1186  N     0.83335   0.50001   0.71427   0.00000  Uiso   1.00
O1187  O     0.83333   0.43892   0.87154   0.00000  Uiso   1.00
O1188  O     0.93751   0.35352   0.75874   0.00000  Uiso   1.00
O1189  O     0.73084   0.59301   0.85784   0.00000  Uiso   1.00
O1190  O     0.72916   0.64648   0.90792   0.00000  Uiso   1.00
O1191  O     0.83334   0.56108   0.79513   0.00000  Uiso   1.00
O1192  O     0.83333   0.43893   0.79510   0.00000  Uiso   1.00
O1193  O     0.83334   0.56107   0.87157   0.00000  Uiso   1.00
O1194  O     0.75725   0.50000   0.86261   0.00000  Uiso   1.00
O1195  O     0.90942   0.50000   0.80405   0.00000  Uiso   1.00
O1196  O     0.75725   0.50000   0.78617   0.00000  Uiso   1.00
O1197  O     0.90942   0.50000   0.88050   0.00000  Uiso   1.00
O1198  O     0.93582   0.40699   0.80883   0.00000  Uiso   1.00
Zn1199 Zn    0.83333   0.49999   0.88437   0.00000  Uiso   1.00
Zn1200 Zn    0.83333   0.50001   0.78229   0.00000  Uiso   1.00
C1201  C     0.16831   0.75351   0.83351   0.00000  Uiso   1.00
C1202  C     0.13118   0.68933   0.85453   0.00000  Uiso   1.00
C1203  C     0.16382   0.95734   0.83274   0.00000  Uiso   1.00
C1204  C     0.16952   0.70932   0.83393   0.00000  Uiso   1.00
C1205  C     0.20456   0.85438   0.69654   0.00000  Uiso   1.00
C1206  C     0.12878   0.81228   0.97013   0.00000  Uiso   1.00
C1207  C     0.20504   0.85452   0.98219   0.00000  Uiso   1.00
C1208  C     0.12830   0.81215   0.68448   0.00000  Uiso   1.00
C1209  C     0.25001   0.70706   0.79356   0.00000  Uiso   1.00
C1210  C     0.08333   0.95961   0.87311   0.00000  Uiso   1.00
C1211  C     0.24958   0.87734   0.96581   0.00000  Uiso   1.00
C1212  C     0.16503   0.91315   0.83315   0.00000  Uiso   1.00
C1213  C     0.08375   0.78933   0.70085   0.00000  Uiso   1.00
C1214  C     0.06704   0.83308   0.82125   0.00000  Uiso   1.00
C1215  C     0.26630   0.83359   0.84542   0.00000  Uiso   1.00
C1216  C     0.01177   0.83308   0.81491   0.00000  Uiso   1.00
C1217  C     0.32156   0.83358   0.85176   0.00000  Uiso   1.00
C1218  C     0.20611   0.68707   0.81288   0.00000  Uiso   1.00
C1219  C     0.12722   0.97960   0.85378   0.00000  Uiso   1.00
C1220  C     0.20215   0.97733   0.81214   0.00000  Uiso   1.00
H1221  H     0.32400   0.83272   0.78010   0.00000  Uiso   1.00
H1222  H     0.27091   0.89819   0.99276   0.00000  Uiso   1.00
H1223  H     0.27866   0.85448   0.95717   0.00000  Uiso   1.00
H1224  H     0.09825   0.76914   0.73016   0.00000  Uiso   1.00
H1225  H     0.05468   0.81218   0.70950   0.00000  Uiso   1.00
H1226  H     0.06242   0.76847   0.67391   0.00000  Uiso   1.00
H1227  H     0.00934   0.83395   0.88656   0.00000  Uiso   1.00
H1228  H     0.23033   0.95899   0.79710   0.00000  Uiso   1.00
H1229  H     0.10300   0.70768   0.86957   0.00000  Uiso   1.00
H1230  H     0.23482   0.87090   0.71959   0.00000  Uiso   1.00
H1231  H     0.09851   0.79576   0.94708   0.00000  Uiso   1.00
H1232  H     0.30094   0.70316   0.74880   0.00000  Uiso   1.00
H1233  H     0.03239   0.96350   0.91787   0.00000  Uiso   1.00
H1234  H     0.23508   0.89753   0.93650   0.00000  Uiso   1.00
N1235  N     0.16665   0.83332   0.95240   0.00000  Uiso   1.00
N1236  N     0.16668   0.83334   0.71427   0.00000  Uiso   1.00
O1237  O     0.16666   0.77225   0.87154   0.00000  Uiso   1.00
O1238  O     0.27084   0.68686   0.75874   0.00000  Uiso   1.00
O1239  O     0.06418   0.92635   0.85784   0.00000  Uiso   1.00
O1240  O     0.06249   0.97981   0.90792   0.00000  Uiso   1.00
O1241  O     0.16667   0.89442   0.79513   0.00000  Uiso   1.00
O1242  O     0.16666   0.77226   0.79510   0.00000  Uiso   1.00
O1243  O     0.16667   0.89441   0.87157   0.00000  Uiso   1.00
O1244  O     0.09058   0.83333   0.86261   0.00000  Uiso   1.00
O1245  O     0.24275   0.83334   0.80405   0.00000  Uiso   1.00
O1246  O     0.09058   0.83334   0.78617   0.00000  Uiso   1.00
O1247  O     0.24275   0.83333   0.88050   0.00000  Uiso   1.00
O1248  O     0.26916   0.74032   0.80883   0.00000  Uiso   1.00
Zn1249 Zn    0.16667   0.83333   0.88437   0.00000  Uiso   1.00
Zn1250 Zn    0.16667   0.83334   0.78229   0.00000  Uiso   1.00
C1251  C     0.50164   0.75351   0.83351   0.00000  Uiso   1.00
C1252  C     0.46452   0.68933   0.85453   0.00000  Uiso   1.00
C1253  C     0.49715   0.95734   0.83274   0.00000  Uiso   1.00
C1254  C     0.50285   0.70932   0.83393   0.00000  Uiso   1.00
C1255  C     0.53789   0.85438   0.69654   0.00000  Uiso   1.00
C1256  C     0.46211   0.81228   0.97013   0.00000  Uiso   1.00
C1257  C     0.53837   0.85452   0.98219   0.00000  Uiso   1.00
C1258  C     0.46163   0.81215   0.68448   0.00000  Uiso   1.00
C1259  C     0.58334   0.70706   0.79356   0.00000  Uiso   1.00
C1260  C     0.41666   0.95961   0.87311   0.00000  Uiso   1.00
C1261  C     0.58291   0.87734   0.96581   0.00000  Uiso   1.00
C1262  C     0.49836   0.91315   0.83315   0.00000  Uiso   1.00
C1263  C     0.41709   0.78933   0.70085   0.00000  Uiso   1.00
C1264  C     0.40037   0.83308   0.82125   0.00000  Uiso   1.00
C1265  C     0.59963   0.83359   0.84542   0.00000  Uiso   1.00
C1266  C     0.34511   0.83308   0.81491   0.00000  Uiso   1.00
C1267  C     0.65489   0.83358   0.85176   0.00000  Uiso   1.00
C1268  C     0.53944   0.68707   0.81288   0.00000  Uiso   1.00
C1269  C     0.46056   0.97960   0.85378   0.00000  Uiso   1.00
C1270  C     0.53548   0.97733   0.81214   0.00000  Uiso   1.00
H1271  H     0.65733   0.83272   0.78010   0.00000  Uiso   1.00
H1272  H     0.60425   0.89819   0.99276   0.00000  Uiso   1.00
H1273  H     0.61199   0.85448   0.95717   0.00000  Uiso   1.00
H1274  H     0.43158   0.76914   0.73016   0.00000  Uiso   1.00
H1275  H     0.38801   0.81218   0.70950   0.00000  Uiso   1.00
H1276  H     0.39575   0.76847   0.67391   0.00000  Uiso   1.00
H1277  H     0.34267   0.83395   0.88656   0.00000  Uiso   1.00
H1278  H     0.56366   0.95899   0.79710   0.00000  Uiso   1.00
H1279  H     0.43634   0.70768   0.86957   0.00000  Uiso   1.00
H1280  H     0.56815   0.87090   0.71959   0.00000  Uiso   1.00
H1281  H     0.43185   0.79576   0.94708   0.00000  Uiso   1.00
H1282  H     0.63427   0.70316   0.74880   0.00000  Uiso   1.00
H1283  H     0.36573   0.96350   0.91787   0.00000  Uiso   1.00
H1284  H     0.56842   0.89753   0.93650   0.00000  Uiso   1.00
N1285  N     0.49999   0.83332   0.95240   0.00000  Uiso   1.00
N1286  N     0.50001   0.83334   0.71427   0.00000  Uiso   1.00
O1287  O     0.50000   0.77225   0.87154   0.00000  Uiso   1.00
O1288  O     0.60418   0.68686   0.75874   0.00000  Uiso   1.00
O1289  O     0.39751   0.92635   0.85784   0.00000  Uiso   1.00
O1290  O     0.39582   0.97981   0.90792   0.00000  Uiso   1.00
O1291  O     0.50000   0.89442   0.79513   0.00000  Uiso   1.00
O1292  O     0.50000   0.77226   0.79510   0.00000  Uiso   1.00
O1293  O     0.50000   0.89441   0.87157   0.00000  Uiso   1.00
O1294  O     0.42392   0.83333   0.86261   0.00000  Uiso   1.00
O1295  O     0.57608   0.83334   0.80405   0.00000  Uiso   1.00
O1296  O     0.42392   0.83334   0.78617   0.00000  Uiso   1.00
O1297  O     0.57608   0.83333   0.88050   0.00000  Uiso   1.00
O1298  O     0.60249   0.74032   0.80883   0.00000  Uiso   1.00
Zn1299 Zn    0.50000   0.83333   0.88437   0.00000  Uiso   1.00
Zn1300 Zn    0.50000   0.83334   0.78229   0.00000  Uiso   1.00
C1301  C     0.83497   0.75351   0.83351   0.00000  Uiso   1.00
C1302  C     0.79785   0.68933   0.85453   0.00000  Uiso   1.00
C1303  C     0.83048   0.95734   0.83274   0.00000  Uiso   1.00
C1304  C     0.83618   0.70932   0.83393   0.00000  Uiso   1.00
C1305  C     0.87122   0.85438   0.69654   0.00000  Uiso   1.00
C1306  C     0.79544   0.81228   0.97013   0.00000  Uiso   1.00
C1307  C     0.87170   0.85452   0.98219   0.00000  Uiso   1.00
C1308  C     0.79496   0.81215   0.68448   0.00000  Uiso   1.00
C1309  C     0.91667   0.70706   0.79356   0.00000  Uiso   1.00
C1310  C     0.74999   0.95961   0.87311   0.00000  Uiso   1.00
C1311  C     0.91625   0.87734   0.96581   0.00000  Uiso   1.00
C1312  C     0.83169   0.91315   0.83315   0.00000  Uiso   1.00
C1313  C     0.75042   0.78933   0.70085   0.00000  Uiso   1.00
C1314  C     0.73370   0.83308   0.82125   0.00000  Uiso   1.00
C1315  C     0.93296   0.83359   0.84542   0.00000  Uiso   1.00
C1316  C     0.67844   0.83308   0.81491   0.00000  Uiso   1.00
C1317  C     0.98823   0.83358   0.85176   0.00000  Uiso   1.00
C1318  C     0.87278   0.68707   0.81288   0.00000  Uiso   1.00
C1319  C     0.79389   0.97960   0.85378   0.00000  Uiso   1.00
C1320  C     0.86882   0.97733   0.81214   0.00000  Uiso   1.00
H1321  H     0.99066   0.83272   0.78010   0.00000  Uiso   1.00
H1322  H     0.93758   0.89819   0.99276   0.00000  Uiso   1.00
H1323  H     0.94532   0.85448   0.95717   0.00000  Uiso   1.00
H1324  H     0.76492   0.76914   0.73016   0.00000  Uiso   1.00
H1325  H     0.72134   0.81218   0.70950   0.00000  Uiso   1.00
H1326  H     0.72909   0.76847   0.67391   0.00000  Uiso   1.00
H1327  H     0.67600   0.83395   0.88656   0.00000  Uiso   1.00
H1328  H     0.89700   0.95899   0.79710   0.00000  Uiso   1.00
H1329  H     0.76967   0.70768   0.86957   0.00000  Uiso   1.00
H1330  H     0.90149   0.87090   0.71959   0.00000  Uiso   1.00
H1331  H     0.76518   0.79576   0.94708   0.00000  Uiso   1.00
H1332  H     0.96761   0.70316   0.74880   0.00000  Uiso   1.00
H1333  H     0.69906   0.96350   0.91787   0.00000  Uiso   1.00
H1334  H     0.90175   0.89753   0.93650   0.00000  Uiso   1.00
N1335  N     0.83332   0.83332   0.95240   0.00000  Uiso   1.00
N1336  N     0.83335   0.83334   0.71427   0.00000  Uiso   1.00
O1337  O     0.83333   0.77225   0.87154   0.00000  Uiso   1.00
O1338  O     0.93751   0.68686   0.75874   0.00000  Uiso   1.00
O1339  O     0.73084   0.92635   0.85784   0.00000  Uiso   1.00
O1340  O     0.72916   0.97981   0.90792   0.00000  Uiso   1.00
O1341  O     0.83334   0.89442   0.79513   0.00000  Uiso   1.00
O1342  O     0.83333   0.77226   0.79510   0.00000  Uiso   1.00
O1343  O     0.83334   0.89441   0.87157   0.00000  Uiso   1.00
O1344  O     0.75725   0.83333   0.86261   0.00000  Uiso   1.00
O1345  O     0.90942   0.83334   0.80405   0.00000  Uiso   1.00
O1346  O     0.75725   0.83334   0.78617   0.00000  Uiso   1.00
O1347  O     0.90942   0.83333   0.88050   0.00000  Uiso   1.00
O1348  O     0.93582   0.74032   0.80883   0.00000  Uiso   1.00
Zn1349 Zn    0.83333   0.83333   0.88437   0.00000  Uiso   1.00
Zn1350 Zn    0.83333   0.83334   0.78229   0.00000  Uiso   1.00
loop_
_geom_bond_atom_site_label_1
_geom_bond_atom_site_label_2
_geom_bond_distance
_geom_bond_site_symmetry_2
_ccdc_geom_bond_type
C1     O37     1.285   .     A
C1     C4      1.412   .     S
C1     O42     1.287   .     A
C2     C4      1.395   .     A
C2     H29     1.086   .     S
C2     C319    1.378   1_545 S
C3     C19     1.408   .     A
C3     C20     1.395   .     A
C3     C12     1.412   .     S
C4     C18     1.408   .     A
C5     N36     1.356   .     A
C5     H30     1.083   .     S
C5     C907    1.420   1_554 S
C6     H31     1.083   .     S
C6     N35     1.356   .     A
C6     C458    1.420   .     S
C7     C11     1.501   .     S
C7     N35     1.385   .     A
C7     C455    1.420   .     S
C8     C13     1.501   .     S
C8     N36     1.385   .     A
C8     C906    1.420   1_554 S
C9     C18     1.489   .     S
C9     O38     1.399   .     S
C9     O48     1.222   .     D
C10    C19     1.489   .     S
C10    O40     1.399   .     S
C10    O39     1.222   .     D
C11    H22     1.111   .     S
C11    H23     1.108   .     S
C11    H34     1.103   .     S
C12    O43     1.287   .     A
C12    O41     1.285   .     A
C13    H25     1.108   .     S
C13    H26     1.111   .     S
C13    H24     1.103   .     S
C14    O44     1.280   .     A
C14    O46     1.289   .     A
C14    C16     1.403   .     S
C15    O47     1.289   .     A
C15    O45     1.280   .     A
C15    C17     1.403   .     S
C16    C117    1.336   1_455 S
C16    H121    1.088   1_455 S
C17    C66     1.336   .     S
C17    H77     1.088   .     S
C18    C320    1.378   1_545 S
C19    C152    1.378   .     S
C20    H28     1.086   .     S
C20    C168    1.378   .     S
H21    C66     1.088   .     S
H27    C117    1.088   1_455 S
H32    O38     1.014   .     S
H33    O40     1.014   .     S
N35    Zn49    2.024   .     S
N36    Zn50    2.024   .     S
O37    Zn49    1.986   .     S
O41    Zn50    1.986   .     S
O42    Zn50    1.989   .     S
O43    Zn49    1.989   .     S
O44    Zn49    1.959   .     S
O45    Zn50    1.959   .     S
O46    Zn50    1.979   .     S
O47    Zn49    1.979   .     S
C51    O87     1.285   .     A
C51    C54     1.412   .     S
C51    O92     1.287   .     A
C52    C54     1.395   .     A
C52    H79     1.086   .     S
C52    C369    1.378   1_545 S
C53    C69     1.408   .     A
C53    C70     1.395   .     A
C53    C62     1.412   .     S
C54    C68     1.408   .     A
C55    N86     1.356   .     A
C55    H80     1.083   .     S
C55    C957    1.420   1_554 S
C56    H81     1.083   .     S
C56    N85     1.356   .     A
C56    C508    1.420   .     S
C57    C61     1.501   .     S
C57    N85     1.385   .     A
C57    C505    1.420   .     S
C58    C63     1.501   .     S
C58    N86     1.385   .     A
C58    C956    1.420   1_554 S
C59    C68     1.489   .     S
C59    O88     1.399   .     S
C59    O98     1.222   .     D
C60    C69     1.489   .     S
C60    O90     1.399   .     S
C60    O89     1.222   .     D
C61    H72     1.111   .     S
C61    H73     1.108   .     S
C61    H84     1.103   .     S
C62    O93     1.287   .     A
C62    O91     1.285   .     A
C63    H75     1.108   .     S
C63    H76     1.111   .     S
C63    H74     1.103   .     S
C64    O94     1.280   .     A
C64    O96     1.289   .     A
C64    C66     1.403   .     S
C65    O97     1.289   .     A
C65    O95     1.280   .     A
C65    C67     1.403   .     S
C67    C116    1.336   .     S
C67    H127    1.088   .     S
C68    C370    1.378   1_545 S
C69    C202    1.378   .     S
C70    H78     1.086   .     S
C70    C218    1.378   .     S
H71    C116    1.088   .     S
H82    O88     1.014   .     S
H83    O90     1.014   .     S
N85    Zn99    2.024   .     S
N86    Zn100   2.024   .     S
O87    Zn99    1.986   .     S
O91    Zn100   1.986   .     S
O92    Zn100   1.989   .     S
O93    Zn99    1.989   .     S
O94    Zn99    1.959   .     S
O95    Zn100   1.959   .     S
O96    Zn100   1.979   .     S
O97    Zn99    1.979   .     S
C101   O137    1.285   .     A
C101   C104    1.412   .     S
C101   O142    1.287   .     A
C102   C104    1.395   .     A
C102   H129    1.086   .     S
C102   C419    1.378   1_545 S
C103   C119    1.408   .     A
C103   C120    1.395   .     A
C103   C112    1.412   .     S
C104   C118    1.408   .     A
C105   N136    1.356   .     A
C105   H130    1.083   .     S
C105   C1007   1.420   1_554 S
C106   H131    1.083   .     S
C106   N135    1.356   .     A
C106   C558    1.420   .     S
C107   C111    1.501   .     S
C107   N135    1.385   .     A
C107   C555    1.420   .     S
C108   C113    1.501   .     S
C108   N136    1.385   .     A
C108   C1006   1.420   1_554 S
C109   C118    1.489   .     S
C109   O138    1.399   .     S
C109   O148    1.222   .     D
C110   C119    1.489   .     S
C110   O140    1.399   .     S
C110   O139    1.222   .     D
C111   H122    1.111   .     S
C111   H123    1.108   .     S
C111   H134    1.103   .     S
C112   O143    1.287   .     A
C112   O141    1.285   .     A
C113   H125    1.108   .     S
C113   H126    1.111   .     S
C113   H124    1.103   .     S
C114   O144    1.280   .     A
C114   O146    1.289   .     A
C114   C116    1.403   .     S
C115   O147    1.289   .     A
C115   O145    1.280   .     A
C115   C117    1.403   .     S
C117   C16     1.336   1_655 S
C117   H27     1.088   1_655 S
C118   C420    1.378   1_545 S
C119   C252    1.378   .     S
C120   H128    1.086   .     S
C120   C268    1.378   .     S
H121   C16     1.088   1_655 S
H132   O138    1.014   .     S
H133   O140    1.014   .     S
N135   Zn149   2.024   .     S
N136   Zn150   2.024   .     S
O137   Zn149   1.986   .     S
O141   Zn150   1.986   .     S
O142   Zn150   1.989   .     S
O143   Zn149   1.989   .     S
O144   Zn149   1.959   .     S
O145   Zn150   1.959   .     S
O146   Zn150   1.979   .     S
O147   Zn149   1.979   .     S
C151   O187    1.285   .     A
C151   C154    1.412   .     S
C151   O192    1.287   .     A
C152   C154    1.395   .     A
C152   H179    1.086   .     S
C153   C169    1.408   .     A
C153   C170    1.395   .     A
C153   C162    1.412   .     S
C154   C168    1.408   .     A
C155   N186    1.356   .     A
C155   H180    1.083   .     S
C155   C1057   1.420   1_554 S
C156   H181    1.083   .     S
C156   N185    1.356   .     A
C156   C608    1.420   .     S
C157   C161    1.501   .     S
C157   N185    1.385   .     A
C157   C605    1.420   .     S
C158   C163    1.501   .     S
C158   N186    1.385   .     A
C158   C1056   1.420   1_554 S
C159   C168    1.489   .     S
C159   O188    1.399   .     S
C159   O198    1.222   .     D
C160   C169    1.489   .     S
C160   O190    1.399   .     S
C160   O189    1.222   .     D
C161   H172    1.111   .     S
C161   H173    1.108   .     S
C161   H184    1.103   .     S
C162   O193    1.287   .     A
C162   O191    1.285   .     A
C163   H175    1.108   .     S
C163   H176    1.111   .     S
C163   H174    1.103   .     S
C164   O194    1.280   .     A
C164   O196    1.289   .     A
C164   C166    1.403   .     S
C165   O197    1.289   .     A
C165   O195    1.280   .     A
C165   C167    1.403   .     S
C166   C267    1.336   1_455 S
C166   H271    1.088   1_455 S
C167   C216    1.336   .     S
C167   H227    1.088   .     S
C169   C302    1.378   .     S
C170   H178    1.086   .     S
C170   C318    1.378   .     S
H171   C216    1.088   .     S
H177   C267    1.088   1_455 S
H182   O188    1.014   .     S
H183   O190    1.014   .     S
N185   Zn199   2.024   .     S
N186   Zn200   2.024   .     S
O187   Zn199   1.986   .     S
O191   Zn200   1.986   .     S
O192   Zn200   1.989   .     S
O193   Zn199   1.989   .     S
O194   Zn199   1.959   .     S
O195   Zn200   1.959   .     S
O196   Zn200   1.979   .     S
O197   Zn199   1.979   .     S
C201   O237    1.285   .     A
C201   C204    1.412   .     S
C201   O242    1.287   .     A
C202   C204    1.395   .     A
C202   H229    1.086   .     S
C203   C219    1.408   .     A
C203   C220    1.395   .     A
C203   C212    1.412   .     S
C204   C218    1.408   .     A
C205   N236    1.356   .     A
C205   H230    1.083   .     S
C205   C1107   1.420   1_554 S
C206   H231    1.083   .     S
C206   N235    1.356   .     A
C206   C658    1.420   .     S
C207   C211    1.501   .     S
C207   N235    1.385   .     A
C207   C655    1.420   .     S
C208   C213    1.501   .     S
C208   N236    1.385   .     A
C208   C1106   1.420   1_554 S
C209   C218    1.489   .     S
C209   O238    1.399   .     S
C209   O248    1.222   .     D
C210   C219    1.489   .     S
C210   O240    1.399   .     S
C210   O239    1.222   .     D
C211   H222    1.111   .     S
C211   H223    1.108   .     S
C211   H234    1.103   .     S
C212   O243    1.287   .     A
C212   O241    1.285   .     A
C213   H225    1.108   .     S
C213   H226    1.111   .     S
C213   H224    1.103   .     S
C214   O244    1.280   .     A
C214   O246    1.289   .     A
C214   C216    1.403   .     S
C215   O247    1.289   .     A
C215   O245    1.280   .     A
C215   C217    1.403   .     S
C217   C266    1.336   .     S
C217   H277    1.088   .     S
C219   C352    1.378   .     S
C220   H228    1.086   .     S
C220   C368    1.378   .     S
H221   C266    1.088   .     S
H232   O238    1.014   .     S
H233   O240    1.014   .     S
N235   Zn249   2.024   .     S
N236   Zn250   2.024   .     S
O237   Zn249   1.986   .     S
O241   Zn250   1.986   .     S
O242   Zn250   1.989   .     S
O243   Zn249   1.989   .     S
O244   Zn249   1.959   .     S
O245   Zn250   1.959   .     S
O246   Zn250   1.979   .     S
O247   Zn249   1.979   .     S
C251   O287    1.285   .     A
C251   C254    1.412   .     S
C251   O292    1.287   .     A
C252   C254    1.395   .     A
C252   H279    1.086   .     S
C253   C269    1.408   .     A
C253   C270    1.395   .     A
C253   C262    1.412   .     S
C254   C268    1.408   .     A
C255   N286    1.356   .     A
C255   H280    1.083   .     S
C255   C1157   1.420   1_554 S
C256   H281    1.083   .     S
C256   N285    1.356   .     A
C256   C708    1.420   .     S
C257   C261    1.501   .     S
C257   N285    1.385   .     A
C257   C705    1.420   .     S
C258   C263    1.501   .     S
C258   N286    1.385   .     A
C258   C1156   1.420   1_554 S
C259   C268    1.489   .     S
C259   O288    1.399   .     S
C259   O298    1.222   .     D
C260   C269    1.489   .     S
C260   O290    1.399   .     S
C260   O289    1.222   .     D
C261   H272    1.111   .     S
C261   H273    1.108   .     S
C261   H284    1.103   .     S
C262   O293    1.287   .     A
C262   O291    1.285   .     A
C263   H275    1.108   .     S
C263   H276    1.111   .     S
C263   H274    1.103   .     S
C264   O294    1.280   .     A
C264   O296    1.289   .     A
C264   C266    1.403   .     S
C265   O297    1.289   .     A
C265   O295    1.280   .     A
C265   C267    1.403   .     S
C267   C166    1.336   1_655 S
C267   H177    1.088   1_655 S
C269   C402    1.378   .     S
C270   H278    1.086   .     S
C270   C418    1.378   .     S
H271   C166    1.088   1_655 S
H282   O288    1.014   .     S
H283   O290    1.014   .     S
N285   Zn299   2.024   .     S
N286   Zn300   2.024   .     S
O287   Zn299   1.986   .     S
O291   Zn300   1.986   .     S
O292   Zn300   1.989   .     S
O293   Zn299   1.989   .     S
O294   Zn299   1.959   .     S
O295   Zn300   1.959   .     S
O296   Zn300   1.979   .     S
O297   Zn299   1.979   .     S
C301   O337    1.285   .     A
C301   C304    1.412   .     S
C301   O342    1.287   .     A
C302   C304    1.395   .     A
C302   H329    1.086   .     S
C303   C319    1.408   .     A
C303   C320    1.395   .     A
C303   C312    1.412   .     S
C304   C318    1.408   .     A
C305   N336    1.356   .     A
C305   H330    1.083   .     S
C305   C1207   1.420   1_554 S
C306   H331    1.083   .     S
C306   N335    1.356   .     A
C306   C758    1.420   .     S
C307   C311    1.501   .     S
C307   N335    1.385   .     A
C307   C755    1.420   .     S
C308   C313    1.501   .     S
C308   N336    1.385   .     A
C308   C1206   1.420   1_554 S
C309   C318    1.489   .     S
C309   O338    1.399   .     S
C309   O348    1.222   .     D
C310   C319    1.489   .     S
C310   O340    1.399   .     S
C310   O339    1.222   .     D
C311   H322    1.111   .     S
C311   H323    1.108   .     S
C311   H334    1.103   .     S
C312   O343    1.287   .     A
C312   O341    1.285   .     A
C313   H325    1.108   .     S
C313   H326    1.111   .     S
C313   H324    1.103   .     S
C314   O344    1.280   .     A
C314   O346    1.289   .     A
C314   C316    1.403   .     S
C315   O347    1.289   .     A
C315   O345    1.280   .     A
C315   C317    1.403   .     S
C316   C417    1.336   1_455 S
C316   H421    1.088   1_455 S
C317   C366    1.336   .     S
C317   H377    1.088   .     S
C319   C2      1.378   1_565 S
C320   H328    1.086   .     S
C320   C18     1.378   1_565 S
H321   C366    1.088   .     S
H327   C417    1.088   1_455 S
H332   O338    1.014   .     S
H333   O340    1.014   .     S
N335   Zn349   2.024   .     S
N336   Zn350   2.024   .     S
O337   Zn349   1.986   .     S
O341   Zn350   1.986   .     S
O342   Zn350   1.989   .     S
O343   Zn349   1.989   .     S
O344   Zn349   1.959   .     S
O345   Zn350   1.959   .     S
O346   Zn350   1.979   .     S
O347   Zn349   1.979   .     S
C351   O387    1.285   .     A
C351   C354    1.412   .     S
C351   O392    1.287   .     A
C352   C354    1.395   .     A
C352   H379    1.086   .     S
C353   C369    1.408   .     A
C353   C370    1.395   .     A
C353   C362    1.412   .     S
C354   C368    1.408   .     A
C355   N386    1.356   .     A
C355   H380    1.083   .     S
C355   C1257   1.420   1_554 S
C356   H381    1.083   .     S
C356   N385    1.356   .     A
C356   C808    1.420   .     S
C357   C361    1.501   .     S
C357   N385    1.385   .     A
C357   C805    1.420   .     S
C358   C363    1.501   .     S
C358   N386    1.385   .     A
C358   C1256   1.420   1_554 S
C359   C368    1.489   .     S
C359   O388    1.399   .     S
C359   O398    1.222   .     D
C360   C369    1.489   .     S
C360   O390    1.399   .     S
C360   O389    1.222   .     D
C361   H372    1.111   .     S
C361   H373    1.108   .     S
C361   H384    1.103   .     S
C362   O393    1.287   .     A
C362   O391    1.285   .     A
C363   H375    1.108   .     S
C363   H376    1.111   .     S
C363   H374    1.103   .     S
C364   O394    1.280   .     A
C364   O396    1.289   .     A
C364   C366    1.403   .     S
C365   O397    1.289   .     A
C365   O395    1.280   .     A
C365   C367    1.403   .     S
C367   C416    1.336   .     S
C367   H427    1.088   .     S
C369   C52     1.378   1_565 S
C370   H378    1.086   .     S
C370   C68     1.378   1_565 S
H371   C416    1.088   .     S
H382   O388    1.014   .     S
H383   O390    1.014   .     S
N385   Zn399   2.024   .     S
N386   Zn400   2.024   .     S
O387   Zn399   1.986   .     S
O391   Zn400   1.986   .     S
O392   Zn400   1.989   .     S
O393   Zn399   1.989   .     S
O394   Zn399   1.959   .     S
O395   Zn400   1.959   .     S
O396   Zn400   1.979   .     S
O397   Zn399   1.979   .     S
C401   O437    1.285   .     A
C401   C404    1.412   .     S
C401   O442    1.287   .     A
C402   C404    1.395   .     A
C402   H429    1.086   .     S
C403   C419    1.408   .     A
C403   C420    1.395   .     A
C403   C412    1.412   .     S
C404   C418    1.408   .     A
C405   N436    1.356   .     A
C405   H430    1.083   .     S
C405   C1307   1.420   1_554 S
C406   H431    1.083   .     S
C406   N435    1.356   .     A
C406   C858    1.420   .     S
C407   C411    1.501   .     S
C407   N435    1.385   .     A
C407   C855    1.420   .     S
C408   C413    1.501   .     S
C408   N436    1.385   .     A
C408   C1306   1.420   1_554 S
C409   C418    1.489   .     S
C409   O438    1.399   .     S
C409   O448    1.222   .     D
C410   C419    1.489   .     S
C410   O440    1.399   .     S
C410   O439    1.222   .     D
C411   H422    1.111   .     S
C411   H423    1.108   .     S
C411   H434    1.103   .     S
C412   O443    1.287   .     A
C412   O441    1.285   .     A
C413   H425    1.108   .     S
C413   H426    1.111   .     S
C413   H424    1.103   .     S
C414   O444    1.280   .     A
C414   O446    1.289   .     A
C414   C416    1.403   .     S
C415   O447    1.289   .     A
C415   O445    1.280   .     A
C415   C417    1.403   .     S
C417   C316    1.336   1_655 S
C417   H327    1.088   1_655 S
C419   C102    1.378   1_565 S
C420   H428    1.086   .     S
C420   C118    1.378   1_565 S
H421   C316    1.088   1_655 S
H432   O438    1.014   .     S
H433   O440    1.014   .     S
N435   Zn449   2.024   .     S
N436   Zn450   2.024   .     S
O437   Zn449   1.986   .     S
O441   Zn450   1.986   .     S
O442   Zn450   1.989   .     S
O443   Zn449   1.989   .     S
O444   Zn449   1.959   .     S
O445   Zn450   1.959   .     S
O446   Zn450   1.979   .     S
O447   Zn449   1.979   .     S
C451   O487    1.285   .     A
C451   C454    1.412   .     S
C451   O492    1.287   .     A
C452   C454    1.395   .     A
C452   H479    1.086   .     S
C452   C769    1.378   1_545 S
C453   C469    1.408   .     A
C453   C470    1.395   .     A
C453   C462    1.412   .     S
C454   C468    1.408   .     A
C455   N486    1.356   .     A
C455   H480    1.083   .     S
C456   H481    1.083   .     S
C456   N485    1.356   .     A
C456   C908    1.420   .     S
C457   C461    1.501   .     S
C457   N485    1.385   .     A
C457   C905    1.420   .     S
C458   C463    1.501   .     S
C458   N486    1.385   .     A
C459   C468    1.489   .     S
C459   O488    1.399   .     S
C459   O498    1.222   .     D
C460   C469    1.489   .     S
C460   O490    1.399   .     S
C460   O489    1.222   .     D
C461   H472    1.111   .     S
C461   H473    1.108   .     S
C461   H484    1.103   .     S
C462   O493    1.287   .     A
C462   O491    1.285   .     A
C463   H475    1.108   .     S
C463   H476    1.111   .     S
C463   H474    1.103   .     S
C464   O494    1.280   .     A
C464   O496    1.289   .     A
C464   C466    1.403   .     S
C465   O497    1.289   .     A
C465   O495    1.280   .     A
C465   C467    1.403   .     S
C466   C567    1.336   1_455 S
C466   H571    1.088   1_455 S
C467   C516    1.336   .     S
C467   H527    1.088   .     S
C468   C770    1.378   1_545 S
C469   C602    1.378   .     S
C470   H478    1.086   .     S
C470   C618    1.378   .     S
H471   C516    1.088   .     S
H477   C567    1.088   1_455 S
H482   O488    1.014   .     S
H483   O490    1.014   .     S
N485   Zn499   2.024   .     S
N486   Zn500   2.024   .     S
O487   Zn499   1.986   .     S
O491   Zn500   1.986   .     S
O492   Zn500   1.989   .     S
O493   Zn499   1.989   .     S
O494   Zn499   1.959   .     S
O495   Zn500   1.959   .     S
O496   Zn500   1.979   .     S
O497   Zn499   1.979   .     S
C501   O537    1.285   .     A
C501   C504    1.412   .     S
C501   O542    1.287   .     A
C502   C504    1.395   .     A
C502   H529    1.086   .     S
C502   C819    1.378   1_545 S
C503   C519    1.408   .     A
C503   C520    1.395   .     A
C503   C512    1.412   .     S
C504   C518    1.408   .     A
C505   N536    1.356   .     A
C505   H530    1.083   .     S
C506   H531    1.083   .     S
C506   N535    1.356   .     A
C506   C958    1.420   .     S
C507   C511    1.501   .     S
C507   N535    1.385   .     A
C507   C955    1.420   .     S
C508   C513    1.501   .     S
C508   N536    1.385   .     A
C509   C518    1.489   .     S
C509   O538    1.399   .     S
C509   O548    1.222   .     D
C510   C519    1.489   .     S
C510   O540    1.399   .     S
C510   O539    1.222   .     D
C511   H522    1.111   .     S
C511   H523    1.108   .     S
C511   H534    1.103   .     S
C512   O543    1.287   .     A
C512   O541    1.285   .     A
C513   H525    1.108   .     S
C513   H526    1.111   .     S
C513   H524    1.103   .     S
C514   O544    1.280   .     A
C514   O546    1.289   .     A
C514   C516    1.403   .     S
C515   O547    1.289   .     A
C515   O545    1.280   .     A
C515   C517    1.403   .     S
C517   C566    1.336   .     S
C517   H577    1.088   .     S
C518   C820    1.378   1_545 S
C519   C652    1.378   .     S
C520   H528    1.086   .     S
C520   C668    1.378   .     S
H521   C566    1.088   .     S
H532   O538    1.014   .     S
H533   O540    1.014   .     S
N535   Zn549   2.024   .     S
N536   Zn550   2.024   .     S
O537   Zn549   1.986   .     S
O541   Zn550   1.986   .     S
O542   Zn550   1.989   .     S
O543   Zn549   1.989   .     S
O544   Zn549   1.959   .     S
O545   Zn550   1.959   .     S
O546   Zn550   1.979   .     S
O547   Zn549   1.979   .     S
C551   O587    1.285   .     A
C551   C554    1.412   .     S
C551   O592    1.287   .     A
C552   C554    1.395   .     A
C552   H579    1.086   .     S
C552   C869    1.378   1_545 S
C553   C569    1.408   .     A
C553   C570    1.395   .     A
C553   C562    1.412   .     S
C554   C568    1.408   .     A
C555   N586    1.356   .     A
C555   H580    1.083   .     S
C556   H581    1.083   .     S
C556   N585    1.356   .     A
C556   C1008   1.420   .     S
C557   C561    1.501   .     S
C557   N585    1.385   .     A
C557   C1005   1.420   .     S
C558   C563    1.501   .     S
C558   N586    1.385   .     A
C559   C568    1.489   .     S
C559   O588    1.399   .     S
C559   O598    1.222   .     D
C560   C569    1.489   .     S
C560   O590    1.399   .     S
C560   O589    1.222   .     D
C561   H572    1.111   .     S
C561   H573    1.108   .     S
C561   H584    1.103   .     S
C562   O593    1.287   .     A
C562   O591    1.285   .     A
C563   H575    1.108   .     S
C563   H576    1.111   .     S
C563   H574    1.103   .     S
C564   O594    1.280   .     A
C564   O596    1.289   .     A
C564   C566    1.403   .     S
C565   O597    1.289   .     A
C565   O595    1.280   .     A
C565   C567    1.403   .     S
C567   C466    1.336   1_655 S
C567   H477    1.088   1_655 S
C568   C870    1.378   1_545 S
C569   C702    1.378   .     S
C570   H578    1.086   .     S
C570   C718    1.378   .     S
H571   C466    1.088   1_655 S
H582   O588    1.014   .     S
H583   O590    1.014   .     S
N585   Zn599   2.024   .     S
N586   Zn600   2.024   .     S
O587   Zn599   1.986   .     S
O591   Zn600   1.986   .     S
O592   Zn600   1.989   .     S
O593   Zn599   1.989   .     S
O594   Zn599   1.959   .     S
O595   Zn600   1.959   .     S
O596   Zn600   1.979   .     S
O597   Zn599   1.979   .     S
C601   O637    1.285   .     A
C601   C604    1.412   .     S
C601   O642    1.287   .     A
C602   C604    1.395   .     A
C602   H629    1.086   .     S
C603   C619    1.408   .     A
C603   C620    1.395   .     A
C603   C612    1.412   .     S
C604   C618    1.408   .     A
C605   N636    1.356   .     A
C605   H630    1.083   .     S
C606   H631    1.083   .     S
C606   N635    1.356   .     A
C606   C1058   1.420   .     S
C607   C611    1.501   .     S
C607   N635    1.385   .     A
C607   C1055   1.420   .     S
C608   C613    1.501   .     S
C608   N636    1.385   .     A
C609   C618    1.489   .     S
C609   O638    1.399   .     S
C609   O648    1.222   .     D
C610   C619    1.489   .     S
C610   O640    1.399   .     S
C610   O639    1.222   .     D
C611   H622    1.111   .     S
C611   H623    1.108   .     S
C611   H634    1.103   .     S
C612   O643    1.287   .     A
C612   O641    1.285   .     A
C613   H625    1.108   .     S
C613   H626    1.111   .     S
C613   H624    1.103   .     S
C614   O644    1.280   .     A
C614   O646    1.289   .     A
C614   C616    1.403   .     S
C615   O647    1.289   .     A
C615   O645    1.280   .     A
C615   C617    1.403   .     S
C616   C717    1.336   1_455 S
C616   H721    1.088   1_455 S
C617   C666    1.336   .     S
C617   H677    1.088   .     S
C619   C752    1.378   .     S
C620   H628    1.086   .     S
C620   C768    1.378   .     S
H621   C666    1.088   .     S
H627   C717    1.088   1_455 S
H632   O638    1.014   .     S
H633   O640    1.014   .     S
N635   Zn649   2.024   .     S
N636   Zn650   2.024   .     S
O637   Zn649   1.986   .     S
O641   Zn650   1.986   .     S
O642   Zn650   1.989   .     S
O643   Zn649   1.989   .     S
O644   Zn649   1.959   .     S
O645   Zn650   1.959   .     S
O646   Zn650   1.979   .     S
O647   Zn649   1.979   .     S
C651   O687    1.285   .     A
C651   C654    1.412   .     S
C651   O692    1.287   .     A
C652   C654    1.395   .     A
C652   H679    1.086   .     S
C653   C669    1.408   .     A
C653   C670    1.395   .     A
C653   C662    1.412   .     S
C654   C668    1.408   .     A
C655   N686    1.356   .     A
C655   H680    1.083   .     S
C656   H681    1.083   .     S
C656   N685    1.356   .     A
C656   C1108   1.420   .     S
C657   C661    1.501   .     S
C657   N685    1.385   .     A
C657   C1105   1.420   .     S
C658   C663    1.501   .     S
C658   N686    1.385   .     A
C659   C668    1.489   .     S
C659   O688    1.399   .     S
C659   O698    1.222   .     D
C660   C669    1.489   .     S
C660   O690    1.399   .     S
C660   O689    1.222   .     D
C661   H672    1.111   .     S
C661   H673    1.108   .     S
C661   H684    1.103   .     S
C662   O693    1.287   .     A
C662   O691    1.285   .     A
C663   H675    1.108   .     S
C663   H676    1.111   .     S
C663   H674    1.103   .     S
C664   O694    1.280   .     A
C664   O696    1.289   .     A
C664   C666    1.403   .     S
C665   O697    1.289   .     A
C665   O695    1.280   .     A
C665   C667    1.403   .     S
C667   C716    1.336   .     S
C667   H727    1.088   .     S
C669   C802    1.378   .     S
C670   H678    1.086   .     S
C670   C818    1.378   .     S
H671   C716    1.088   .     S
H682   O688    1.014   .     S
H683   O690    1.014   .     S
N685   Zn699   2.024   .     S
N686   Zn700   2.024   .     S
O687   Zn699   1.986   .     S
O691   Zn700   1.986   .     S
O692   Zn700   1.989   .     S
O693   Zn699   1.989   .     S
O694   Zn699   1.959   .     S
O695   Zn700   1.959   .     S
O696   Zn700   1.979   .     S
O697   Zn699   1.979   .     S
C701   O737    1.285   .     A
C701   C704    1.412   .     S
C701   O742    1.287   .     A
C702   C704    1.395   .     A
C702   H729    1.086   .     S
C703   C719    1.408   .     A
C703   C720    1.395   .     A
C703   C712    1.412   .     S
C704   C718    1.408   .     A
C705   N736    1.356   .     A
C705   H730    1.083   .     S
C706   H731    1.083   .     S
C706   N735    1.356   .     A
C706   C1158   1.420   .     S
C707   C711    1.501   .     S
C707   N735    1.385   .     A
C707   C1155   1.420   .     S
C708   C713    1.501   .     S
C708   N736    1.385   .     A
C709   C718    1.489   .     S
C709   O738    1.399   .     S
C709   O748    1.222   .     D
C710   C719    1.489   .     S
C710   O740    1.399   .     S
C710   O739    1.222   .     D
C711   H722    1.111   .     S
C711   H723    1.108   .     S
C711   H734    1.103   .     S
C712   O743    1.287   .     A
C712   O741    1.285   .     A
C713   H725    1.108   .     S
C713   H726    1.111   .     S
C713   H724    1.103   .     S
C714   O744    1.280   .     A
C714   O746    1.289   .     A
C714   C716    1.403   .     S
C715   O747    1.289   .     A
C715   O745    1.280   .     A
C715   C717    1.403   .     S
C717   C616    1.336   1_655 S
C717   H627    1.088   1_655 S
C719   C852    1.378   .     S
C720   H728    1.086   .     S
C720   C868    1.378   .     S
H721   C616    1.088   1_655 S
H732   O738    1.014   .     S
H733   O740    1.014   .     S
N735   Zn749   2.024   .     S
N736   Zn750   2.024   .     S
O737   Zn749   1.986   .     S
O741   Zn750   1.986   .     S
O742   Zn750   1.989   .     S
O743   Zn749   1.989   .     S
O744   Zn749   1.959   .     S
O745   Zn750   1.959   .     S
O746   Zn750   1.979   .     S
O747   Zn749   1.979   .     S
C751   O787    1.285   .     A
C751   C754    1.412   .     S
C751   O792    1.287   .     A
C752   C754    1.395   .     A
C752   H779    1.086   .     S
C753   C769    1.408   .     A
C753   C770    1.395   .     A
C753   C762    1.412   .     S
C754   C768    1.408   .     A
C755   N786    1.356   .     A
C755   H780    1.083   .     S
C756   H781    1.083   .     S
C756   N785    1.356   .     A
C756   C1208   1.420   .     S
C757   C761    1.501   .     S
C757   N785    1.385   .     A
C757   C1205   1.420   .     S
C758   C763    1.501   .     S
C758   N786    1.385   .     A
C759   C768    1.489   .     S
C759   O788    1.399   .     S
C759   O798    1.222   .     D
C760   C769    1.489   .     S
C760   O790    1.399   .     S
C760   O789    1.222   .     D
C761   H772    1.111   .     S
C761   H773    1.108   .     S
C761   H784    1.103   .     S
C762   O793    1.287   .     A
C762   O791    1.285   .     A
C763   H775    1.108   .     S
C763   H776    1.111   .     S
C763   H774    1.103   .     S
C764   O794    1.280   .     A
C764   O796    1.289   .     A
C764   C766    1.403   .     S
C765   O797    1.289   .     A
C765   O795    1.280   .     A
C765   C767    1.403   .     S
C766   C867    1.336   1_455 S
C766   H871    1.088   1_455 S
C767   C816    1.336   .     S
C767   H827    1.088   .     S
C769   C452    1.378   1_565 S
C770   H778    1.086   .     S
C770   C468    1.378   1_565 S
H771   C816    1.088   .     S
H777   C867    1.088   1_455 S
H782   O788    1.014   .     S
H783   O790    1.014   .     S
N785   Zn799   2.024   .     S
N786   Zn800   2.024   .     S
O787   Zn799   1.986   .     S
O791   Zn800   1.986   .     S
O792   Zn800   1.989   .     S
O793   Zn799   1.989   .     S
O794   Zn799   1.959   .     S
O795   Zn800   1.959   .     S
O796   Zn800   1.979   .     S
O797   Zn799   1.979   .     S
C801   O837    1.285   .     A
C801   C804    1.412   .     S
C801   O842    1.287   .     A
C802   C804    1.395   .     A
C802   H829    1.086   .     S
C803   C819    1.408   .     A
C803   C820    1.395   .     A
C803   C812    1.412   .     S
C804   C818    1.408   .     A
C805   N836    1.356   .     A
C805   H830    1.083   .     S
C806   H831    1.083   .     S
C806   N835    1.356   .     A
C806   C1258   1.420   .     S
C807   C811    1.501   .     S
C807   N835    1.385   .     A
C807   C1255   1.420   .     S
C808   C813    1.501   .     S
C808   N836    1.385   .     A
C809   C818    1.489   .     S
C809   O838    1.399   .     S
C809   O848    1.222   .     D
C810   C819    1.489   .     S
C810   O840    1.399   .     S
C810   O839    1.222   .     D
C811   H822    1.111   .     S
C811   H823    1.108   .     S
C811   H834    1.103   .     S
C812   O843    1.287   .     A
C812   O841    1.285   .     A
C813   H825    1.108   .     S
C813   H826    1.111   .     S
C813   H824    1.103   .     S
C814   O844    1.280   .     A
C814   O846    1.289   .     A
C814   C816    1.403   .     S
C815   O847    1.289   .     A
C815   O845    1.280   .     A
C815   C817    1.403   .     S
C817   C866    1.336   .     S
C817   H877    1.088   .     S
C819   C502    1.378   1_565 S
C820   H828    1.086   .     S
C820   C518    1.378   1_565 S
H821   C866    1.088   .     S
H832   O838    1.014   .     S
H833   O840    1.014   .     S
N835   Zn849   2.024   .     S
N836   Zn850   2.024   .     S
O837   Zn849   1.986   .     S
O841   Zn850   1.986   .     S
O842   Zn850   1.989   .     S
O843   Zn849   1.989   .     S
O844   Zn849   1.959   .     S
O845   Zn850   1.959   .     S
O846   Zn850   1.979   .     S
O847   Zn849   1.979   .     S
C851   O887    1.285   .     A
C851   C854    1.412   .     S
C851   O892    1.287   .     A
C852   C854    1.395   .     A
C852   H879    1.086   .     S
C853   C869    1.408   .     A
C853   C870    1.395   .     A
C853   C862    1.412   .     S
C854   C868    1.408   .     A
C855   N886    1.356   .     A
C855   H880    1.083   .     S
C856   H881    1.083   .     S
C856   N885    1.356   .     A
C856   C1308   1.420   .     S
C857   C861    1.501   .     S
C857   N885    1.385   .     A
C857   C1305   1.420   .     S
C858   C863    1.501   .     S
C858   N886    1.385   .     A
C859   C868    1.489   .     S
C859   O888    1.399   .     S
C859   O898    1.222   .     D
C860   C869    1.489   .     S
C860   O890    1.399   .     S
C860   O889    1.222   .     D
C861   H872    1.111   .     S
C861   H873    1.108   .     S
C861   H884    1.103   .     S
C862   O893    1.287   .     A
C862   O891    1.285   .     A
C863   H875    1.108   .     S
C863   H876    1.111   .     S
C863   H874    1.103   .     S
C864   O894    1.280   .     A
C864   O896    1.289   .     A
C864   C866    1.403   .     S
C865   O897    1.289   .     A
C865   O895    1.280   .     A
C865   C867    1.403   .     S
C867   C766    1.336   1_655 S
C867   H777    1.088   1_655 S
C869   C552    1.378   1_565 S
C870   H878    1.086   .     S
C870   C568    1.378   1_565 S
H871   C766    1.088   1_655 S
H882   O888    1.014   .     S
H883   O890    1.014   .     S
N885   Zn899   2.024   .     S
N886   Zn900   2.024   .     S
O887   Zn899   1.986   .     S
O891   Zn900   1.986   .     S
O892   Zn900   1.989   .     S
O893   Zn899   1.989   .     S
O894   Zn899   1.959   .     S
O895   Zn900   1.959   .     S
O896   Zn900   1.979   .     S
O897   Zn899   1.979   .     S
C901   O937    1.285   .     A
C901   C904    1.412   .     S
C901   O942    1.287   .     A
C902   C904    1.395   .     A
C902   H929    1.086   .     S
C902   C1219   1.378   1_545 S
C903   C919    1.408   .     A
C903   C920    1.395   .     A
C903   C912    1.412   .     S
C904   C918    1.408   .     A
C905   N936    1.356   .     A
C905   H930    1.083   .     S
C906   H931    1.083   .     S
C906   N935    1.356   .     A
C906   C8      1.420   1_556 S
C907   C911    1.501   .     S
C907   N935    1.385   .     A
C907   C5      1.420   1_556 S
C908   C913    1.501   .     S
C908   N936    1.385   .     A
C909   C918    1.489   .     S
C909   O938    1.399   .     S
C909   O948    1.222   .     D
C910   C919    1.489   .     S
C910   O940    1.399   .     S
C910   O939    1.222   .     D
C911   H922    1.111   .     S
C911   H923    1.108   .     S
C911   H934    1.103   .     S
C912   O943    1.287   .     A
C912   O941    1.285   .     A
C913   H925    1.108   .     S
C913   H926    1.111   .     S
C913   H924    1.103   .     S
C914   O944    1.280   .     A
C914   O946    1.289   .     A
C914   C916    1.403   .     S
C915   O947    1.289   .     A
C915   O945    1.280   .     A
C915   C917    1.403   .     S
C916   C1017   1.336   1_455 S
C916   H1021   1.088   1_455 S
C917   C966    1.336   .     S
C917   H977    1.088   .     S
C918   C1220   1.378   1_545 S
C919   C1052   1.378   .     S
C920   H928    1.086   .     S
C920   C1068   1.378   .     S
H921   C966    1.088   .     S
H927   C1017   1.088   1_455 S
H932   O938    1.014   .     S
H933   O940    1.014   .     S
N935   Zn949   2.024   .     S
N936   Zn950   2.024   .     S
O937   Zn949   1.986   .     S
O941   Zn950   1.986   .     S
O942   Zn950   1.989   .     S
O943   Zn949   1.989   .     S
O944   Zn949   1.959   .     S
O945   Zn950   1.959   .     S
O946   Zn950   1.979   .     S
O947   Zn949   1.979   .     S
C951   O987    1.285   .     A
C951   C954    1.412   .     S
C951   O992    1.287   .     A
C952   C954    1.395   .     A
C952   H979    1.086   .     S
C952   C1269   1.378   1_545 S
C953   C969    1.408   .     A
C953   C970    1.395   .     A
C953   C962    1.412   .     S
C954   C968    1.408   .     A
C955   N986    1.356   .     A
C955   H980    1.083   .     S
C956   H981    1.083   .     S
C956   N985    1.356   .     A
C956   C58     1.420   1_556 S
C957   C961    1.501   .     S
C957   N985    1.385   .     A
C957   C55     1.420   1_556 S
C958   C963    1.501   .     S
C958   N986    1.385   .     A
C959   C968    1.489   .     S
C959   O988    1.399   .     S
C959   O998    1.222   .     D
C960   C969    1.489   .     S
C960   O990    1.399   .     S
C960   O989    1.222   .     D
C961   H972    1.111   .     S
C961   H973    1.108   .     S
C961   H984    1.103   .     S
C962   O993    1.287   .     A
C962   O991    1.285   .     A
C963   H975    1.108   .     S
C963   H976    1.111   .     S
C963   H974    1.103   .     S
C964   O994    1.280   .     A
C964   O996    1.289   .     A
C964   C966    1.403   .     S
C965   O997    1.289   .     A
C965   O995    1.280   .     A
C965   C967    1.403   .     S
C967   C1016   1.336   .     S
C967   H1027   1.088   .     S
C968   C1270   1.378   1_545 S
C969   C1102   1.378   .     S
C970   H978    1.086   .     S
C970   C1118   1.378   .     S
H971   C1016   1.088   .     S
H982   O988    1.014   .     S
H983   O990    1.014   .     S
N985   Zn999   2.024   .     S
N986   Zn1000  2.024   .     S
O987   Zn999   1.986   .     S
O991   Zn1000  1.986   .     S
O992   Zn1000  1.989   .     S
O993   Zn999   1.989   .     S
O994   Zn999   1.959   .     S
O995   Zn1000  1.959   .     S
O996   Zn1000  1.979   .     S
O997   Zn999   1.979   .     S
C1001  O1037   1.285   .     A
C1001  C1004   1.412   .     S
C1001  O1042   1.287   .     A
C1002  C1004   1.395   .     A
C1002  H1029   1.086   .     S
C1002  C1319   1.378   1_545 S
C1003  C1019   1.408   .     A
C1003  C1020   1.395   .     A
C1003  C1012   1.412   .     S
C1004  C1018   1.408   .     A
C1005  N1036   1.356   .     A
C1005  H1030   1.083   .     S
C1006  H1031   1.083   .     S
C1006  N1035   1.356   .     A
C1006  C108    1.420   1_556 S
C1007  C1011   1.501   .     S
C1007  N1035   1.385   .     A
C1007  C105    1.420   1_556 S
C1008  C1013   1.501   .     S
C1008  N1036   1.385   .     A
C1009  C1018   1.489   .     S
C1009  O1038   1.399   .     S
C1009  O1048   1.222   .     D
C1010  C1019   1.489   .     S
C1010  O1040   1.399   .     S
C1010  O1039   1.222   .     D
C1011  H1022   1.111   .     S
C1011  H1023   1.108   .     S
C1011  H1034   1.103   .     S
C1012  O1043   1.287   .     A
C1012  O1041   1.285   .     A
C1013  H1025   1.108   .     S
C1013  H1026   1.111   .     S
C1013  H1024   1.103   .     S
C1014  O1044   1.280   .     A
C1014  O1046   1.289   .     A
C1014  C1016   1.403   .     S
C1015  O1047   1.289   .     A
C1015  O1045   1.280   .     A
C1015  C1017   1.403   .     S
C1017  C916    1.336   1_655 S
C1017  H927    1.088   1_655 S
C1018  C1320   1.378   1_545 S
C1019  C1152   1.378   .     S
C1020  H1028   1.086   .     S
C1020  C1168   1.378   .     S
H1021  C916    1.088   1_655 S
H1032  O1038   1.014   .     S
H1033  O1040   1.014   .     S
N1035  Zn1049  2.024   .     S
N1036  Zn1050  2.024   .     S
O1037  Zn1049  1.986   .     S
O1041  Zn1050  1.986   .     S
O1042  Zn1050  1.989   .     S
O1043  Zn1049  1.989   .     S
O1044  Zn1049  1.959   .     S
O1045  Zn1050  1.959   .     S
O1046  Zn1050  1.979   .     S
O1047  Zn1049  1.979   .     S
C1051  O1087   1.285   .     A
C1051  C1054   1.412   .     S
C1051  O1092   1.287   .     A
C1052  C1054   1.395   .     A
C1052  H1079   1.086   .     S
C1053  C1069   1.408   .     A
C1053  C1070   1.395   .     A
C1053  C1062   1.412   .     S
C1054  C1068   1.408   .     A
C1055  N1086   1.356   .     A
C1055  H1080   1.083   .     S
C1056  H1081   1.083   .     S
C1056  N1085   1.356   .     A
C1056  C158    1.420   1_556 S
C1057  C1061   1.501   .     S
C1057  N1085   1.385   .     A
C1057  C155    1.420   1_556 S
C1058  C1063   1.501   .     S
C1058  N1086   1.385   .     A
C1059  C1068   1.489   .     S
C1059  O1088   1.399   .     S
C1059  O1098   1.222   .     D
C1060  C1069   1.489   .     S
C1060  O1090   1.399   .     S
C1060  O1089   1.222   .     D
C1061  H1072   1.111   .     S
C1061  H1073   1.108   .     S
C1061  H1084   1.103   .     S
C1062  O1093   1.287   .     A
C1062  O1091   1.285   .     A
C1063  H1075   1.108   .     S
C1063  H1076   1.111   .     S
C1063  H1074   1.103   .     S
C1064  O1094   1.280   .     A
C1064  O1096   1.289   .     A
C1064  C1066   1.403   .     S
C1065  O1097   1.289   .     A
C1065  O1095   1.280   .     A
C1065  C1067   1.403   .     S
C1066  C1167   1.336   1_455 S
C1066  H1171   1.088   1_455 S
C1067  C1116   1.336   .     S
C1067  H1127   1.088   .     S
C1069  C1202   1.378   .     S
C1070  H1078   1.086   .     S
C1070  C1218   1.378   .     S
H1071  C1116   1.088   .     S
H1077  C1167   1.088   1_455 S
H1082  O1088   1.014   .     S
H1083  O1090   1.014   .     S
N1085  Zn1099  2.024   .     S
N1086  Zn1100  2.024   .     S
O1087  Zn1099  1.986   .     S
O1091  Zn1100  1.986   .     S
O1092  Zn1100  1.989   .     S
O1093  Zn1099  1.989   .     S
O1094  Zn1099  1.959   .     S
O1095  Zn1100  1.959   .     S
O1096  Zn1100  1.979   .     S
O1097  Zn1099  1.979   .     S
C1101  O1137   1.285   .     A
C1101  C1104   1.412   .     S
C1101  O1142   1.287   .     A
C1102  C1104   1.395   .     A
C1102  H1129   1.086   .     S
C1103  C1119   1.408   .     A
C1103  C1120   1.395   .     A
C1103  C1112   1.412   .     S
C1104  C1118   1.408   .     A
C1105  N1136   1.356   .     A
C1105  H1130   1.083   .     S
C1106  H1131   1.083   .     S
C1106  N1135   1.356   .     A
C1106  C208    1.420   1_556 S
C1107  C1111   1.501   .     S
C1107  N1135   1.385   .     A
C1107  C205    1.420   1_556 S
C1108  C1113   1.501   .     S
C1108  N1136   1.385   .     A
C1109  C1118   1.489   .     S
C1109  O1138   1.399   .     S
C1109  O1148   1.222   .     D
C1110  C1119   1.489   .     S
C1110  O1140   1.399   .     S
C1110  O1139   1.222   .     D
C1111  H1122   1.111   .     S
C1111  H1123   1.108   .     S
C1111  H1134   1.103   .     S
C1112  O1143   1.287   .     A
C1112  O1141   1.285   .     A
C1113  H1125   1.108   .     S
C1113  H1126   1.111   .     S
C1113  H1124   1.103   .     S
C1114  O1144   1.280   .     A
C1114  O1146   1.289   .     A
C1114  C1116   1.403   .     S
C1115  O1147   1.289   .     A
C1115  O1145   1.280   .     A
C1115  C1117   1.403   .     S
C1117  C1166   1.336   .     S
C1117  H1177   1.088   .     S
C1119  C1252   1.378   .     S
C1120  H1128   1.086   .     S
C1120  C1268   1.378   .     S
H1121  C1166   1.088   .     S
H1132  O1138   1.014   .     S
H1133  O1140   1.014   .     S
N1135  Zn1149  2.024   .     S
N1136  Zn1150  2.024   .     S
O1137  Zn1149  1.986   .     S
O1141  Zn1150  1.986   .     S
O1142  Zn1150  1.989   .     S
O1143  Zn1149  1.989   .     S
O1144  Zn1149  1.959   .     S
O1145  Zn1150  1.959   .     S
O1146  Zn1150  1.979   .     S
O1147  Zn1149  1.979   .     S
C1151  O1187   1.285   .     A
C1151  C1154   1.412   .     S
C1151  O1192   1.287   .     A
C1152  C1154   1.395   .     A
C1152  H1179   1.086   .     S
C1153  C1169   1.408   .     A
C1153  C1170   1.395   .     A
C1153  C1162   1.412   .     S
C1154  C1168   1.408   .     A
C1155  N1186   1.356   .     A
C1155  H1180   1.083   .     S
C1156  H1181   1.083   .     S
C1156  N1185   1.356   .     A
C1156  C258    1.420   1_556 S
C1157  C1161   1.501   .     S
C1157  N1185   1.385   .     A
C1157  C255    1.420   1_556 S
C1158  C1163   1.501   .     S
C1158  N1186   1.385   .     A
C1159  C1168   1.489   .     S
C1159  O1188   1.399   .     S
C1159  O1198   1.222   .     D
C1160  C1169   1.489   .     S
C1160  O1190   1.399   .     S
C1160  O1189   1.222   .     D
C1161  H1172   1.111   .     S
C1161  H1173   1.108   .     S
C1161  H1184   1.103   .     S
C1162  O1193   1.287   .     A
C1162  O1191   1.285   .     A
C1163  H1175   1.108   .     S
C1163  H1176   1.111   .     S
C1163  H1174   1.103   .     S
C1164  O1194   1.280   .     A
C1164  O1196   1.289   .     A
C1164  C1166   1.403   .     S
C1165  O1197   1.289   .     A
C1165  O1195   1.280   .     A
C1165  C1167   1.403   .     S
C1167  C1066   1.336   1_655 S
C1167  H1077   1.088   1_655 S
C1169  C1302   1.378   .     S
C1170  H1178   1.086   .     S
C1170  C1318   1.378   .     S
H1171  C1066   1.088   1_655 S
H1182  O1188   1.014   .     S
H1183  O1190   1.014   .     S
N1185  Zn1199  2.024   .     S
N1186  Zn1200  2.024   .     S
O1187  Zn1199  1.986   .     S
O1191  Zn1200  1.986   .     S
O1192  Zn1200  1.989   .     S
O1193  Zn1199  1.989   .     S
O1194  Zn1199  1.959   .     S
O1195  Zn1200  1.959   .     S
O1196  Zn1200  1.979   .     S
O1197  Zn1199  1.979   .     S
C1201  O1237   1.285   .     A
C1201  C1204   1.412   .     S
C1201  O1242   1.287   .     A
C1202  C1204   1.395   .     A
C1202  H1229   1.086   .     S
C1203  C1219   1.408   .     A
C1203  C1220   1.395   .     A
C1203  C1212   1.412   .     S
C1204  C1218   1.408   .     A
C1205  N1236   1.356   .     A
C1205  H1230   1.083   .     S
C1206  H1231   1.083   .     S
C1206  N1235   1.356   .     A
C1206  C308    1.420   1_556 S
C1207  C1211   1.501   .     S
C1207  N1235   1.385   .     A
C1207  C305    1.420   1_556 S
C1208  C1213   1.501   .     S
C1208  N1236   1.385   .     A
C1209  C1218   1.489   .     S
C1209  O1238   1.399   .     S
C1209  O1248   1.222   .     D
C1210  C1219   1.489   .     S
C1210  O1240   1.399   .     S
C1210  O1239   1.222   .     D
C1211  H1222   1.111   .     S
C1211  H1223   1.108   .     S
C1211  H1234   1.103   .     S
C1212  O1243   1.287   .     A
C1212  O1241   1.285   .     A
C1213  H1225   1.108   .     S
C1213  H1226   1.111   .     S
C1213  H1224   1.103   .     S
C1214  O1244   1.280   .     A
C1214  O1246   1.289   .     A
C1214  C1216   1.403   .     S
C1215  O1247   1.289   .     A
C1215  O1245   1.280   .     A
C1215  C1217   1.403   .     S
C1216  C1317   1.336   1_455 S
C1216  H1321   1.088   1_455 S
C1217  C1266   1.336   .     S
C1217  H1277   1.088   .     S
C1219  C902    1.378   1_565 S
C1220  H1228   1.086   .     S
C1220  C918    1.378   1_565 S
H1221  C1266   1.088   .     S
H1227  C1317   1.088   1_455 S
H1232  O1238   1.014   .     S
H1233  O1240   1.014   .     S
N1235  Zn1249  2.024   .     S
N1236  Zn1250  2.024   .     S
O1237  Zn1249  1.986   .     S
O1241  Zn1250  1.986   .     S
O1242  Zn1250  1.989   .     S
O1243  Zn1249  1.989   .     S
O1244  Zn1249  1.959   .     S
O1245  Zn1250  1.959   .     S
O1246  Zn1250  1.979   .     S
O1247  Zn1249  1.979   .     S
C1251  O1287   1.285   .     A
C1251  C1254   1.412   .     S
C1251  O1292   1.287   .     A
C1252  C1254   1.395   .     A
C1252  H1279   1.086   .     S
C1253  C1269   1.408   .     A
C1253  C1270   1.395   .     A
C1253  C1262   1.412   .     S
C1254  C1268   1.408   .     A
C1255  N1286   1.356   .     A
C1255  H1280   1.083   .     S
C1256  H1281   1.083   .     S
C1256  N1285   1.356   .     A
C1256  C358    1.420   1_556 S
C1257  C1261   1.501   .     S
C1257  N1285   1.385   .     A
C1257  C355    1.420   1_556 S
C1258  C1263   1.501   .     S
C1258  N1286   1.385   .     A
C1259  C1268   1.489   .     S
C1259  O1288   1.399   .     S
C1259  O1298   1.222   .     D
C1260  C1269   1.489   .     S
C1260  O1290   1.399   .     S
C1260  O1289   1.222   .     D
C1261  H1272   1.111   .     S
C1261  H1273   1.108   .     S
C1261  H1284   1.103   .     S
C1262  O1293   1.287   .     A
C1262  O1291   1.285   .     A
C1263  H1275   1.108   .     S
C1263  H1276   1.111   .     S
C1263  H1274   1.103   .     S
C1264  O1294   1.280   .     A
C1264  O1296   1.289   .     A
C1264  C1266   1.403   .     S
C1265  O1297   1.289   .     A
C1265  O1295   1.280   .     A
C1265  C1267   1.403   .     S
C1267  C1316   1.336   .     S
C1267  H1327   1.088   .     S
C1269  C952    1.378   1_565 S
C1270  H1278   1.086   .     S
C1270  C968    1.378   1_565 S
H1271  C1316   1.088   .     S
H1282  O1288   1.014   .     S
H1283  O1290   1.014   .     S
N1285  Zn1299  2.024   .     S
N1286  Zn1300  2.024   .     S
O1287  Zn1299  1.986   .     S
O1291  Zn1300  1.986   .     S
O1292  Zn1300  1.989   .     S
O1293  Zn1299  1.989   .     S
O1294  Zn1299  1.959   .     S
O1295  Zn1300  1.959   .     S
O1296  Zn1300  1.979   .     S
O1297  Zn1299  1.979   .     S
C1301  O1337   1.285   .     A
C1301  C1304   1.412   .     S
C1301  O1342   1.287   .     A
C1302  C1304   1.395   .     A
C1302  H1329   1.086   .     S
C1303  C1319   1.408   .     A
C1303  C1320   1.395   .     A
C1303  C1312   1.412   .     S
C1304  C1318   1.408   .     A
C1305  N1336   1.356   .     A
C1305  H1330   1.083   .     S
C1306  H1331   1.083   .     S
C1306  N1335   1.356   .     A
C1306  C408    1.420   1_556 S
C1307  C1311   1.501   .     S
C1307  N1335   1.385   .     A
C1307  C405    1.420   1_556 S
C1308  C1313   1.501   .     S
C1308  N1336   1.385   .     A
C1309  C1318   1.489   .     S
C1309  O1338   1.399   .     S
C1309  O1348   1.222   .     D
C1310  C1319   1.489   .     S
C1310  O1340   1.399   .     S
C1310  O1339   1.222   .     D
C1311  H1322   1.111   .     S
C1311  H1323   1.108   .     S
C1311  H1334   1.103   .     S
C1312  O1343   1.287   .     A
C1312  O1341   1.285   .     A
C1313  H1325   1.108   .     S
C1313  H1326   1.111   .     S
C1313  H1324   1.103   .     S
C1314  O1344   1.280   .     A
C1314  O1346   1.289   .     A
C1314  C1316   1.403   .     S
C1315  O1347   1.289   .     A
C1315  O1345   1.280   .     A
C1315  C1317   1.403   .     S
C1317  C1216   1.336   1_655 S
C1317  H1227   1.088   1_655 S
C1319  C1002   1.378   1_565 S
C1320  H1328   1.086   .     S
C1320  C1018   1.378   1_565 S
H1321  C1216   1.088   1_655 S
H1332  O1338   1.014   .     S
H1333  O1340   1.014   .     S
N1335  Zn1349  2.024   .     S
N1336  Zn1350  2.024   .     S
O1337  Zn1349  1.986   .     S
O1341  Zn1350  1.986   .     S
O1342  Zn1350  1.989   .     S
O1343  Zn1349  1.989   .     S
O1344  Zn1349  1.959   .     S
O1345  Zn1350  1.959   .     S
O1346  Zn1350  1.979   .     S
O1347  Zn1349  1.979   .     S
