data_str_m3_o2_o10_pcu_sym.69
_audit_creation_date              2020-01-03
_audit_creation_method            'Materials Studio'
_symmetry_space_group_name_H-M    'P1'
_symmetry_Int_Tables_number       1
_symmetry_cell_setting            triclinic
loop_
_symmetry_equiv_pos_as_xyz
  x,y,z
_cell_length_a                    25.7728
_cell_length_b                    29.8489
_cell_length_c                    28.4672
_cell_angle_alpha                 90.8844
_cell_angle_beta                  99.0273
_cell_angle_gamma                 90.3959
loop_
_atom_site_label
_atom_site_type_symbol
_atom_site_fract_x
_atom_site_fract_y
_atom_site_fract_z
_atom_site_U_iso_or_equiv
_atom_site_adp_type
_atom_site_occupancy
C1     C     0.16550   0.16404   0.24952   0.00000  Uiso   1.00
C2     C     0.15591   0.21022   0.44540   0.00000  Uiso   1.00
C3     C     0.16742   0.24957   0.02665   0.00000  Uiso   1.00
C4     C     0.16667   0.24980   0.47332   0.00000  Uiso   1.00
C5     C     0.06702   0.24991   0.23748   0.00000  Uiso   1.00
C6     C     0.26632   0.25000   0.26252   0.00000  Uiso   1.00
C7     C     0.01189   0.24973   0.23083   0.00000  Uiso   1.00
C8     C     0.32146   0.25000   0.26918   0.00000  Uiso   1.00
C9     C     0.12476   0.04664   0.26866   0.00000  Uiso   1.00
C10    C     0.20985   0.45445   0.27599   0.00000  Uiso   1.00
C11    C     0.12292   0.09297   0.26752   0.00000  Uiso   1.00
C12    C     0.16740   0.33592   0.25042   0.00000  Uiso   1.00
C13    C     0.21189   0.40808   0.27606   0.00000  Uiso   1.00
C14    C     0.16275   0.11617   0.24848   0.00000  Uiso   1.00
C15    C     0.16855   0.38373   0.25124   0.00000  Uiso   1.00
C16    C     0.20218   0.09320   0.22985   0.00000  Uiso   1.00
C17    C     0.12486   0.40543   0.22680   0.00000  Uiso   1.00
C18    C     0.20344   0.04703   0.23125   0.00000  Uiso   1.00
C19    C     0.12336   0.45161   0.22723   0.00000  Uiso   1.00
C20    C     0.16487   0.02399   0.25079   0.00000  Uiso   1.00
C21    C     0.16589   0.47590   0.25165   0.00000  Uiso   1.00
C22    C     0.12128   0.23952   0.04546   0.00000  Uiso   1.00
C23    C     0.17771   0.28922   0.44998   0.00000  Uiso   1.00
C24    C     0.12280   0.23681   0.09507   0.00000  Uiso   1.00
C25    C     0.18125   0.28774   0.40107   0.00000  Uiso   1.00
C26    C     0.21129   0.26136   0.10893   0.00000  Uiso   1.00
C27    C     0.15415   0.21179   0.39531   0.00000  Uiso   1.00
C28    C     0.21378   0.25946   0.05977   0.00000  Uiso   1.00
H29    H     0.32440   0.24936   0.19451   0.00000  Uiso   1.00
H30    H     0.14406   0.18191   0.37379   0.00000  Uiso   1.00
H31    H     0.07902   0.14511   0.27392   0.00000  Uiso   1.00
H32    H     0.25651   0.35605   0.29212   0.00000  Uiso   1.00
H33    H     0.09392   0.19912   0.13783   0.00000  Uiso   1.00
H34    H     0.22627   0.31226   0.36107   0.00000  Uiso   1.00
H35    H     0.26071   0.25902   0.01234   0.00000  Uiso   1.00
H36    H     0.14048   0.14632   0.44319   0.00000  Uiso   1.00
H37    H     0.00899   0.25029   0.30551   0.00000  Uiso   1.00
H38    H     0.09482   0.02820   0.28334   0.00000  Uiso   1.00
H39    H     0.24266   0.47385   0.29466   0.00000  Uiso   1.00
H40    H     0.23259   0.11111   0.21528   0.00000  Uiso   1.00
H41    H     0.09180   0.38653   0.20781   0.00000  Uiso   1.00
H42    H     0.23421   0.02921   0.21707   0.00000  Uiso   1.00
H43    H     0.08950   0.46846   0.20817   0.00000  Uiso   1.00
H44    H     0.24619   0.27062   0.13349   0.00000  Uiso   1.00
I45    I     0.04766   0.22830   0.00070   0.00000  Uiso   1.00
I46    I     0.19052   0.35194   0.48702   0.00000  Uiso   1.00
N47    N     0.16667   0.24999   0.12624   0.00000  Uiso   1.00
N48    N     0.16667   0.25001   0.37376   0.00000  Uiso   1.00
O49    O     0.16667   0.18453   0.28974   0.00000  Uiso   1.00
O50    O     0.25680   0.38850   0.29968   0.00000  Uiso   1.00
O51    O     0.07993   0.21885   0.11128   0.00000  Uiso   1.00
O52    O     0.20232   0.32427   0.38208   0.00000  Uiso   1.00
O53    O     0.26211   0.26746   0.04623   0.00000  Uiso   1.00
O54    O     0.14740   0.17062   0.46757   0.00000  Uiso   1.00
O55    O     0.16666   0.31546   0.21026   0.00000  Uiso   1.00
O56    O     0.16667   0.18453   0.21026   0.00000  Uiso   1.00
O57    O     0.16666   0.31547   0.28974   0.00000  Uiso   1.00
O58    O     0.09058   0.25000   0.28045   0.00000  Uiso   1.00
O59    O     0.24275   0.25000   0.21956   0.00000  Uiso   1.00
O60    O     0.09058   0.24999   0.20097   0.00000  Uiso   1.00
O61    O     0.24275   0.25000   0.29903   0.00000  Uiso   1.00
O62    O     0.08169   0.11372   0.28459   0.00000  Uiso   1.00
Zn63   Zn    0.16667   0.25000   0.30307   0.00000  Uiso   1.00
Zn64   Zn    0.16667   0.24999   0.19693   0.00000  Uiso   1.00
C65    C     0.49883   0.16404   0.24952   0.00000  Uiso   1.00
C66    C     0.48924   0.21022   0.44540   0.00000  Uiso   1.00
C67    C     0.50076   0.24957   0.02665   0.00000  Uiso   1.00
C68    C     0.50001   0.24980   0.47332   0.00000  Uiso   1.00
C69    C     0.40035   0.24991   0.23748   0.00000  Uiso   1.00
C70    C     0.59965   0.25000   0.26252   0.00000  Uiso   1.00
C71    C     0.34523   0.24973   0.23083   0.00000  Uiso   1.00
C72    C     0.65479   0.25000   0.26918   0.00000  Uiso   1.00
C73    C     0.45809   0.04664   0.26866   0.00000  Uiso   1.00
C74    C     0.54318   0.45445   0.27599   0.00000  Uiso   1.00
C75    C     0.45625   0.09297   0.26752   0.00000  Uiso   1.00
C76    C     0.50073   0.33592   0.25042   0.00000  Uiso   1.00
C77    C     0.54522   0.40808   0.27606   0.00000  Uiso   1.00
C78    C     0.49608   0.11617   0.24848   0.00000  Uiso   1.00
C79    C     0.50188   0.38373   0.25124   0.00000  Uiso   1.00
C80    C     0.53551   0.09320   0.22985   0.00000  Uiso   1.00
C81    C     0.45819   0.40543   0.22680   0.00000  Uiso   1.00
C82    C     0.53677   0.04703   0.23125   0.00000  Uiso   1.00
C83    C     0.45669   0.45161   0.22723   0.00000  Uiso   1.00
C84    C     0.49820   0.02399   0.25079   0.00000  Uiso   1.00
C85    C     0.49923   0.47590   0.25165   0.00000  Uiso   1.00
C86    C     0.45461   0.23952   0.04546   0.00000  Uiso   1.00
C87    C     0.51104   0.28922   0.44998   0.00000  Uiso   1.00
C88    C     0.45613   0.23681   0.09507   0.00000  Uiso   1.00
C89    C     0.51458   0.28774   0.40107   0.00000  Uiso   1.00
C90    C     0.54463   0.26136   0.10893   0.00000  Uiso   1.00
C91    C     0.48749   0.21179   0.39531   0.00000  Uiso   1.00
C92    C     0.54712   0.25946   0.05977   0.00000  Uiso   1.00
H93    H     0.65773   0.24936   0.19451   0.00000  Uiso   1.00
H94    H     0.47739   0.18191   0.37379   0.00000  Uiso   1.00
H95    H     0.41236   0.14511   0.27392   0.00000  Uiso   1.00
H96    H     0.58984   0.35605   0.29212   0.00000  Uiso   1.00
H97    H     0.42726   0.19912   0.13783   0.00000  Uiso   1.00
H98    H     0.55960   0.31226   0.36107   0.00000  Uiso   1.00
H99    H     0.59404   0.25902   0.01234   0.00000  Uiso   1.00
H100   H     0.47381   0.14632   0.44319   0.00000  Uiso   1.00
H101   H     0.34233   0.25029   0.30551   0.00000  Uiso   1.00
H102   H     0.42815   0.02820   0.28334   0.00000  Uiso   1.00
H103   H     0.57599   0.47385   0.29466   0.00000  Uiso   1.00
H104   H     0.56593   0.11111   0.21528   0.00000  Uiso   1.00
H105   H     0.42514   0.38653   0.20781   0.00000  Uiso   1.00
H106   H     0.56755   0.02921   0.21707   0.00000  Uiso   1.00
H107   H     0.42283   0.46846   0.20817   0.00000  Uiso   1.00
H108   H     0.57952   0.27062   0.13349   0.00000  Uiso   1.00
I109   I     0.38099   0.22830   0.00070   0.00000  Uiso   1.00
I110   I     0.52385   0.35194   0.48702   0.00000  Uiso   1.00
N111   N     0.50000   0.24999   0.12624   0.00000  Uiso   1.00
N112   N     0.50000   0.25001   0.37376   0.00000  Uiso   1.00
O113   O     0.50000   0.18453   0.28974   0.00000  Uiso   1.00
O114   O     0.59014   0.38850   0.29968   0.00000  Uiso   1.00
O115   O     0.41327   0.21885   0.11128   0.00000  Uiso   1.00
O116   O     0.53565   0.32427   0.38208   0.00000  Uiso   1.00
O117   O     0.59545   0.26746   0.04623   0.00000  Uiso   1.00
O118   O     0.48074   0.17062   0.46757   0.00000  Uiso   1.00
O119   O     0.50000   0.31546   0.21026   0.00000  Uiso   1.00
O120   O     0.50000   0.18453   0.21026   0.00000  Uiso   1.00
O121   O     0.50000   0.31547   0.28974   0.00000  Uiso   1.00
O122   O     0.42392   0.25000   0.28045   0.00000  Uiso   1.00
O123   O     0.57608   0.25000   0.21956   0.00000  Uiso   1.00
O124   O     0.42392   0.24999   0.20097   0.00000  Uiso   1.00
O125   O     0.57608   0.25000   0.29903   0.00000  Uiso   1.00
O126   O     0.41503   0.11372   0.28459   0.00000  Uiso   1.00
Zn127  Zn    0.50000   0.25000   0.30307   0.00000  Uiso   1.00
Zn128  Zn    0.50000   0.24999   0.19693   0.00000  Uiso   1.00
C129   C     0.83216   0.16404   0.24952   0.00000  Uiso   1.00
C130   C     0.82257   0.21022   0.44540   0.00000  Uiso   1.00
C131   C     0.83409   0.24957   0.02665   0.00000  Uiso   1.00
C132   C     0.83334   0.24980   0.47332   0.00000  Uiso   1.00
C133   C     0.73368   0.24991   0.23748   0.00000  Uiso   1.00
C134   C     0.93299   0.25000   0.26252   0.00000  Uiso   1.00
C135   C     0.67856   0.24973   0.23083   0.00000  Uiso   1.00
C136   C     0.98812   0.25000   0.26918   0.00000  Uiso   1.00
C137   C     0.79143   0.04664   0.26866   0.00000  Uiso   1.00
C138   C     0.87651   0.45445   0.27599   0.00000  Uiso   1.00
C139   C     0.78959   0.09297   0.26752   0.00000  Uiso   1.00
C140   C     0.83407   0.33592   0.25042   0.00000  Uiso   1.00
C141   C     0.87856   0.40808   0.27606   0.00000  Uiso   1.00
C142   C     0.82942   0.11617   0.24848   0.00000  Uiso   1.00
C143   C     0.83522   0.38373   0.25124   0.00000  Uiso   1.00
C144   C     0.86885   0.09320   0.22985   0.00000  Uiso   1.00
C145   C     0.79153   0.40543   0.22680   0.00000  Uiso   1.00
C146   C     0.87010   0.04703   0.23125   0.00000  Uiso   1.00
C147   C     0.79002   0.45161   0.22723   0.00000  Uiso   1.00
C148   C     0.83153   0.02399   0.25079   0.00000  Uiso   1.00
C149   C     0.83256   0.47590   0.25165   0.00000  Uiso   1.00
C150   C     0.78794   0.23952   0.04546   0.00000  Uiso   1.00
C151   C     0.84437   0.28922   0.44998   0.00000  Uiso   1.00
C152   C     0.78946   0.23681   0.09507   0.00000  Uiso   1.00
C153   C     0.84791   0.28774   0.40107   0.00000  Uiso   1.00
C154   C     0.87796   0.26136   0.10893   0.00000  Uiso   1.00
C155   C     0.82082   0.21179   0.39531   0.00000  Uiso   1.00
C156   C     0.88045   0.25946   0.05977   0.00000  Uiso   1.00
H157   H     0.99107   0.24936   0.19451   0.00000  Uiso   1.00
H158   H     0.81073   0.18191   0.37379   0.00000  Uiso   1.00
H159   H     0.74569   0.14511   0.27392   0.00000  Uiso   1.00
H160   H     0.92317   0.35605   0.29212   0.00000  Uiso   1.00
H161   H     0.76059   0.19912   0.13783   0.00000  Uiso   1.00
H162   H     0.89293   0.31226   0.36107   0.00000  Uiso   1.00
H163   H     0.92737   0.25902   0.01234   0.00000  Uiso   1.00
H164   H     0.80715   0.14632   0.44319   0.00000  Uiso   1.00
H165   H     0.67566   0.25029   0.30551   0.00000  Uiso   1.00
H166   H     0.76148   0.02820   0.28334   0.00000  Uiso   1.00
H167   H     0.90932   0.47385   0.29466   0.00000  Uiso   1.00
H168   H     0.89926   0.11111   0.21528   0.00000  Uiso   1.00
H169   H     0.75847   0.38653   0.20781   0.00000  Uiso   1.00
H170   H     0.90088   0.02921   0.21707   0.00000  Uiso   1.00
H171   H     0.75617   0.46846   0.20817   0.00000  Uiso   1.00
H172   H     0.91286   0.27062   0.13349   0.00000  Uiso   1.00
I173   I     0.71432   0.22830   0.00070   0.00000  Uiso   1.00
I174   I     0.85719   0.35194   0.48702   0.00000  Uiso   1.00
N175   N     0.83333   0.24999   0.12624   0.00000  Uiso   1.00
N176   N     0.83333   0.25001   0.37376   0.00000  Uiso   1.00
O177   O     0.83334   0.18453   0.28974   0.00000  Uiso   1.00
O178   O     0.92347   0.38850   0.29968   0.00000  Uiso   1.00
O179   O     0.74660   0.21885   0.11128   0.00000  Uiso   1.00
O180   O     0.86898   0.32427   0.38208   0.00000  Uiso   1.00
O181   O     0.92878   0.26746   0.04623   0.00000  Uiso   1.00
O182   O     0.81407   0.17062   0.46757   0.00000  Uiso   1.00
O183   O     0.83333   0.31546   0.21026   0.00000  Uiso   1.00
O184   O     0.83334   0.18453   0.21026   0.00000  Uiso   1.00
O185   O     0.83333   0.31547   0.28974   0.00000  Uiso   1.00
O186   O     0.75725   0.25000   0.28045   0.00000  Uiso   1.00
O187   O     0.90942   0.25000   0.21956   0.00000  Uiso   1.00
O188   O     0.75725   0.24999   0.20097   0.00000  Uiso   1.00
O189   O     0.90942   0.25000   0.29903   0.00000  Uiso   1.00
O190   O     0.74836   0.11372   0.28459   0.00000  Uiso   1.00
Zn191  Zn    0.83333   0.25000   0.30307   0.00000  Uiso   1.00
Zn192  Zn    0.83333   0.24999   0.19693   0.00000  Uiso   1.00
C193   C     0.16550   0.66404   0.24952   0.00000  Uiso   1.00
C194   C     0.15591   0.71022   0.44540   0.00000  Uiso   1.00
C195   C     0.16742   0.74957   0.02665   0.00000  Uiso   1.00
C196   C     0.16667   0.74980   0.47332   0.00000  Uiso   1.00
C197   C     0.06702   0.74991   0.23748   0.00000  Uiso   1.00
C198   C     0.26632   0.75000   0.26252   0.00000  Uiso   1.00
C199   C     0.01189   0.74973   0.23083   0.00000  Uiso   1.00
C200   C     0.32146   0.75000   0.26918   0.00000  Uiso   1.00
C201   C     0.12476   0.54664   0.26866   0.00000  Uiso   1.00
C202   C     0.20985   0.95445   0.27599   0.00000  Uiso   1.00
C203   C     0.12292   0.59297   0.26752   0.00000  Uiso   1.00
C204   C     0.16740   0.83592   0.25042   0.00000  Uiso   1.00
C205   C     0.21189   0.90808   0.27606   0.00000  Uiso   1.00
C206   C     0.16275   0.61617   0.24848   0.00000  Uiso   1.00
C207   C     0.16855   0.88373   0.25124   0.00000  Uiso   1.00
C208   C     0.20218   0.59320   0.22985   0.00000  Uiso   1.00
C209   C     0.12486   0.90543   0.22680   0.00000  Uiso   1.00
C210   C     0.20344   0.54703   0.23125   0.00000  Uiso   1.00
C211   C     0.12336   0.95161   0.22723   0.00000  Uiso   1.00
C212   C     0.16487   0.52399   0.25079   0.00000  Uiso   1.00
C213   C     0.16589   0.97590   0.25165   0.00000  Uiso   1.00
C214   C     0.12128   0.73952   0.04546   0.00000  Uiso   1.00
C215   C     0.17771   0.78922   0.44998   0.00000  Uiso   1.00
C216   C     0.12280   0.73681   0.09507   0.00000  Uiso   1.00
C217   C     0.18125   0.78774   0.40107   0.00000  Uiso   1.00
C218   C     0.21129   0.76136   0.10893   0.00000  Uiso   1.00
C219   C     0.15415   0.71179   0.39531   0.00000  Uiso   1.00
C220   C     0.21378   0.75946   0.05977   0.00000  Uiso   1.00
H221   H     0.32440   0.74936   0.19451   0.00000  Uiso   1.00
H222   H     0.14406   0.68191   0.37379   0.00000  Uiso   1.00
H223   H     0.07902   0.64511   0.27392   0.00000  Uiso   1.00
H224   H     0.25651   0.85605   0.29212   0.00000  Uiso   1.00
H225   H     0.09392   0.69912   0.13783   0.00000  Uiso   1.00
H226   H     0.22627   0.81226   0.36107   0.00000  Uiso   1.00
H227   H     0.26071   0.75902   0.01234   0.00000  Uiso   1.00
H228   H     0.14048   0.64632   0.44319   0.00000  Uiso   1.00
H229   H     0.00899   0.75029   0.30551   0.00000  Uiso   1.00
H230   H     0.09482   0.52820   0.28334   0.00000  Uiso   1.00
H231   H     0.24266   0.97385   0.29466   0.00000  Uiso   1.00
H232   H     0.23259   0.61111   0.21528   0.00000  Uiso   1.00
H233   H     0.09180   0.88653   0.20781   0.00000  Uiso   1.00
H234   H     0.23421   0.52921   0.21707   0.00000  Uiso   1.00
H235   H     0.08950   0.96846   0.20817   0.00000  Uiso   1.00
H236   H     0.24619   0.77062   0.13349   0.00000  Uiso   1.00
I237   I     0.04766   0.72830   0.00070   0.00000  Uiso   1.00
I238   I     0.19052   0.85194   0.48702   0.00000  Uiso   1.00
N239   N     0.16667   0.74999   0.12624   0.00000  Uiso   1.00
N240   N     0.16667   0.75001   0.37376   0.00000  Uiso   1.00
O241   O     0.16667   0.68453   0.28974   0.00000  Uiso   1.00
O242   O     0.25680   0.88850   0.29968   0.00000  Uiso   1.00
O243   O     0.07993   0.71885   0.11128   0.00000  Uiso   1.00
O244   O     0.20232   0.82427   0.38208   0.00000  Uiso   1.00
O245   O     0.26211   0.76746   0.04623   0.00000  Uiso   1.00
O246   O     0.14740   0.67062   0.46757   0.00000  Uiso   1.00
O247   O     0.16666   0.81546   0.21026   0.00000  Uiso   1.00
O248   O     0.16667   0.68453   0.21026   0.00000  Uiso   1.00
O249   O     0.16666   0.81547   0.28974   0.00000  Uiso   1.00
O250   O     0.09058   0.75000   0.28045   0.00000  Uiso   1.00
O251   O     0.24275   0.75000   0.21956   0.00000  Uiso   1.00
O252   O     0.09058   0.74999   0.20097   0.00000  Uiso   1.00
O253   O     0.24275   0.75000   0.29903   0.00000  Uiso   1.00
O254   O     0.08169   0.61372   0.28459   0.00000  Uiso   1.00
Zn255  Zn    0.16667   0.75000   0.30307   0.00000  Uiso   1.00
Zn256  Zn    0.16667   0.74999   0.19693   0.00000  Uiso   1.00
C257   C     0.49883   0.66404   0.24952   0.00000  Uiso   1.00
C258   C     0.48924   0.71022   0.44540   0.00000  Uiso   1.00
C259   C     0.50076   0.74957   0.02665   0.00000  Uiso   1.00
C260   C     0.50001   0.74980   0.47332   0.00000  Uiso   1.00
C261   C     0.40035   0.74991   0.23748   0.00000  Uiso   1.00
C262   C     0.59965   0.75000   0.26252   0.00000  Uiso   1.00
C263   C     0.34523   0.74973   0.23083   0.00000  Uiso   1.00
C264   C     0.65479   0.75000   0.26918   0.00000  Uiso   1.00
C265   C     0.45809   0.54664   0.26866   0.00000  Uiso   1.00
C266   C     0.54318   0.95445   0.27599   0.00000  Uiso   1.00
C267   C     0.45625   0.59297   0.26752   0.00000  Uiso   1.00
C268   C     0.50073   0.83592   0.25042   0.00000  Uiso   1.00
C269   C     0.54522   0.90808   0.27606   0.00000  Uiso   1.00
C270   C     0.49608   0.61617   0.24848   0.00000  Uiso   1.00
C271   C     0.50188   0.88373   0.25124   0.00000  Uiso   1.00
C272   C     0.53551   0.59320   0.22985   0.00000  Uiso   1.00
C273   C     0.45819   0.90543   0.22680   0.00000  Uiso   1.00
C274   C     0.53677   0.54703   0.23125   0.00000  Uiso   1.00
C275   C     0.45669   0.95161   0.22723   0.00000  Uiso   1.00
C276   C     0.49820   0.52399   0.25079   0.00000  Uiso   1.00
C277   C     0.49923   0.97590   0.25165   0.00000  Uiso   1.00
C278   C     0.45461   0.73952   0.04546   0.00000  Uiso   1.00
C279   C     0.51104   0.78922   0.44998   0.00000  Uiso   1.00
C280   C     0.45613   0.73681   0.09507   0.00000  Uiso   1.00
C281   C     0.51458   0.78774   0.40107   0.00000  Uiso   1.00
C282   C     0.54463   0.76136   0.10893   0.00000  Uiso   1.00
C283   C     0.48749   0.71179   0.39531   0.00000  Uiso   1.00
C284   C     0.54712   0.75946   0.05977   0.00000  Uiso   1.00
H285   H     0.65773   0.74936   0.19451   0.00000  Uiso   1.00
H286   H     0.47739   0.68191   0.37379   0.00000  Uiso   1.00
H287   H     0.41236   0.64511   0.27392   0.00000  Uiso   1.00
H288   H     0.58984   0.85605   0.29212   0.00000  Uiso   1.00
H289   H     0.42726   0.69912   0.13783   0.00000  Uiso   1.00
H290   H     0.55960   0.81226   0.36107   0.00000  Uiso   1.00
H291   H     0.59404   0.75902   0.01234   0.00000  Uiso   1.00
H292   H     0.47381   0.64632   0.44319   0.00000  Uiso   1.00
H293   H     0.34233   0.75029   0.30551   0.00000  Uiso   1.00
H294   H     0.42815   0.52820   0.28334   0.00000  Uiso   1.00
H295   H     0.57599   0.97385   0.29466   0.00000  Uiso   1.00
H296   H     0.56593   0.61111   0.21528   0.00000  Uiso   1.00
H297   H     0.42514   0.88653   0.20781   0.00000  Uiso   1.00
H298   H     0.56755   0.52921   0.21707   0.00000  Uiso   1.00
H299   H     0.42283   0.96846   0.20817   0.00000  Uiso   1.00
H300   H     0.57952   0.77062   0.13349   0.00000  Uiso   1.00
I301   I     0.38099   0.72830   0.00070   0.00000  Uiso   1.00
I302   I     0.52385   0.85194   0.48702   0.00000  Uiso   1.00
N303   N     0.50000   0.74999   0.12624   0.00000  Uiso   1.00
N304   N     0.50000   0.75001   0.37376   0.00000  Uiso   1.00
O305   O     0.50000   0.68453   0.28974   0.00000  Uiso   1.00
O306   O     0.59014   0.88850   0.29968   0.00000  Uiso   1.00
O307   O     0.41327   0.71885   0.11128   0.00000  Uiso   1.00
O308   O     0.53565   0.82427   0.38208   0.00000  Uiso   1.00
O309   O     0.59545   0.76746   0.04623   0.00000  Uiso   1.00
O310   O     0.48074   0.67062   0.46757   0.00000  Uiso   1.00
O311   O     0.50000   0.81546   0.21026   0.00000  Uiso   1.00
O312   O     0.50000   0.68453   0.21026   0.00000  Uiso   1.00
O313   O     0.50000   0.81547   0.28974   0.00000  Uiso   1.00
O314   O     0.42392   0.75000   0.28045   0.00000  Uiso   1.00
O315   O     0.57608   0.75000   0.21956   0.00000  Uiso   1.00
O316   O     0.42392   0.74999   0.20097   0.00000  Uiso   1.00
O317   O     0.57608   0.75000   0.29903   0.00000  Uiso   1.00
O318   O     0.41503   0.61372   0.28459   0.00000  Uiso   1.00
Zn319  Zn    0.50000   0.75000   0.30307   0.00000  Uiso   1.00
Zn320  Zn    0.50000   0.74999   0.19693   0.00000  Uiso   1.00
C321   C     0.83216   0.66404   0.24952   0.00000  Uiso   1.00
C322   C     0.82257   0.71022   0.44540   0.00000  Uiso   1.00
C323   C     0.83409   0.74957   0.02665   0.00000  Uiso   1.00
C324   C     0.83334   0.74980   0.47332   0.00000  Uiso   1.00
C325   C     0.73368   0.74991   0.23748   0.00000  Uiso   1.00
C326   C     0.93299   0.75000   0.26252   0.00000  Uiso   1.00
C327   C     0.67856   0.74973   0.23083   0.00000  Uiso   1.00
C328   C     0.98812   0.75000   0.26918   0.00000  Uiso   1.00
C329   C     0.79143   0.54664   0.26866   0.00000  Uiso   1.00
C330   C     0.87651   0.95445   0.27599   0.00000  Uiso   1.00
C331   C     0.78959   0.59297   0.26752   0.00000  Uiso   1.00
C332   C     0.83407   0.83592   0.25042   0.00000  Uiso   1.00
C333   C     0.87856   0.90808   0.27606   0.00000  Uiso   1.00
C334   C     0.82942   0.61617   0.24848   0.00000  Uiso   1.00
C335   C     0.83522   0.88373   0.25124   0.00000  Uiso   1.00
C336   C     0.86885   0.59320   0.22985   0.00000  Uiso   1.00
C337   C     0.79153   0.90543   0.22680   0.00000  Uiso   1.00
C338   C     0.87010   0.54703   0.23125   0.00000  Uiso   1.00
C339   C     0.79002   0.95161   0.22723   0.00000  Uiso   1.00
C340   C     0.83153   0.52399   0.25079   0.00000  Uiso   1.00
C341   C     0.83256   0.97590   0.25165   0.00000  Uiso   1.00
C342   C     0.78794   0.73952   0.04546   0.00000  Uiso   1.00
C343   C     0.84437   0.78922   0.44998   0.00000  Uiso   1.00
C344   C     0.78946   0.73681   0.09507   0.00000  Uiso   1.00
C345   C     0.84791   0.78774   0.40107   0.00000  Uiso   1.00
C346   C     0.87796   0.76136   0.10893   0.00000  Uiso   1.00
C347   C     0.82082   0.71179   0.39531   0.00000  Uiso   1.00
C348   C     0.88045   0.75946   0.05977   0.00000  Uiso   1.00
H349   H     0.99107   0.74936   0.19451   0.00000  Uiso   1.00
H350   H     0.81073   0.68191   0.37379   0.00000  Uiso   1.00
H351   H     0.74569   0.64511   0.27392   0.00000  Uiso   1.00
H352   H     0.92317   0.85605   0.29212   0.00000  Uiso   1.00
H353   H     0.76059   0.69912   0.13783   0.00000  Uiso   1.00
H354   H     0.89293   0.81226   0.36107   0.00000  Uiso   1.00
H355   H     0.92737   0.75902   0.01234   0.00000  Uiso   1.00
H356   H     0.80715   0.64632   0.44319   0.00000  Uiso   1.00
H357   H     0.67566   0.75029   0.30551   0.00000  Uiso   1.00
H358   H     0.76148   0.52820   0.28334   0.00000  Uiso   1.00
H359   H     0.90932   0.97385   0.29466   0.00000  Uiso   1.00
H360   H     0.89926   0.61111   0.21528   0.00000  Uiso   1.00
H361   H     0.75847   0.88653   0.20781   0.00000  Uiso   1.00
H362   H     0.90088   0.52921   0.21707   0.00000  Uiso   1.00
H363   H     0.75617   0.96846   0.20817   0.00000  Uiso   1.00
H364   H     0.91286   0.77062   0.13349   0.00000  Uiso   1.00
I365   I     0.71432   0.72830   0.00070   0.00000  Uiso   1.00
I366   I     0.85719   0.85194   0.48702   0.00000  Uiso   1.00
N367   N     0.83333   0.74999   0.12624   0.00000  Uiso   1.00
N368   N     0.83333   0.75001   0.37376   0.00000  Uiso   1.00
O369   O     0.83334   0.68453   0.28974   0.00000  Uiso   1.00
O370   O     0.92347   0.88850   0.29968   0.00000  Uiso   1.00
O371   O     0.74660   0.71885   0.11128   0.00000  Uiso   1.00
O372   O     0.86898   0.82427   0.38208   0.00000  Uiso   1.00
O373   O     0.92878   0.76746   0.04623   0.00000  Uiso   1.00
O374   O     0.81407   0.67062   0.46757   0.00000  Uiso   1.00
O375   O     0.83333   0.81546   0.21026   0.00000  Uiso   1.00
O376   O     0.83334   0.68453   0.21026   0.00000  Uiso   1.00
O377   O     0.83333   0.81547   0.28974   0.00000  Uiso   1.00
O378   O     0.75725   0.75000   0.28045   0.00000  Uiso   1.00
O379   O     0.90942   0.75000   0.21956   0.00000  Uiso   1.00
O380   O     0.75725   0.74999   0.20097   0.00000  Uiso   1.00
O381   O     0.90942   0.75000   0.29903   0.00000  Uiso   1.00
O382   O     0.74836   0.61372   0.28459   0.00000  Uiso   1.00
Zn383  Zn    0.83333   0.75000   0.30307   0.00000  Uiso   1.00
Zn384  Zn    0.83333   0.74999   0.19693   0.00000  Uiso   1.00
C385   C     0.16550   0.16404   0.74952   0.00000  Uiso   1.00
C386   C     0.15591   0.21022   0.94540   0.00000  Uiso   1.00
C387   C     0.16742   0.24957   0.52665   0.00000  Uiso   1.00
C388   C     0.16667   0.24980   0.97332   0.00000  Uiso   1.00
C389   C     0.06702   0.24991   0.73748   0.00000  Uiso   1.00
C390   C     0.26632   0.25000   0.76252   0.00000  Uiso   1.00
C391   C     0.01189   0.24973   0.73083   0.00000  Uiso   1.00
C392   C     0.32146   0.25000   0.76918   0.00000  Uiso   1.00
C393   C     0.12476   0.04664   0.76866   0.00000  Uiso   1.00
C394   C     0.20985   0.45445   0.77599   0.00000  Uiso   1.00
C395   C     0.12292   0.09297   0.76752   0.00000  Uiso   1.00
C396   C     0.16740   0.33592   0.75042   0.00000  Uiso   1.00
C397   C     0.21189   0.40808   0.77606   0.00000  Uiso   1.00
C398   C     0.16275   0.11617   0.74848   0.00000  Uiso   1.00
C399   C     0.16855   0.38373   0.75124   0.00000  Uiso   1.00
C400   C     0.20218   0.09320   0.72985   0.00000  Uiso   1.00
C401   C     0.12486   0.40543   0.72680   0.00000  Uiso   1.00
C402   C     0.20344   0.04703   0.73125   0.00000  Uiso   1.00
C403   C     0.12336   0.45161   0.72723   0.00000  Uiso   1.00
C404   C     0.16487   0.02399   0.75079   0.00000  Uiso   1.00
C405   C     0.16589   0.47590   0.75165   0.00000  Uiso   1.00
C406   C     0.12128   0.23952   0.54546   0.00000  Uiso   1.00
C407   C     0.17771   0.28922   0.94998   0.00000  Uiso   1.00
C408   C     0.12280   0.23681   0.59507   0.00000  Uiso   1.00
C409   C     0.18125   0.28774   0.90107   0.00000  Uiso   1.00
C410   C     0.21129   0.26136   0.60893   0.00000  Uiso   1.00
C411   C     0.15415   0.21179   0.89531   0.00000  Uiso   1.00
C412   C     0.21378   0.25946   0.55977   0.00000  Uiso   1.00
H413   H     0.32440   0.24936   0.69451   0.00000  Uiso   1.00
H414   H     0.14406   0.18191   0.87379   0.00000  Uiso   1.00
H415   H     0.07902   0.14511   0.77392   0.00000  Uiso   1.00
H416   H     0.25651   0.35605   0.79212   0.00000  Uiso   1.00
H417   H     0.09392   0.19912   0.63783   0.00000  Uiso   1.00
H418   H     0.22627   0.31226   0.86107   0.00000  Uiso   1.00
H419   H     0.26071   0.25902   0.51234   0.00000  Uiso   1.00
H420   H     0.14048   0.14632   0.94319   0.00000  Uiso   1.00
H421   H     0.00899   0.25029   0.80551   0.00000  Uiso   1.00
H422   H     0.09482   0.02820   0.78334   0.00000  Uiso   1.00
H423   H     0.24266   0.47385   0.79466   0.00000  Uiso   1.00
H424   H     0.23259   0.11111   0.71528   0.00000  Uiso   1.00
H425   H     0.09180   0.38653   0.70781   0.00000  Uiso   1.00
H426   H     0.23421   0.02921   0.71707   0.00000  Uiso   1.00
H427   H     0.08950   0.46846   0.70817   0.00000  Uiso   1.00
H428   H     0.24619   0.27062   0.63349   0.00000  Uiso   1.00
I429   I     0.04766   0.22830   0.50070   0.00000  Uiso   1.00
I430   I     0.19052   0.35194   0.98702   0.00000  Uiso   1.00
N431   N     0.16667   0.24999   0.62624   0.00000  Uiso   1.00
N432   N     0.16667   0.25001   0.87376   0.00000  Uiso   1.00
O433   O     0.16667   0.18453   0.78974   0.00000  Uiso   1.00
O434   O     0.25680   0.38850   0.79968   0.00000  Uiso   1.00
O435   O     0.07993   0.21885   0.61128   0.00000  Uiso   1.00
O436   O     0.20232   0.32427   0.88208   0.00000  Uiso   1.00
O437   O     0.26211   0.26746   0.54623   0.00000  Uiso   1.00
O438   O     0.14740   0.17062   0.96757   0.00000  Uiso   1.00
O439   O     0.16666   0.31546   0.71026   0.00000  Uiso   1.00
O440   O     0.16667   0.18453   0.71026   0.00000  Uiso   1.00
O441   O     0.16666   0.31547   0.78974   0.00000  Uiso   1.00
O442   O     0.09058   0.25000   0.78045   0.00000  Uiso   1.00
O443   O     0.24275   0.25000   0.71956   0.00000  Uiso   1.00
O444   O     0.09058   0.24999   0.70097   0.00000  Uiso   1.00
O445   O     0.24275   0.25000   0.79903   0.00000  Uiso   1.00
O446   O     0.08169   0.11372   0.78459   0.00000  Uiso   1.00
Zn447  Zn    0.16667   0.25000   0.80307   0.00000  Uiso   1.00
Zn448  Zn    0.16667   0.24999   0.69693   0.00000  Uiso   1.00
C449   C     0.49883   0.16404   0.74952   0.00000  Uiso   1.00
C450   C     0.48924   0.21022   0.94540   0.00000  Uiso   1.00
C451   C     0.50076   0.24957   0.52665   0.00000  Uiso   1.00
C452   C     0.50001   0.24980   0.97332   0.00000  Uiso   1.00
C453   C     0.40035   0.24991   0.73748   0.00000  Uiso   1.00
C454   C     0.59965   0.25000   0.76252   0.00000  Uiso   1.00
C455   C     0.34523   0.24973   0.73083   0.00000  Uiso   1.00
C456   C     0.65479   0.25000   0.76918   0.00000  Uiso   1.00
C457   C     0.45809   0.04664   0.76866   0.00000  Uiso   1.00
C458   C     0.54318   0.45445   0.77599   0.00000  Uiso   1.00
C459   C     0.45625   0.09297   0.76752   0.00000  Uiso   1.00
C460   C     0.50073   0.33592   0.75042   0.00000  Uiso   1.00
C461   C     0.54522   0.40808   0.77606   0.00000  Uiso   1.00
C462   C     0.49608   0.11617   0.74848   0.00000  Uiso   1.00
C463   C     0.50188   0.38373   0.75124   0.00000  Uiso   1.00
C464   C     0.53551   0.09320   0.72985   0.00000  Uiso   1.00
C465   C     0.45819   0.40543   0.72680   0.00000  Uiso   1.00
C466   C     0.53677   0.04703   0.73125   0.00000  Uiso   1.00
C467   C     0.45669   0.45161   0.72723   0.00000  Uiso   1.00
C468   C     0.49820   0.02399   0.75079   0.00000  Uiso   1.00
C469   C     0.49923   0.47590   0.75165   0.00000  Uiso   1.00
C470   C     0.45461   0.23952   0.54546   0.00000  Uiso   1.00
C471   C     0.51104   0.28922   0.94998   0.00000  Uiso   1.00
C472   C     0.45613   0.23681   0.59507   0.00000  Uiso   1.00
C473   C     0.51458   0.28774   0.90107   0.00000  Uiso   1.00
C474   C     0.54463   0.26136   0.60893   0.00000  Uiso   1.00
C475   C     0.48749   0.21179   0.89531   0.00000  Uiso   1.00
C476   C     0.54712   0.25946   0.55977   0.00000  Uiso   1.00
H477   H     0.65773   0.24936   0.69451   0.00000  Uiso   1.00
H478   H     0.47739   0.18191   0.87379   0.00000  Uiso   1.00
H479   H     0.41236   0.14511   0.77392   0.00000  Uiso   1.00
H480   H     0.58984   0.35605   0.79212   0.00000  Uiso   1.00
H481   H     0.42726   0.19912   0.63783   0.00000  Uiso   1.00
H482   H     0.55960   0.31226   0.86107   0.00000  Uiso   1.00
H483   H     0.59404   0.25902   0.51234   0.00000  Uiso   1.00
H484   H     0.47381   0.14632   0.94319   0.00000  Uiso   1.00
H485   H     0.34233   0.25029   0.80551   0.00000  Uiso   1.00
H486   H     0.42815   0.02820   0.78334   0.00000  Uiso   1.00
H487   H     0.57599   0.47385   0.79466   0.00000  Uiso   1.00
H488   H     0.56593   0.11111   0.71528   0.00000  Uiso   1.00
H489   H     0.42514   0.38653   0.70781   0.00000  Uiso   1.00
H490   H     0.56755   0.02921   0.71707   0.00000  Uiso   1.00
H491   H     0.42283   0.46846   0.70817   0.00000  Uiso   1.00
H492   H     0.57952   0.27062   0.63349   0.00000  Uiso   1.00
I493   I     0.38099   0.22830   0.50070   0.00000  Uiso   1.00
I494   I     0.52385   0.35194   0.98702   0.00000  Uiso   1.00
N495   N     0.50000   0.24999   0.62624   0.00000  Uiso   1.00
N496   N     0.50000   0.25001   0.87376   0.00000  Uiso   1.00
O497   O     0.50000   0.18453   0.78974   0.00000  Uiso   1.00
O498   O     0.59014   0.38850   0.79968   0.00000  Uiso   1.00
O499   O     0.41327   0.21885   0.61128   0.00000  Uiso   1.00
O500   O     0.53565   0.32427   0.88208   0.00000  Uiso   1.00
O501   O     0.59545   0.26746   0.54623   0.00000  Uiso   1.00
O502   O     0.48074   0.17062   0.96757   0.00000  Uiso   1.00
O503   O     0.50000   0.31546   0.71026   0.00000  Uiso   1.00
O504   O     0.50000   0.18453   0.71026   0.00000  Uiso   1.00
O505   O     0.50000   0.31547   0.78974   0.00000  Uiso   1.00
O506   O     0.42392   0.25000   0.78045   0.00000  Uiso   1.00
O507   O     0.57608   0.25000   0.71956   0.00000  Uiso   1.00
O508   O     0.42392   0.24999   0.70097   0.00000  Uiso   1.00
O509   O     0.57608   0.25000   0.79903   0.00000  Uiso   1.00
O510   O     0.41503   0.11372   0.78459   0.00000  Uiso   1.00
Zn511  Zn    0.50000   0.25000   0.80307   0.00000  Uiso   1.00
Zn512  Zn    0.50000   0.24999   0.69693   0.00000  Uiso   1.00
C513   C     0.83216   0.16404   0.74952   0.00000  Uiso   1.00
C514   C     0.82257   0.21022   0.94540   0.00000  Uiso   1.00
C515   C     0.83409   0.24957   0.52665   0.00000  Uiso   1.00
C516   C     0.83334   0.24980   0.97332   0.00000  Uiso   1.00
C517   C     0.73368   0.24991   0.73748   0.00000  Uiso   1.00
C518   C     0.93299   0.25000   0.76252   0.00000  Uiso   1.00
C519   C     0.67856   0.24973   0.73083   0.00000  Uiso   1.00
C520   C     0.98812   0.25000   0.76918   0.00000  Uiso   1.00
C521   C     0.79143   0.04664   0.76866   0.00000  Uiso   1.00
C522   C     0.87651   0.45445   0.77599   0.00000  Uiso   1.00
C523   C     0.78959   0.09297   0.76752   0.00000  Uiso   1.00
C524   C     0.83407   0.33592   0.75042   0.00000  Uiso   1.00
C525   C     0.87856   0.40808   0.77606   0.00000  Uiso   1.00
C526   C     0.82942   0.11617   0.74848   0.00000  Uiso   1.00
C527   C     0.83522   0.38373   0.75124   0.00000  Uiso   1.00
C528   C     0.86885   0.09320   0.72985   0.00000  Uiso   1.00
C529   C     0.79153   0.40543   0.72680   0.00000  Uiso   1.00
C530   C     0.87010   0.04703   0.73125   0.00000  Uiso   1.00
C531   C     0.79002   0.45161   0.72723   0.00000  Uiso   1.00
C532   C     0.83153   0.02399   0.75079   0.00000  Uiso   1.00
C533   C     0.83256   0.47590   0.75165   0.00000  Uiso   1.00
C534   C     0.78794   0.23952   0.54546   0.00000  Uiso   1.00
C535   C     0.84437   0.28922   0.94998   0.00000  Uiso   1.00
C536   C     0.78946   0.23681   0.59507   0.00000  Uiso   1.00
C537   C     0.84791   0.28774   0.90107   0.00000  Uiso   1.00
C538   C     0.87796   0.26136   0.60893   0.00000  Uiso   1.00
C539   C     0.82082   0.21179   0.89531   0.00000  Uiso   1.00
C540   C     0.88045   0.25946   0.55977   0.00000  Uiso   1.00
H541   H     0.99107   0.24936   0.69451   0.00000  Uiso   1.00
H542   H     0.81073   0.18191   0.87379   0.00000  Uiso   1.00
H543   H     0.74569   0.14511   0.77392   0.00000  Uiso   1.00
H544   H     0.92317   0.35605   0.79212   0.00000  Uiso   1.00
H545   H     0.76059   0.19912   0.63783   0.00000  Uiso   1.00
H546   H     0.89293   0.31226   0.86107   0.00000  Uiso   1.00
H547   H     0.92737   0.25902   0.51234   0.00000  Uiso   1.00
H548   H     0.80715   0.14632   0.94319   0.00000  Uiso   1.00
H549   H     0.67566   0.25029   0.80551   0.00000  Uiso   1.00
H550   H     0.76148   0.02820   0.78334   0.00000  Uiso   1.00
H551   H     0.90932   0.47385   0.79466   0.00000  Uiso   1.00
H552   H     0.89926   0.11111   0.71528   0.00000  Uiso   1.00
H553   H     0.75847   0.38653   0.70781   0.00000  Uiso   1.00
H554   H     0.90088   0.02921   0.71707   0.00000  Uiso   1.00
H555   H     0.75617   0.46846   0.70817   0.00000  Uiso   1.00
H556   H     0.91286   0.27062   0.63349   0.00000  Uiso   1.00
I557   I     0.71432   0.22830   0.50070   0.00000  Uiso   1.00
I558   I     0.85719   0.35194   0.98702   0.00000  Uiso   1.00
N559   N     0.83333   0.24999   0.62624   0.00000  Uiso   1.00
N560   N     0.83333   0.25001   0.87376   0.00000  Uiso   1.00
O561   O     0.83334   0.18453   0.78974   0.00000  Uiso   1.00
O562   O     0.92347   0.38850   0.79968   0.00000  Uiso   1.00
O563   O     0.74660   0.21885   0.61128   0.00000  Uiso   1.00
O564   O     0.86898   0.32427   0.88208   0.00000  Uiso   1.00
O565   O     0.92878   0.26746   0.54623   0.00000  Uiso   1.00
O566   O     0.81407   0.17062   0.96757   0.00000  Uiso   1.00
O567   O     0.83333   0.31546   0.71026   0.00000  Uiso   1.00
O568   O     0.83334   0.18453   0.71026   0.00000  Uiso   1.00
O569   O     0.83333   0.31547   0.78974   0.00000  Uiso   1.00
O570   O     0.75725   0.25000   0.78045   0.00000  Uiso   1.00
O571   O     0.90942   0.25000   0.71956   0.00000  Uiso   1.00
O572   O     0.75725   0.24999   0.70097   0.00000  Uiso   1.00
O573   O     0.90942   0.25000   0.79903   0.00000  Uiso   1.00
O574   O     0.74836   0.11372   0.78459   0.00000  Uiso   1.00
Zn575  Zn    0.83333   0.25000   0.80307   0.00000  Uiso   1.00
Zn576  Zn    0.83333   0.24999   0.69693   0.00000  Uiso   1.00
C577   C     0.16550   0.66404   0.74952   0.00000  Uiso   1.00
C578   C     0.15591   0.71022   0.94540   0.00000  Uiso   1.00
C579   C     0.16742   0.74957   0.52665   0.00000  Uiso   1.00
C580   C     0.16667   0.74980   0.97332   0.00000  Uiso   1.00
C581   C     0.06702   0.74991   0.73748   0.00000  Uiso   1.00
C582   C     0.26632   0.75000   0.76252   0.00000  Uiso   1.00
C583   C     0.01189   0.74973   0.73083   0.00000  Uiso   1.00
C584   C     0.32146   0.75000   0.76918   0.00000  Uiso   1.00
C585   C     0.12476   0.54664   0.76866   0.00000  Uiso   1.00
C586   C     0.20985   0.95445   0.77599   0.00000  Uiso   1.00
C587   C     0.12292   0.59297   0.76752   0.00000  Uiso   1.00
C588   C     0.16740   0.83592   0.75042   0.00000  Uiso   1.00
C589   C     0.21189   0.90808   0.77606   0.00000  Uiso   1.00
C590   C     0.16275   0.61617   0.74848   0.00000  Uiso   1.00
C591   C     0.16855   0.88373   0.75124   0.00000  Uiso   1.00
C592   C     0.20218   0.59320   0.72985   0.00000  Uiso   1.00
C593   C     0.12486   0.90543   0.72680   0.00000  Uiso   1.00
C594   C     0.20344   0.54703   0.73125   0.00000  Uiso   1.00
C595   C     0.12336   0.95161   0.72723   0.00000  Uiso   1.00
C596   C     0.16487   0.52399   0.75079   0.00000  Uiso   1.00
C597   C     0.16589   0.97590   0.75165   0.00000  Uiso   1.00
C598   C     0.12128   0.73952   0.54546   0.00000  Uiso   1.00
C599   C     0.17771   0.78922   0.94998   0.00000  Uiso   1.00
C600   C     0.12280   0.73681   0.59507   0.00000  Uiso   1.00
C601   C     0.18125   0.78774   0.90107   0.00000  Uiso   1.00
C602   C     0.21129   0.76136   0.60893   0.00000  Uiso   1.00
C603   C     0.15415   0.71179   0.89531   0.00000  Uiso   1.00
C604   C     0.21378   0.75946   0.55977   0.00000  Uiso   1.00
H605   H     0.32440   0.74936   0.69451   0.00000  Uiso   1.00
H606   H     0.14406   0.68191   0.87379   0.00000  Uiso   1.00
H607   H     0.07902   0.64511   0.77392   0.00000  Uiso   1.00
H608   H     0.25651   0.85605   0.79212   0.00000  Uiso   1.00
H609   H     0.09392   0.69912   0.63783   0.00000  Uiso   1.00
H610   H     0.22627   0.81226   0.86107   0.00000  Uiso   1.00
H611   H     0.26071   0.75902   0.51234   0.00000  Uiso   1.00
H612   H     0.14048   0.64632   0.94319   0.00000  Uiso   1.00
H613   H     0.00899   0.75029   0.80551   0.00000  Uiso   1.00
H614   H     0.09482   0.52820   0.78334   0.00000  Uiso   1.00
H615   H     0.24266   0.97385   0.79466   0.00000  Uiso   1.00
H616   H     0.23259   0.61111   0.71528   0.00000  Uiso   1.00
H617   H     0.09180   0.88653   0.70781   0.00000  Uiso   1.00
H618   H     0.23421   0.52921   0.71707   0.00000  Uiso   1.00
H619   H     0.08950   0.96846   0.70817   0.00000  Uiso   1.00
H620   H     0.24619   0.77062   0.63349   0.00000  Uiso   1.00
I621   I     0.04766   0.72830   0.50070   0.00000  Uiso   1.00
I622   I     0.19052   0.85194   0.98702   0.00000  Uiso   1.00
N623   N     0.16667   0.74999   0.62624   0.00000  Uiso   1.00
N624   N     0.16667   0.75001   0.87376   0.00000  Uiso   1.00
O625   O     0.16667   0.68453   0.78974   0.00000  Uiso   1.00
O626   O     0.25680   0.88850   0.79968   0.00000  Uiso   1.00
O627   O     0.07993   0.71885   0.61128   0.00000  Uiso   1.00
O628   O     0.20232   0.82427   0.88208   0.00000  Uiso   1.00
O629   O     0.26211   0.76746   0.54623   0.00000  Uiso   1.00
O630   O     0.14740   0.67062   0.96757   0.00000  Uiso   1.00
O631   O     0.16666   0.81546   0.71026   0.00000  Uiso   1.00
O632   O     0.16667   0.68453   0.71026   0.00000  Uiso   1.00
O633   O     0.16666   0.81547   0.78974   0.00000  Uiso   1.00
O634   O     0.09058   0.75000   0.78045   0.00000  Uiso   1.00
O635   O     0.24275   0.75000   0.71956   0.00000  Uiso   1.00
O636   O     0.09058   0.74999   0.70097   0.00000  Uiso   1.00
O637   O     0.24275   0.75000   0.79903   0.00000  Uiso   1.00
O638   O     0.08169   0.61372   0.78459   0.00000  Uiso   1.00
Zn639  Zn    0.16667   0.75000   0.80307   0.00000  Uiso   1.00
Zn640  Zn    0.16667   0.74999   0.69693   0.00000  Uiso   1.00
C641   C     0.49883   0.66404   0.74952   0.00000  Uiso   1.00
C642   C     0.48924   0.71022   0.94540   0.00000  Uiso   1.00
C643   C     0.50076   0.74957   0.52665   0.00000  Uiso   1.00
C644   C     0.50001   0.74980   0.97332   0.00000  Uiso   1.00
C645   C     0.40035   0.74991   0.73748   0.00000  Uiso   1.00
C646   C     0.59965   0.75000   0.76252   0.00000  Uiso   1.00
C647   C     0.34523   0.74973   0.73083   0.00000  Uiso   1.00
C648   C     0.65479   0.75000   0.76918   0.00000  Uiso   1.00
C649   C     0.45809   0.54664   0.76866   0.00000  Uiso   1.00
C650   C     0.54318   0.95445   0.77599   0.00000  Uiso   1.00
C651   C     0.45625   0.59297   0.76752   0.00000  Uiso   1.00
C652   C     0.50073   0.83592   0.75042   0.00000  Uiso   1.00
C653   C     0.54522   0.90808   0.77606   0.00000  Uiso   1.00
C654   C     0.49608   0.61617   0.74848   0.00000  Uiso   1.00
C655   C     0.50188   0.88373   0.75124   0.00000  Uiso   1.00
C656   C     0.53551   0.59320   0.72985   0.00000  Uiso   1.00
C657   C     0.45819   0.90543   0.72680   0.00000  Uiso   1.00
C658   C     0.53677   0.54703   0.73125   0.00000  Uiso   1.00
C659   C     0.45669   0.95161   0.72723   0.00000  Uiso   1.00
C660   C     0.49820   0.52399   0.75079   0.00000  Uiso   1.00
C661   C     0.49923   0.97590   0.75165   0.00000  Uiso   1.00
C662   C     0.45461   0.73952   0.54546   0.00000  Uiso   1.00
C663   C     0.51104   0.78922   0.94998   0.00000  Uiso   1.00
C664   C     0.45613   0.73681   0.59507   0.00000  Uiso   1.00
C665   C     0.51458   0.78774   0.90107   0.00000  Uiso   1.00
C666   C     0.54463   0.76136   0.60893   0.00000  Uiso   1.00
C667   C     0.48749   0.71179   0.89531   0.00000  Uiso   1.00
C668   C     0.54712   0.75946   0.55977   0.00000  Uiso   1.00
H669   H     0.65773   0.74936   0.69451   0.00000  Uiso   1.00
H670   H     0.47739   0.68191   0.87379   0.00000  Uiso   1.00
H671   H     0.41236   0.64511   0.77392   0.00000  Uiso   1.00
H672   H     0.58984   0.85605   0.79212   0.00000  Uiso   1.00
H673   H     0.42726   0.69912   0.63783   0.00000  Uiso   1.00
H674   H     0.55960   0.81226   0.86107   0.00000  Uiso   1.00
H675   H     0.59404   0.75902   0.51234   0.00000  Uiso   1.00
H676   H     0.47381   0.64632   0.94319   0.00000  Uiso   1.00
H677   H     0.34233   0.75029   0.80551   0.00000  Uiso   1.00
H678   H     0.42815   0.52820   0.78334   0.00000  Uiso   1.00
H679   H     0.57599   0.97385   0.79466   0.00000  Uiso   1.00
H680   H     0.56593   0.61111   0.71528   0.00000  Uiso   1.00
H681   H     0.42514   0.88653   0.70781   0.00000  Uiso   1.00
H682   H     0.56755   0.52921   0.71707   0.00000  Uiso   1.00
H683   H     0.42283   0.96846   0.70817   0.00000  Uiso   1.00
H684   H     0.57952   0.77062   0.63349   0.00000  Uiso   1.00
I685   I     0.38099   0.72830   0.50070   0.00000  Uiso   1.00
I686   I     0.52385   0.85194   0.98702   0.00000  Uiso   1.00
N687   N     0.50000   0.74999   0.62624   0.00000  Uiso   1.00
N688   N     0.50000   0.75001   0.87376   0.00000  Uiso   1.00
O689   O     0.50000   0.68453   0.78974   0.00000  Uiso   1.00
O690   O     0.59014   0.88850   0.79968   0.00000  Uiso   1.00
O691   O     0.41327   0.71885   0.61128   0.00000  Uiso   1.00
O692   O     0.53565   0.82427   0.88208   0.00000  Uiso   1.00
O693   O     0.59545   0.76746   0.54623   0.00000  Uiso   1.00
O694   O     0.48074   0.67062   0.96757   0.00000  Uiso   1.00
O695   O     0.50000   0.81546   0.71026   0.00000  Uiso   1.00
O696   O     0.50000   0.68453   0.71026   0.00000  Uiso   1.00
O697   O     0.50000   0.81547   0.78974   0.00000  Uiso   1.00
O698   O     0.42392   0.75000   0.78045   0.00000  Uiso   1.00
O699   O     0.57608   0.75000   0.71956   0.00000  Uiso   1.00
O700   O     0.42392   0.74999   0.70097   0.00000  Uiso   1.00
O701   O     0.57608   0.75000   0.79903   0.00000  Uiso   1.00
O702   O     0.41503   0.61372   0.78459   0.00000  Uiso   1.00
Zn703  Zn    0.50000   0.75000   0.80307   0.00000  Uiso   1.00
Zn704  Zn    0.50000   0.74999   0.69693   0.00000  Uiso   1.00
C705   C     0.83216   0.66404   0.74952   0.00000  Uiso   1.00
C706   C     0.82257   0.71022   0.94540   0.00000  Uiso   1.00
C707   C     0.83409   0.74957   0.52665   0.00000  Uiso   1.00
C708   C     0.83334   0.74980   0.97332   0.00000  Uiso   1.00
C709   C     0.73368   0.74991   0.73748   0.00000  Uiso   1.00
C710   C     0.93299   0.75000   0.76252   0.00000  Uiso   1.00
C711   C     0.67856   0.74973   0.73083   0.00000  Uiso   1.00
C712   C     0.98812   0.75000   0.76918   0.00000  Uiso   1.00
C713   C     0.79143   0.54664   0.76866   0.00000  Uiso   1.00
C714   C     0.87651   0.95445   0.77599   0.00000  Uiso   1.00
C715   C     0.78959   0.59297   0.76752   0.00000  Uiso   1.00
C716   C     0.83407   0.83592   0.75042   0.00000  Uiso   1.00
C717   C     0.87856   0.90808   0.77606   0.00000  Uiso   1.00
C718   C     0.82942   0.61617   0.74848   0.00000  Uiso   1.00
C719   C     0.83522   0.88373   0.75124   0.00000  Uiso   1.00
C720   C     0.86885   0.59320   0.72985   0.00000  Uiso   1.00
C721   C     0.79153   0.90543   0.72680   0.00000  Uiso   1.00
C722   C     0.87010   0.54703   0.73125   0.00000  Uiso   1.00
C723   C     0.79002   0.95161   0.72723   0.00000  Uiso   1.00
C724   C     0.83153   0.52399   0.75079   0.00000  Uiso   1.00
C725   C     0.83256   0.97590   0.75165   0.00000  Uiso   1.00
C726   C     0.78794   0.73952   0.54546   0.00000  Uiso   1.00
C727   C     0.84437   0.78922   0.94998   0.00000  Uiso   1.00
C728   C     0.78946   0.73681   0.59507   0.00000  Uiso   1.00
C729   C     0.84791   0.78774   0.90107   0.00000  Uiso   1.00
C730   C     0.87796   0.76136   0.60893   0.00000  Uiso   1.00
C731   C     0.82082   0.71179   0.89531   0.00000  Uiso   1.00
C732   C     0.88045   0.75946   0.55977   0.00000  Uiso   1.00
H733   H     0.99107   0.74936   0.69451   0.00000  Uiso   1.00
H734   H     0.81073   0.68191   0.87379   0.00000  Uiso   1.00
H735   H     0.74569   0.64511   0.77392   0.00000  Uiso   1.00
H736   H     0.92317   0.85605   0.79212   0.00000  Uiso   1.00
H737   H     0.76059   0.69912   0.63783   0.00000  Uiso   1.00
H738   H     0.89293   0.81226   0.86107   0.00000  Uiso   1.00
H739   H     0.92737   0.75902   0.51234   0.00000  Uiso   1.00
H740   H     0.80715   0.64632   0.94319   0.00000  Uiso   1.00
H741   H     0.67566   0.75029   0.80551   0.00000  Uiso   1.00
H742   H     0.76148   0.52820   0.78334   0.00000  Uiso   1.00
H743   H     0.90932   0.97385   0.79466   0.00000  Uiso   1.00
H744   H     0.89926   0.61111   0.71528   0.00000  Uiso   1.00
H745   H     0.75847   0.88653   0.70781   0.00000  Uiso   1.00
H746   H     0.90088   0.52921   0.71707   0.00000  Uiso   1.00
H747   H     0.75617   0.96846   0.70817   0.00000  Uiso   1.00
H748   H     0.91286   0.77062   0.63349   0.00000  Uiso   1.00
I749   I     0.71432   0.72830   0.50070   0.00000  Uiso   1.00
I750   I     0.85719   0.85194   0.98702   0.00000  Uiso   1.00
N751   N     0.83333   0.74999   0.62624   0.00000  Uiso   1.00
N752   N     0.83333   0.75001   0.87376   0.00000  Uiso   1.00
O753   O     0.83334   0.68453   0.78974   0.00000  Uiso   1.00
O754   O     0.92347   0.88850   0.79968   0.00000  Uiso   1.00
O755   O     0.74660   0.71885   0.61128   0.00000  Uiso   1.00
O756   O     0.86898   0.82427   0.88208   0.00000  Uiso   1.00
O757   O     0.92878   0.76746   0.54623   0.00000  Uiso   1.00
O758   O     0.81407   0.67062   0.96757   0.00000  Uiso   1.00
O759   O     0.83333   0.81546   0.71026   0.00000  Uiso   1.00
O760   O     0.83334   0.68453   0.71026   0.00000  Uiso   1.00
O761   O     0.83333   0.81547   0.78974   0.00000  Uiso   1.00
O762   O     0.75725   0.75000   0.78045   0.00000  Uiso   1.00
O763   O     0.90942   0.75000   0.71956   0.00000  Uiso   1.00
O764   O     0.75725   0.74999   0.70097   0.00000  Uiso   1.00
O765   O     0.90942   0.75000   0.79903   0.00000  Uiso   1.00
O766   O     0.74836   0.61372   0.78459   0.00000  Uiso   1.00
Zn767  Zn    0.83333   0.75000   0.80307   0.00000  Uiso   1.00
Zn768  Zn    0.83333   0.74999   0.69693   0.00000  Uiso   1.00
loop_
_geom_bond_atom_site_label_1
_geom_bond_atom_site_label_2
_geom_bond_distance
_geom_bond_site_symmetry_2
_ccdc_geom_bond_type
C1     O56     1.287   .     A
C1     C14     1.430   .     S
C1     O49     1.286   .     A
C2     C4      1.415   .     A
C2     C27     1.421   .     A
C2     O54     1.381   .     S
C3     C28     1.427   .     A
C3     C22     1.411   .     A
C3     C388    1.515   1_554 S
C4     C23     1.409   .     A
C4     C387    1.515   .     S
C5     C7      1.403   .     S
C5     O58     1.277   .     A
C5     O60     1.284   .     A
C6     O61     1.284   .     A
C6     C8      1.404   .     S
C6     O59     1.277   .     A
C7     C136    1.333   1_455 S
C7     H157    1.087   1_455 S
C8     C71     1.333   .     S
C8     H101    1.088   .     S
C9     C20     1.396   .     A
C9     C11     1.385   .     A
C9     H38     1.084   .     S
C10    C21     1.397   .     A
C10    H39     1.084   .     S
C10    C13     1.385   .     A
C11    O62     1.382   .     S
C11    C14     1.415   .     A
C12    C15     1.427   .     S
C12    O57     1.286   .     A
C12    O55     1.285   .     A
C13    C15     1.414   .     A
C13    O50     1.382   .     S
C14    C16     1.397   .     A
C15    C17     1.396   .     A
C16    H40     1.084   .     S
C16    C18     1.380   .     A
C17    C19     1.379   .     A
C17    H41     1.084   .     S
C18    C20     1.395   .     A
C18    H42     1.084   .     S
C19    H43     1.084   .     S
C19    C21     1.395   .     A
C20    C213    1.436   1_545 S
C21    C212    1.436   .     S
C22    I45     2.134   .     S
C22    C24     1.410   .     A
C23    C25     1.409   .     A
C23    I46     2.132   .     S
C24    O51     1.371   .     S
C24    N47     1.374   .     A
C25    N48     1.375   .     A
C25    O52     1.371   .     S
C26    C28     1.411   .     A
C26    H44     1.080   .     S
C26    N47     1.363   .     A
C27    N48     1.364   .     A
C27    H30     1.081   .     S
C28    O53     1.381   .     S
H29    C71     1.087   .     S
H31    O62     0.989   .     S
H32    O50     0.989   .     S
H33    O51     0.989   .     S
H34    O52     0.990   .     S
H35    O53     0.989   .     S
H36    O54     0.992   .     S
H37    C136    1.088   1_455 S
N47    Zn64    2.012   .     S
N48    Zn63    2.012   .     S
O49    Zn63    1.985   .     S
O55    Zn64    1.985   .     S
O56    Zn64    1.996   .     S
O57    Zn63    1.996   .     S
O58    Zn63    1.966   .     S
O59    Zn64    1.966   .     S
O60    Zn64    1.982   .     S
O61    Zn63    1.982   .     S
C65    O120    1.287   .     A
C65    C78     1.430   .     S
C65    O113    1.286   .     A
C66    C68     1.415   .     A
C66    C91     1.421   .     A
C66    O118    1.381   .     S
C67    C92     1.427   .     A
C67    C86     1.411   .     A
C67    C452    1.515   1_554 S
C68    C87     1.409   .     A
C68    C451    1.515   .     S
C69    C71     1.403   .     S
C69    O122    1.277   .     A
C69    O124    1.284   .     A
C70    O125    1.284   .     A
C70    C72     1.404   .     S
C70    O123    1.277   .     A
C72    C135    1.333   .     S
C72    H165    1.088   .     S
C73    C84     1.396   .     A
C73    C75     1.385   .     A
C73    H102    1.084   .     S
C74    C85     1.397   .     A
C74    H103    1.084   .     S
C74    C77     1.385   .     A
C75    O126    1.382   .     S
C75    C78     1.415   .     A
C76    C79     1.427   .     S
C76    O121    1.286   .     A
C76    O119    1.285   .     A
C77    C79     1.414   .     A
C77    O114    1.382   .     S
C78    C80     1.397   .     A
C79    C81     1.396   .     A
C80    H104    1.084   .     S
C80    C82     1.380   .     A
C81    C83     1.379   .     A
C81    H105    1.084   .     S
C82    C84     1.395   .     A
C82    H106    1.084   .     S
C83    H107    1.084   .     S
C83    C85     1.395   .     A
C84    C277    1.436   1_545 S
C85    C276    1.436   .     S
C86    I109    2.134   .     S
C86    C88     1.410   .     A
C87    C89     1.409   .     A
C87    I110    2.132   .     S
C88    O115    1.371   .     S
C88    N111    1.374   .     A
C89    N112    1.375   .     A
C89    O116    1.371   .     S
C90    C92     1.411   .     A
C90    H108    1.080   .     S
C90    N111    1.363   .     A
C91    N112    1.364   .     A
C91    H94     1.081   .     S
C92    O117    1.381   .     S
H93    C135    1.087   .     S
H95    O126    0.989   .     S
H96    O114    0.989   .     S
H97    O115    0.989   .     S
H98    O116    0.990   .     S
H99    O117    0.989   .     S
H100   O118    0.992   .     S
N111   Zn128   2.012   .     S
N112   Zn127   2.012   .     S
O113   Zn127   1.985   .     S
O119   Zn128   1.985   .     S
O120   Zn128   1.996   .     S
O121   Zn127   1.996   .     S
O122   Zn127   1.966   .     S
O123   Zn128   1.966   .     S
O124   Zn128   1.982   .     S
O125   Zn127   1.982   .     S
C129   O184    1.287   .     A
C129   C142    1.430   .     S
C129   O177    1.286   .     A
C130   C132    1.415   .     A
C130   C155    1.421   .     A
C130   O182    1.381   .     S
C131   C156    1.427   .     A
C131   C150    1.411   .     A
C131   C516    1.515   1_554 S
C132   C151    1.409   .     A
C132   C515    1.515   .     S
C133   C135    1.403   .     S
C133   O186    1.277   .     A
C133   O188    1.284   .     A
C134   O189    1.284   .     A
C134   C136    1.404   .     S
C134   O187    1.277   .     A
C136   C7      1.333   1_655 S
C136   H37     1.088   1_655 S
C137   C148    1.396   .     A
C137   C139    1.385   .     A
C137   H166    1.084   .     S
C138   C149    1.397   .     A
C138   H167    1.084   .     S
C138   C141    1.385   .     A
C139   O190    1.382   .     S
C139   C142    1.415   .     A
C140   C143    1.427   .     S
C140   O185    1.286   .     A
C140   O183    1.285   .     A
C141   C143    1.414   .     A
C141   O178    1.382   .     S
C142   C144    1.397   .     A
C143   C145    1.396   .     A
C144   H168    1.084   .     S
C144   C146    1.380   .     A
C145   C147    1.379   .     A
C145   H169    1.084   .     S
C146   C148    1.395   .     A
C146   H170    1.084   .     S
C147   H171    1.084   .     S
C147   C149    1.395   .     A
C148   C341    1.436   1_545 S
C149   C340    1.436   .     S
C150   I173    2.134   .     S
C150   C152    1.410   .     A
C151   C153    1.409   .     A
C151   I174    2.132   .     S
C152   O179    1.371   .     S
C152   N175    1.374   .     A
C153   N176    1.375   .     A
C153   O180    1.371   .     S
C154   C156    1.411   .     A
C154   H172    1.080   .     S
C154   N175    1.363   .     A
C155   N176    1.364   .     A
C155   H158    1.081   .     S
C156   O181    1.381   .     S
H157   C7      1.087   1_655 S
H159   O190    0.989   .     S
H160   O178    0.989   .     S
H161   O179    0.989   .     S
H162   O180    0.990   .     S
H163   O181    0.989   .     S
H164   O182    0.992   .     S
N175   Zn192   2.012   .     S
N176   Zn191   2.012   .     S
O177   Zn191   1.985   .     S
O183   Zn192   1.985   .     S
O184   Zn192   1.996   .     S
O185   Zn191   1.996   .     S
O186   Zn191   1.966   .     S
O187   Zn192   1.966   .     S
O188   Zn192   1.982   .     S
O189   Zn191   1.982   .     S
C193   O248    1.287   .     A
C193   C206    1.430   .     S
C193   O241    1.286   .     A
C194   C196    1.415   .     A
C194   C219    1.421   .     A
C194   O246    1.381   .     S
C195   C220    1.427   .     A
C195   C214    1.411   .     A
C195   C580    1.515   1_554 S
C196   C215    1.409   .     A
C196   C579    1.515   .     S
C197   C199    1.403   .     S
C197   O250    1.277   .     A
C197   O252    1.284   .     A
C198   O253    1.284   .     A
C198   C200    1.404   .     S
C198   O251    1.277   .     A
C199   C328    1.333   1_455 S
C199   H349    1.087   1_455 S
C200   C263    1.333   .     S
C200   H293    1.088   .     S
C201   C212    1.396   .     A
C201   C203    1.385   .     A
C201   H230    1.084   .     S
C202   C213    1.397   .     A
C202   H231    1.084   .     S
C202   C205    1.385   .     A
C203   O254    1.382   .     S
C203   C206    1.415   .     A
C204   C207    1.427   .     S
C204   O249    1.286   .     A
C204   O247    1.285   .     A
C205   C207    1.414   .     A
C205   O242    1.382   .     S
C206   C208    1.397   .     A
C207   C209    1.396   .     A
C208   H232    1.084   .     S
C208   C210    1.380   .     A
C209   C211    1.379   .     A
C209   H233    1.084   .     S
C210   C212    1.395   .     A
C210   H234    1.084   .     S
C211   H235    1.084   .     S
C211   C213    1.395   .     A
C213   C20     1.436   1_565 S
C214   I237    2.134   .     S
C214   C216    1.410   .     A
C215   C217    1.409   .     A
C215   I238    2.132   .     S
C216   O243    1.371   .     S
C216   N239    1.374   .     A
C217   N240    1.375   .     A
C217   O244    1.371   .     S
C218   C220    1.411   .     A
C218   H236    1.080   .     S
C218   N239    1.363   .     A
C219   N240    1.364   .     A
C219   H222    1.081   .     S
C220   O245    1.381   .     S
H221   C263    1.087   .     S
H223   O254    0.989   .     S
H224   O242    0.989   .     S
H225   O243    0.989   .     S
H226   O244    0.990   .     S
H227   O245    0.989   .     S
H228   O246    0.992   .     S
H229   C328    1.088   1_455 S
N239   Zn256   2.012   .     S
N240   Zn255   2.012   .     S
O241   Zn255   1.985   .     S
O247   Zn256   1.985   .     S
O248   Zn256   1.996   .     S
O249   Zn255   1.996   .     S
O250   Zn255   1.966   .     S
O251   Zn256   1.966   .     S
O252   Zn256   1.982   .     S
O253   Zn255   1.982   .     S
C257   O312    1.287   .     A
C257   C270    1.430   .     S
C257   O305    1.286   .     A
C258   C260    1.415   .     A
C258   C283    1.421   .     A
C258   O310    1.381   .     S
C259   C284    1.427   .     A
C259   C278    1.411   .     A
C259   C644    1.515   1_554 S
C260   C279    1.409   .     A
C260   C643    1.515   .     S
C261   C263    1.403   .     S
C261   O314    1.277   .     A
C261   O316    1.284   .     A
C262   O317    1.284   .     A
C262   C264    1.404   .     S
C262   O315    1.277   .     A
C264   C327    1.333   .     S
C264   H357    1.088   .     S
C265   C276    1.396   .     A
C265   C267    1.385   .     A
C265   H294    1.084   .     S
C266   C277    1.397   .     A
C266   H295    1.084   .     S
C266   C269    1.385   .     A
C267   O318    1.382   .     S
C267   C270    1.415   .     A
C268   C271    1.427   .     S
C268   O313    1.286   .     A
C268   O311    1.285   .     A
C269   C271    1.414   .     A
C269   O306    1.382   .     S
C270   C272    1.397   .     A
C271   C273    1.396   .     A
C272   H296    1.084   .     S
C272   C274    1.380   .     A
C273   C275    1.379   .     A
C273   H297    1.084   .     S
C274   C276    1.395   .     A
C274   H298    1.084   .     S
C275   H299    1.084   .     S
C275   C277    1.395   .     A
C277   C84     1.436   1_565 S
C278   I301    2.134   .     S
C278   C280    1.410   .     A
C279   C281    1.409   .     A
C279   I302    2.132   .     S
C280   O307    1.371   .     S
C280   N303    1.374   .     A
C281   N304    1.375   .     A
C281   O308    1.371   .     S
C282   C284    1.411   .     A
C282   H300    1.080   .     S
C282   N303    1.363   .     A
C283   N304    1.364   .     A
C283   H286    1.081   .     S
C284   O309    1.381   .     S
H285   C327    1.087   .     S
H287   O318    0.989   .     S
H288   O306    0.989   .     S
H289   O307    0.989   .     S
H290   O308    0.990   .     S
H291   O309    0.989   .     S
H292   O310    0.992   .     S
N303   Zn320   2.012   .     S
N304   Zn319   2.012   .     S
O305   Zn319   1.985   .     S
O311   Zn320   1.985   .     S
O312   Zn320   1.996   .     S
O313   Zn319   1.996   .     S
O314   Zn319   1.966   .     S
O315   Zn320   1.966   .     S
O316   Zn320   1.982   .     S
O317   Zn319   1.982   .     S
C321   O376    1.287   .     A
C321   C334    1.430   .     S
C321   O369    1.286   .     A
C322   C324    1.415   .     A
C322   C347    1.421   .     A
C322   O374    1.381   .     S
C323   C348    1.427   .     A
C323   C342    1.411   .     A
C323   C708    1.515   1_554 S
C324   C343    1.409   .     A
C324   C707    1.515   .     S
C325   C327    1.403   .     S
C325   O378    1.277   .     A
C325   O380    1.284   .     A
C326   O381    1.284   .     A
C326   C328    1.404   .     S
C326   O379    1.277   .     A
C328   C199    1.333   1_655 S
C328   H229    1.088   1_655 S
C329   C340    1.396   .     A
C329   C331    1.385   .     A
C329   H358    1.084   .     S
C330   C341    1.397   .     A
C330   H359    1.084   .     S
C330   C333    1.385   .     A
C331   O382    1.382   .     S
C331   C334    1.415   .     A
C332   C335    1.427   .     S
C332   O377    1.286   .     A
C332   O375    1.285   .     A
C333   C335    1.414   .     A
C333   O370    1.382   .     S
C334   C336    1.397   .     A
C335   C337    1.396   .     A
C336   H360    1.084   .     S
C336   C338    1.380   .     A
C337   C339    1.379   .     A
C337   H361    1.084   .     S
C338   C340    1.395   .     A
C338   H362    1.084   .     S
C339   H363    1.084   .     S
C339   C341    1.395   .     A
C341   C148    1.436   1_565 S
C342   I365    2.134   .     S
C342   C344    1.410   .     A
C343   C345    1.409   .     A
C343   I366    2.132   .     S
C344   O371    1.371   .     S
C344   N367    1.374   .     A
C345   N368    1.375   .     A
C345   O372    1.371   .     S
C346   C348    1.411   .     A
C346   H364    1.080   .     S
C346   N367    1.363   .     A
C347   N368    1.364   .     A
C347   H350    1.081   .     S
C348   O373    1.381   .     S
H349   C199    1.087   1_655 S
H351   O382    0.989   .     S
H352   O370    0.989   .     S
H353   O371    0.989   .     S
H354   O372    0.990   .     S
H355   O373    0.989   .     S
H356   O374    0.992   .     S
N367   Zn384   2.012   .     S
N368   Zn383   2.012   .     S
O369   Zn383   1.985   .     S
O375   Zn384   1.985   .     S
O376   Zn384   1.996   .     S
O377   Zn383   1.996   .     S
O378   Zn383   1.966   .     S
O379   Zn384   1.966   .     S
O380   Zn384   1.982   .     S
O381   Zn383   1.982   .     S
C385   O440    1.287   .     A
C385   C398    1.430   .     S
C385   O433    1.286   .     A
C386   C388    1.415   .     A
C386   C411    1.421   .     A
C386   O438    1.381   .     S
C387   C412    1.427   .     A
C387   C406    1.411   .     A
C388   C407    1.409   .     A
C388   C3      1.515   1_556 S
C389   C391    1.403   .     S
C389   O442    1.277   .     A
C389   O444    1.284   .     A
C390   O445    1.284   .     A
C390   C392    1.404   .     S
C390   O443    1.277   .     A
C391   C520    1.333   1_455 S
C391   H541    1.087   1_455 S
C392   C455    1.333   .     S
C392   H485    1.088   .     S
C393   C404    1.396   .     A
C393   C395    1.385   .     A
C393   H422    1.084   .     S
C394   C405    1.397   .     A
C394   H423    1.084   .     S
C394   C397    1.385   .     A
C395   O446    1.382   .     S
C395   C398    1.415   .     A
C396   C399    1.427   .     S
C396   O441    1.286   .     A
C396   O439    1.285   .     A
C397   C399    1.414   .     A
C397   O434    1.382   .     S
C398   C400    1.397   .     A
C399   C401    1.396   .     A
C400   H424    1.084   .     S
C400   C402    1.380   .     A
C401   C403    1.379   .     A
C401   H425    1.084   .     S
C402   C404    1.395   .     A
C402   H426    1.084   .     S
C403   H427    1.084   .     S
C403   C405    1.395   .     A
C404   C597    1.436   1_545 S
C405   C596    1.436   .     S
C406   I429    2.134   .     S
C406   C408    1.410   .     A
C407   C409    1.409   .     A
C407   I430    2.132   .     S
C408   O435    1.371   .     S
C408   N431    1.374   .     A
C409   N432    1.375   .     A
C409   O436    1.371   .     S
C410   C412    1.411   .     A
C410   H428    1.080   .     S
C410   N431    1.363   .     A
C411   N432    1.364   .     A
C411   H414    1.081   .     S
C412   O437    1.381   .     S
H413   C455    1.087   .     S
H415   O446    0.989   .     S
H416   O434    0.989   .     S
H417   O435    0.989   .     S
H418   O436    0.990   .     S
H419   O437    0.989   .     S
H420   O438    0.992   .     S
H421   C520    1.088   1_455 S
N431   Zn448   2.012   .     S
N432   Zn447   2.012   .     S
O433   Zn447   1.985   .     S
O439   Zn448   1.985   .     S
O440   Zn448   1.996   .     S
O441   Zn447   1.996   .     S
O442   Zn447   1.966   .     S
O443   Zn448   1.966   .     S
O444   Zn448   1.982   .     S
O445   Zn447   1.982   .     S
C449   O504    1.287   .     A
C449   C462    1.430   .     S
C449   O497    1.286   .     A
C450   C452    1.415   .     A
C450   C475    1.421   .     A
C450   O502    1.381   .     S
C451   C476    1.427   .     A
C451   C470    1.411   .     A
C452   C471    1.409   .     A
C452   C67     1.515   1_556 S
C453   C455    1.403   .     S
C453   O506    1.277   .     A
C453   O508    1.284   .     A
C454   O509    1.284   .     A
C454   C456    1.404   .     S
C454   O507    1.277   .     A
C456   C519    1.333   .     S
C456   H549    1.088   .     S
C457   C468    1.396   .     A
C457   C459    1.385   .     A
C457   H486    1.084   .     S
C458   C469    1.397   .     A
C458   H487    1.084   .     S
C458   C461    1.385   .     A
C459   O510    1.382   .     S
C459   C462    1.415   .     A
C460   C463    1.427   .     S
C460   O505    1.286   .     A
C460   O503    1.285   .     A
C461   C463    1.414   .     A
C461   O498    1.382   .     S
C462   C464    1.397   .     A
C463   C465    1.396   .     A
C464   H488    1.084   .     S
C464   C466    1.380   .     A
C465   C467    1.379   .     A
C465   H489    1.084   .     S
C466   C468    1.395   .     A
C466   H490    1.084   .     S
C467   H491    1.084   .     S
C467   C469    1.395   .     A
C468   C661    1.436   1_545 S
C469   C660    1.436   .     S
C470   I493    2.134   .     S
C470   C472    1.410   .     A
C471   C473    1.409   .     A
C471   I494    2.132   .     S
C472   O499    1.371   .     S
C472   N495    1.374   .     A
C473   N496    1.375   .     A
C473   O500    1.371   .     S
C474   C476    1.411   .     A
C474   H492    1.080   .     S
C474   N495    1.363   .     A
C475   N496    1.364   .     A
C475   H478    1.081   .     S
C476   O501    1.381   .     S
H477   C519    1.087   .     S
H479   O510    0.989   .     S
H480   O498    0.989   .     S
H481   O499    0.989   .     S
H482   O500    0.990   .     S
H483   O501    0.989   .     S
H484   O502    0.992   .     S
N495   Zn512   2.012   .     S
N496   Zn511   2.012   .     S
O497   Zn511   1.985   .     S
O503   Zn512   1.985   .     S
O504   Zn512   1.996   .     S
O505   Zn511   1.996   .     S
O506   Zn511   1.966   .     S
O507   Zn512   1.966   .     S
O508   Zn512   1.982   .     S
O509   Zn511   1.982   .     S
C513   O568    1.287   .     A
C513   C526    1.430   .     S
C513   O561    1.286   .     A
C514   C516    1.415   .     A
C514   C539    1.421   .     A
C514   O566    1.381   .     S
C515   C540    1.427   .     A
C515   C534    1.411   .     A
C516   C535    1.409   .     A
C516   C131    1.515   1_556 S
C517   C519    1.403   .     S
C517   O570    1.277   .     A
C517   O572    1.284   .     A
C518   O573    1.284   .     A
C518   C520    1.404   .     S
C518   O571    1.277   .     A
C520   C391    1.333   1_655 S
C520   H421    1.088   1_655 S
C521   C532    1.396   .     A
C521   C523    1.385   .     A
C521   H550    1.084   .     S
C522   C533    1.397   .     A
C522   H551    1.084   .     S
C522   C525    1.385   .     A
C523   O574    1.382   .     S
C523   C526    1.415   .     A
C524   C527    1.427   .     S
C524   O569    1.286   .     A
C524   O567    1.285   .     A
C525   C527    1.414   .     A
C525   O562    1.382   .     S
C526   C528    1.397   .     A
C527   C529    1.396   .     A
C528   H552    1.084   .     S
C528   C530    1.380   .     A
C529   C531    1.379   .     A
C529   H553    1.084   .     S
C530   C532    1.395   .     A
C530   H554    1.084   .     S
C531   H555    1.084   .     S
C531   C533    1.395   .     A
C532   C725    1.436   1_545 S
C533   C724    1.436   .     S
C534   I557    2.134   .     S
C534   C536    1.410   .     A
C535   C537    1.409   .     A
C535   I558    2.132   .     S
C536   O563    1.371   .     S
C536   N559    1.374   .     A
C537   N560    1.375   .     A
C537   O564    1.371   .     S
C538   C540    1.411   .     A
C538   H556    1.080   .     S
C538   N559    1.363   .     A
C539   N560    1.364   .     A
C539   H542    1.081   .     S
C540   O565    1.381   .     S
H541   C391    1.087   1_655 S
H543   O574    0.989   .     S
H544   O562    0.989   .     S
H545   O563    0.989   .     S
H546   O564    0.990   .     S
H547   O565    0.989   .     S
H548   O566    0.992   .     S
N559   Zn576   2.012   .     S
N560   Zn575   2.012   .     S
O561   Zn575   1.985   .     S
O567   Zn576   1.985   .     S
O568   Zn576   1.996   .     S
O569   Zn575   1.996   .     S
O570   Zn575   1.966   .     S
O571   Zn576   1.966   .     S
O572   Zn576   1.982   .     S
O573   Zn575   1.982   .     S
C577   O632    1.287   .     A
C577   C590    1.430   .     S
C577   O625    1.286   .     A
C578   C580    1.415   .     A
C578   C603    1.421   .     A
C578   O630    1.381   .     S
C579   C604    1.427   .     A
C579   C598    1.411   .     A
C580   C599    1.409   .     A
C580   C195    1.515   1_556 S
C581   C583    1.403   .     S
C581   O634    1.277   .     A
C581   O636    1.284   .     A
C582   O637    1.284   .     A
C582   C584    1.404   .     S
C582   O635    1.277   .     A
C583   C712    1.333   1_455 S
C583   H733    1.087   1_455 S
C584   C647    1.333   .     S
C584   H677    1.088   .     S
C585   C596    1.396   .     A
C585   C587    1.385   .     A
C585   H614    1.084   .     S
C586   C597    1.397   .     A
C586   H615    1.084   .     S
C586   C589    1.385   .     A
C587   O638    1.382   .     S
C587   C590    1.415   .     A
C588   C591    1.427   .     S
C588   O633    1.286   .     A
C588   O631    1.285   .     A
C589   C591    1.414   .     A
C589   O626    1.382   .     S
C590   C592    1.397   .     A
C591   C593    1.396   .     A
C592   H616    1.084   .     S
C592   C594    1.380   .     A
C593   C595    1.379   .     A
C593   H617    1.084   .     S
C594   C596    1.395   .     A
C594   H618    1.084   .     S
C595   H619    1.084   .     S
C595   C597    1.395   .     A
C597   C404    1.436   1_565 S
C598   I621    2.134   .     S
C598   C600    1.410   .     A
C599   C601    1.409   .     A
C599   I622    2.132   .     S
C600   O627    1.371   .     S
C600   N623    1.374   .     A
C601   N624    1.375   .     A
C601   O628    1.371   .     S
C602   C604    1.411   .     A
C602   H620    1.080   .     S
C602   N623    1.363   .     A
C603   N624    1.364   .     A
C603   H606    1.081   .     S
C604   O629    1.381   .     S
H605   C647    1.087   .     S
H607   O638    0.989   .     S
H608   O626    0.989   .     S
H609   O627    0.989   .     S
H610   O628    0.990   .     S
H611   O629    0.989   .     S
H612   O630    0.992   .     S
H613   C712    1.088   1_455 S
N623   Zn640   2.012   .     S
N624   Zn639   2.012   .     S
O625   Zn639   1.985   .     S
O631   Zn640   1.985   .     S
O632   Zn640   1.996   .     S
O633   Zn639   1.996   .     S
O634   Zn639   1.966   .     S
O635   Zn640   1.966   .     S
O636   Zn640   1.982   .     S
O637   Zn639   1.982   .     S
C641   O696    1.287   .     A
C641   C654    1.430   .     S
C641   O689    1.286   .     A
C642   C644    1.415   .     A
C642   C667    1.421   .     A
C642   O694    1.381   .     S
C643   C668    1.427   .     A
C643   C662    1.411   .     A
C644   C663    1.409   .     A
C644   C259    1.515   1_556 S
C645   C647    1.403   .     S
C645   O698    1.277   .     A
C645   O700    1.284   .     A
C646   O701    1.284   .     A
C646   C648    1.404   .     S
C646   O699    1.277   .     A
C648   C711    1.333   .     S
C648   H741    1.088   .     S
C649   C660    1.396   .     A
C649   C651    1.385   .     A
C649   H678    1.084   .     S
C650   C661    1.397   .     A
C650   H679    1.084   .     S
C650   C653    1.385   .     A
C651   O702    1.382   .     S
C651   C654    1.415   .     A
C652   C655    1.427   .     S
C652   O697    1.286   .     A
C652   O695    1.285   .     A
C653   C655    1.414   .     A
C653   O690    1.382   .     S
C654   C656    1.397   .     A
C655   C657    1.396   .     A
C656   H680    1.084   .     S
C656   C658    1.380   .     A
C657   C659    1.379   .     A
C657   H681    1.084   .     S
C658   C660    1.395   .     A
C658   H682    1.084   .     S
C659   H683    1.084   .     S
C659   C661    1.395   .     A
C661   C468    1.436   1_565 S
C662   I685    2.134   .     S
C662   C664    1.410   .     A
C663   C665    1.409   .     A
C663   I686    2.132   .     S
C664   O691    1.371   .     S
C664   N687    1.374   .     A
C665   N688    1.375   .     A
C665   O692    1.371   .     S
C666   C668    1.411   .     A
C666   H684    1.080   .     S
C666   N687    1.363   .     A
C667   N688    1.364   .     A
C667   H670    1.081   .     S
C668   O693    1.381   .     S
H669   C711    1.087   .     S
H671   O702    0.989   .     S
H672   O690    0.989   .     S
H673   O691    0.989   .     S
H674   O692    0.990   .     S
H675   O693    0.989   .     S
H676   O694    0.992   .     S
N687   Zn704   2.012   .     S
N688   Zn703   2.012   .     S
O689   Zn703   1.985   .     S
O695   Zn704   1.985   .     S
O696   Zn704   1.996   .     S
O697   Zn703   1.996   .     S
O698   Zn703   1.966   .     S
O699   Zn704   1.966   .     S
O700   Zn704   1.982   .     S
O701   Zn703   1.982   .     S
C705   O760    1.287   .     A
C705   C718    1.430   .     S
C705   O753    1.286   .     A
C706   C708    1.415   .     A
C706   C731    1.421   .     A
C706   O758    1.381   .     S
C707   C732    1.427   .     A
C707   C726    1.411   .     A
C708   C727    1.409   .     A
C708   C323    1.515   1_556 S
C709   C711    1.403   .     S
C709   O762    1.277   .     A
C709   O764    1.284   .     A
C710   O765    1.284   .     A
C710   C712    1.404   .     S
C710   O763    1.277   .     A
C712   C583    1.333   1_655 S
C712   H613    1.088   1_655 S
C713   C724    1.396   .     A
C713   C715    1.385   .     A
C713   H742    1.084   .     S
C714   C725    1.397   .     A
C714   H743    1.084   .     S
C714   C717    1.385   .     A
C715   O766    1.382   .     S
C715   C718    1.415   .     A
C716   C719    1.427   .     S
C716   O761    1.286   .     A
C716   O759    1.285   .     A
C717   C719    1.414   .     A
C717   O754    1.382   .     S
C718   C720    1.397   .     A
C719   C721    1.396   .     A
C720   H744    1.084   .     S
C720   C722    1.380   .     A
C721   C723    1.379   .     A
C721   H745    1.084   .     S
C722   C724    1.395   .     A
C722   H746    1.084   .     S
C723   H747    1.084   .     S
C723   C725    1.395   .     A
C725   C532    1.436   1_565 S
C726   I749    2.134   .     S
C726   C728    1.410   .     A
C727   C729    1.409   .     A
C727   I750    2.132   .     S
C728   O755    1.371   .     S
C728   N751    1.374   .     A
C729   N752    1.375   .     A
C729   O756    1.371   .     S
C730   C732    1.411   .     A
C730   H748    1.080   .     S
C730   N751    1.363   .     A
C731   N752    1.364   .     A
C731   H734    1.081   .     S
C732   O757    1.381   .     S
H733   C583    1.087   1_655 S
H735   O766    0.989   .     S
H736   O754    0.989   .     S
H737   O755    0.989   .     S
H738   O756    0.990   .     S
H739   O757    0.989   .     S
H740   O758    0.992   .     S
N751   Zn768   2.012   .     S
N752   Zn767   2.012   .     S
O753   Zn767   1.985   .     S
O759   Zn768   1.985   .     S
O760   Zn768   1.996   .     S
O761   Zn767   1.996   .     S
O762   Zn767   1.966   .     S
O763   Zn768   1.966   .     S
O764   Zn768   1.982   .     S
O765   Zn767   1.982   .     S
