data_str_m3_o2_o5_pcu_sym.2
_audit_creation_date              2020-01-03
_audit_creation_method            'Materials Studio'
_symmetry_space_group_name_H-M    'P1'
_symmetry_Int_Tables_number       1
_symmetry_cell_setting            triclinic
loop_
_symmetry_equiv_pos_as_xyz
  x,y,z
_cell_length_a                    29.9732
_cell_length_b                    28.3401
_cell_length_c                    26.7549
_cell_angle_alpha                 89.9998
_cell_angle_beta                  89.9938
_cell_angle_gamma                 90.0000
loop_
_atom_site_label
_atom_site_type_symbol
_atom_site_fract_x
_atom_site_fract_y
_atom_site_fract_z
_atom_site_U_iso_or_equiv
_atom_site_adp_type
_atom_site_occupancy
C1     C     0.16395   0.25000   0.16667   0.00000  Uiso   1.00
C2     C     0.22073   0.44732   0.13497   0.00000  Uiso   1.00
C3     C     0.25000   0.25000   0.07284   0.00000  Uiso   1.00
C4     C     0.25000   0.25000   0.26050   0.00000  Uiso   1.00
C5     C     0.25000   0.02669   0.16667   0.00000  Uiso   1.00
C6     C     0.25000   0.47331   0.16667   0.00000  Uiso   1.00
C7     C     0.25000   0.25000   0.02178   0.00000  Uiso   1.00
C8     C     0.25000   0.25000   0.31155   0.00000  Uiso   1.00
C9     C     0.04735   0.28433   0.13825   0.00000  Uiso   1.00
C10    C     0.45265   0.21567   0.13825   0.00000  Uiso   1.00
C11    C     0.45265   0.28433   0.19509   0.00000  Uiso   1.00
C12    C     0.33605   0.25000   0.16666   0.00000  Uiso   1.00
C13    C     0.04735   0.21567   0.19510   0.00000  Uiso   1.00
C14    C     0.09343   0.28442   0.13962   0.00000  Uiso   1.00
C15    C     0.40658   0.21558   0.13962   0.00000  Uiso   1.00
C16    C     0.40657   0.28442   0.19372   0.00000  Uiso   1.00
C17    C     0.09342   0.21558   0.19373   0.00000  Uiso   1.00
C18    C     0.11616   0.25000   0.16667   0.00000  Uiso   1.00
C19    C     0.38384   0.25000   0.16667   0.00000  Uiso   1.00
C20    C     0.02410   0.25000   0.16667   0.00000  Uiso   1.00
C21    C     0.47590   0.25000   0.16667   0.00000  Uiso   1.00
C22    C     0.27812   0.10235   0.13577   0.00000  Uiso   1.00
C23    C     0.27834   0.39765   0.19730   0.00000  Uiso   1.00
C24    C     0.22188   0.10235   0.19756   0.00000  Uiso   1.00
C25    C     0.22166   0.39764   0.13604   0.00000  Uiso   1.00
C26    C     0.27903   0.05268   0.13469   0.00000  Uiso   1.00
C27    C     0.27927   0.44732   0.19836   0.00000  Uiso   1.00
C28    C     0.22097   0.05268   0.19864   0.00000  Uiso   1.00
H29    H     0.30018   0.12211   0.11153   0.00000  Uiso   1.00
H30    H     0.00551   0.18806   0.10646   0.00000  Uiso   1.00
H31    H     0.00549   0.31194   0.22689   0.00000  Uiso   1.00
H32    H     0.49449   0.18805   0.22688   0.00000  Uiso   1.00
H33    H     0.30622   0.49694   0.10415   0.00000  Uiso   1.00
H34    H     0.30670   0.00306   0.22862   0.00000  Uiso   1.00
H35    H     0.19376   0.49694   0.22917   0.00000  Uiso   1.00
H36    H     0.19329   0.00306   0.10472   0.00000  Uiso   1.00
H37    H     0.30058   0.37789   0.22133   0.00000  Uiso   1.00
H38    H     0.19982   0.12211   0.22180   0.00000  Uiso   1.00
H39    H     0.19942   0.37789   0.11200   0.00000  Uiso   1.00
H40    H     0.11158   0.31073   0.11833   0.00000  Uiso   1.00
H41    H     0.38844   0.18927   0.11833   0.00000  Uiso   1.00
H42    H     0.38842   0.31073   0.21500   0.00000  Uiso   1.00
H43    H     0.11157   0.18927   0.21501   0.00000  Uiso   1.00
H44    H     0.49450   0.31195   0.10647   0.00000  Uiso   1.00
N45    N     0.25000   0.12623   0.16667   0.00000  Uiso   1.00
N46    N     0.25000   0.37376   0.16667   0.00000  Uiso   1.00
O47    O     0.18453   0.28974   0.16667   0.00000  Uiso   1.00
O48    O     0.47316   0.18179   0.10895   0.00000  Uiso   1.00
O49    O     0.47314   0.31821   0.22440   0.00000  Uiso   1.00
O50    O     0.02685   0.18179   0.22440   0.00000  Uiso   1.00
O51    O     0.30865   0.03166   0.10197   0.00000  Uiso   1.00
O52    O     0.30913   0.46834   0.23080   0.00000  Uiso   1.00
O53    O     0.19135   0.03166   0.23137   0.00000  Uiso   1.00
O54    O     0.19087   0.46834   0.10253   0.00000  Uiso   1.00
O55    O     0.31547   0.21026   0.16666   0.00000  Uiso   1.00
O56    O     0.31547   0.28974   0.16666   0.00000  Uiso   1.00
O57    O     0.18453   0.21026   0.16667   0.00000  Uiso   1.00
O58    O     0.25000   0.28973   0.09511   0.00000  Uiso   1.00
O59    O     0.25000   0.21027   0.23822   0.00000  Uiso   1.00
O60    O     0.25000   0.28973   0.23822   0.00000  Uiso   1.00
O61    O     0.25000   0.21027   0.09511   0.00000  Uiso   1.00
O62    O     0.02686   0.31821   0.10895   0.00000  Uiso   1.00
Zn63   Zn    0.25000   0.30307   0.16667   0.00000  Uiso   1.00
Zn64   Zn    0.25000   0.19693   0.16667   0.00000  Uiso   1.00
C65    C     0.66395   0.25000   0.16667   0.00000  Uiso   1.00
C66    C     0.72073   0.44732   0.13497   0.00000  Uiso   1.00
C67    C     0.75000   0.25000   0.07284   0.00000  Uiso   1.00
C68    C     0.75000   0.25000   0.26050   0.00000  Uiso   1.00
C69    C     0.75000   0.02669   0.16667   0.00000  Uiso   1.00
C70    C     0.75000   0.47331   0.16667   0.00000  Uiso   1.00
C71    C     0.75000   0.25000   0.02178   0.00000  Uiso   1.00
C72    C     0.75000   0.25000   0.31155   0.00000  Uiso   1.00
C73    C     0.54735   0.28433   0.13825   0.00000  Uiso   1.00
C74    C     0.95265   0.21567   0.13825   0.00000  Uiso   1.00
C75    C     0.95265   0.28433   0.19509   0.00000  Uiso   1.00
C76    C     0.83605   0.25000   0.16666   0.00000  Uiso   1.00
C77    C     0.54735   0.21567   0.19510   0.00000  Uiso   1.00
C78    C     0.59343   0.28442   0.13962   0.00000  Uiso   1.00
C79    C     0.90658   0.21558   0.13962   0.00000  Uiso   1.00
C80    C     0.90657   0.28442   0.19372   0.00000  Uiso   1.00
C81    C     0.59342   0.21558   0.19373   0.00000  Uiso   1.00
C82    C     0.61616   0.25000   0.16667   0.00000  Uiso   1.00
C83    C     0.88384   0.25000   0.16667   0.00000  Uiso   1.00
C84    C     0.52410   0.25000   0.16667   0.00000  Uiso   1.00
C85    C     0.97590   0.25000   0.16667   0.00000  Uiso   1.00
C86    C     0.77812   0.10235   0.13577   0.00000  Uiso   1.00
C87    C     0.77834   0.39765   0.19730   0.00000  Uiso   1.00
C88    C     0.72188   0.10235   0.19756   0.00000  Uiso   1.00
C89    C     0.72166   0.39764   0.13604   0.00000  Uiso   1.00
C90    C     0.77903   0.05268   0.13469   0.00000  Uiso   1.00
C91    C     0.77927   0.44732   0.19836   0.00000  Uiso   1.00
C92    C     0.72097   0.05268   0.19864   0.00000  Uiso   1.00
H93    H     0.80018   0.12211   0.11153   0.00000  Uiso   1.00
H94    H     0.50551   0.18806   0.10646   0.00000  Uiso   1.00
H95    H     0.50549   0.31194   0.22689   0.00000  Uiso   1.00
H96    H     0.99449   0.18805   0.22688   0.00000  Uiso   1.00
H97    H     0.80622   0.49694   0.10415   0.00000  Uiso   1.00
H98    H     0.80670   0.00306   0.22862   0.00000  Uiso   1.00
H99    H     0.69376   0.49694   0.22917   0.00000  Uiso   1.00
H100   H     0.69329   0.00306   0.10472   0.00000  Uiso   1.00
H101   H     0.80058   0.37789   0.22133   0.00000  Uiso   1.00
H102   H     0.69982   0.12211   0.22180   0.00000  Uiso   1.00
H103   H     0.69942   0.37789   0.11200   0.00000  Uiso   1.00
H104   H     0.61158   0.31073   0.11833   0.00000  Uiso   1.00
H105   H     0.88844   0.18927   0.11833   0.00000  Uiso   1.00
H106   H     0.88842   0.31073   0.21500   0.00000  Uiso   1.00
H107   H     0.61157   0.18927   0.21501   0.00000  Uiso   1.00
H108   H     0.99450   0.31195   0.10647   0.00000  Uiso   1.00
N109   N     0.75000   0.12623   0.16667   0.00000  Uiso   1.00
N110   N     0.75000   0.37376   0.16667   0.00000  Uiso   1.00
O111   O     0.68453   0.28974   0.16667   0.00000  Uiso   1.00
O112   O     0.97316   0.18179   0.10895   0.00000  Uiso   1.00
O113   O     0.97314   0.31821   0.22440   0.00000  Uiso   1.00
O114   O     0.52685   0.18179   0.22440   0.00000  Uiso   1.00
O115   O     0.80865   0.03166   0.10197   0.00000  Uiso   1.00
O116   O     0.80913   0.46834   0.23080   0.00000  Uiso   1.00
O117   O     0.69135   0.03166   0.23137   0.00000  Uiso   1.00
O118   O     0.69087   0.46834   0.10253   0.00000  Uiso   1.00
O119   O     0.81547   0.21026   0.16666   0.00000  Uiso   1.00
O120   O     0.81547   0.28974   0.16666   0.00000  Uiso   1.00
O121   O     0.68453   0.21026   0.16667   0.00000  Uiso   1.00
O122   O     0.75000   0.28973   0.09511   0.00000  Uiso   1.00
O123   O     0.75000   0.21027   0.23822   0.00000  Uiso   1.00
O124   O     0.75000   0.28973   0.23822   0.00000  Uiso   1.00
O125   O     0.75000   0.21027   0.09511   0.00000  Uiso   1.00
O126   O     0.52686   0.31821   0.10895   0.00000  Uiso   1.00
Zn127  Zn    0.75000   0.30307   0.16667   0.00000  Uiso   1.00
Zn128  Zn    0.75000   0.19693   0.16667   0.00000  Uiso   1.00
C129   C     0.16395   0.75000   0.16667   0.00000  Uiso   1.00
C130   C     0.22073   0.94732   0.13497   0.00000  Uiso   1.00
C131   C     0.25000   0.75000   0.07284   0.00000  Uiso   1.00
C132   C     0.25000   0.75000   0.26050   0.00000  Uiso   1.00
C133   C     0.25000   0.52669   0.16667   0.00000  Uiso   1.00
C134   C     0.25000   0.97331   0.16667   0.00000  Uiso   1.00
C135   C     0.25000   0.75000   0.02178   0.00000  Uiso   1.00
C136   C     0.25000   0.75000   0.31155   0.00000  Uiso   1.00
C137   C     0.04735   0.78433   0.13825   0.00000  Uiso   1.00
C138   C     0.45265   0.71567   0.13825   0.00000  Uiso   1.00
C139   C     0.45265   0.78433   0.19509   0.00000  Uiso   1.00
C140   C     0.33605   0.75000   0.16666   0.00000  Uiso   1.00
C141   C     0.04735   0.71567   0.19510   0.00000  Uiso   1.00
C142   C     0.09343   0.78442   0.13962   0.00000  Uiso   1.00
C143   C     0.40658   0.71558   0.13962   0.00000  Uiso   1.00
C144   C     0.40657   0.78442   0.19372   0.00000  Uiso   1.00
C145   C     0.09342   0.71558   0.19373   0.00000  Uiso   1.00
C146   C     0.11616   0.75000   0.16667   0.00000  Uiso   1.00
C147   C     0.38384   0.75000   0.16667   0.00000  Uiso   1.00
C148   C     0.02410   0.75000   0.16667   0.00000  Uiso   1.00
C149   C     0.47590   0.75000   0.16667   0.00000  Uiso   1.00
C150   C     0.27812   0.60235   0.13577   0.00000  Uiso   1.00
C151   C     0.27834   0.89765   0.19730   0.00000  Uiso   1.00
C152   C     0.22188   0.60235   0.19756   0.00000  Uiso   1.00
C153   C     0.22166   0.89764   0.13604   0.00000  Uiso   1.00
C154   C     0.27903   0.55268   0.13469   0.00000  Uiso   1.00
C155   C     0.27927   0.94732   0.19836   0.00000  Uiso   1.00
C156   C     0.22097   0.55268   0.19864   0.00000  Uiso   1.00
H157   H     0.30018   0.62211   0.11153   0.00000  Uiso   1.00
H158   H     0.00551   0.68806   0.10646   0.00000  Uiso   1.00
H159   H     0.00549   0.81194   0.22689   0.00000  Uiso   1.00
H160   H     0.49449   0.68805   0.22688   0.00000  Uiso   1.00
H161   H     0.30622   0.99694   0.10415   0.00000  Uiso   1.00
H162   H     0.30670   0.50306   0.22862   0.00000  Uiso   1.00
H163   H     0.19376   0.99694   0.22917   0.00000  Uiso   1.00
H164   H     0.19329   0.50306   0.10472   0.00000  Uiso   1.00
H165   H     0.30058   0.87789   0.22133   0.00000  Uiso   1.00
H166   H     0.19982   0.62211   0.22180   0.00000  Uiso   1.00
H167   H     0.19942   0.87789   0.11200   0.00000  Uiso   1.00
H168   H     0.11158   0.81073   0.11833   0.00000  Uiso   1.00
H169   H     0.38844   0.68927   0.11833   0.00000  Uiso   1.00
H170   H     0.38842   0.81073   0.21500   0.00000  Uiso   1.00
H171   H     0.11157   0.68927   0.21501   0.00000  Uiso   1.00
H172   H     0.49450   0.81195   0.10647   0.00000  Uiso   1.00
N173   N     0.25000   0.62623   0.16667   0.00000  Uiso   1.00
N174   N     0.25000   0.87376   0.16667   0.00000  Uiso   1.00
O175   O     0.18453   0.78974   0.16667   0.00000  Uiso   1.00
O176   O     0.47316   0.68179   0.10895   0.00000  Uiso   1.00
O177   O     0.47314   0.81821   0.22440   0.00000  Uiso   1.00
O178   O     0.02685   0.68179   0.22440   0.00000  Uiso   1.00
O179   O     0.30865   0.53166   0.10197   0.00000  Uiso   1.00
O180   O     0.30913   0.96834   0.23080   0.00000  Uiso   1.00
O181   O     0.19135   0.53166   0.23137   0.00000  Uiso   1.00
O182   O     0.19087   0.96834   0.10253   0.00000  Uiso   1.00
O183   O     0.31547   0.71026   0.16666   0.00000  Uiso   1.00
O184   O     0.31547   0.78974   0.16666   0.00000  Uiso   1.00
O185   O     0.18453   0.71026   0.16667   0.00000  Uiso   1.00
O186   O     0.25000   0.78973   0.09511   0.00000  Uiso   1.00
O187   O     0.25000   0.71027   0.23822   0.00000  Uiso   1.00
O188   O     0.25000   0.78973   0.23822   0.00000  Uiso   1.00
O189   O     0.25000   0.71027   0.09511   0.00000  Uiso   1.00
O190   O     0.02686   0.81821   0.10895   0.00000  Uiso   1.00
Zn191  Zn    0.25000   0.80307   0.16667   0.00000  Uiso   1.00
Zn192  Zn    0.25000   0.69693   0.16667   0.00000  Uiso   1.00
C193   C     0.66395   0.75000   0.16667   0.00000  Uiso   1.00
C194   C     0.72073   0.94732   0.13497   0.00000  Uiso   1.00
C195   C     0.75000   0.75000   0.07284   0.00000  Uiso   1.00
C196   C     0.75000   0.75000   0.26050   0.00000  Uiso   1.00
C197   C     0.75000   0.52669   0.16667   0.00000  Uiso   1.00
C198   C     0.75000   0.97331   0.16667   0.00000  Uiso   1.00
C199   C     0.75000   0.75000   0.02178   0.00000  Uiso   1.00
C200   C     0.75000   0.75000   0.31155   0.00000  Uiso   1.00
C201   C     0.54735   0.78433   0.13825   0.00000  Uiso   1.00
C202   C     0.95265   0.71567   0.13825   0.00000  Uiso   1.00
C203   C     0.95265   0.78433   0.19509   0.00000  Uiso   1.00
C204   C     0.83605   0.75000   0.16666   0.00000  Uiso   1.00
C205   C     0.54735   0.71567   0.19510   0.00000  Uiso   1.00
C206   C     0.59343   0.78442   0.13962   0.00000  Uiso   1.00
C207   C     0.90658   0.71558   0.13962   0.00000  Uiso   1.00
C208   C     0.90657   0.78442   0.19372   0.00000  Uiso   1.00
C209   C     0.59342   0.71558   0.19373   0.00000  Uiso   1.00
C210   C     0.61616   0.75000   0.16667   0.00000  Uiso   1.00
C211   C     0.88384   0.75000   0.16667   0.00000  Uiso   1.00
C212   C     0.52410   0.75000   0.16667   0.00000  Uiso   1.00
C213   C     0.97590   0.75000   0.16667   0.00000  Uiso   1.00
C214   C     0.77812   0.60235   0.13577   0.00000  Uiso   1.00
C215   C     0.77834   0.89765   0.19730   0.00000  Uiso   1.00
C216   C     0.72188   0.60235   0.19756   0.00000  Uiso   1.00
C217   C     0.72166   0.89764   0.13604   0.00000  Uiso   1.00
C218   C     0.77903   0.55268   0.13469   0.00000  Uiso   1.00
C219   C     0.77927   0.94732   0.19836   0.00000  Uiso   1.00
C220   C     0.72097   0.55268   0.19864   0.00000  Uiso   1.00
H221   H     0.80018   0.62211   0.11153   0.00000  Uiso   1.00
H222   H     0.50551   0.68806   0.10646   0.00000  Uiso   1.00
H223   H     0.50549   0.81194   0.22689   0.00000  Uiso   1.00
H224   H     0.99449   0.68805   0.22688   0.00000  Uiso   1.00
H225   H     0.80622   0.99694   0.10415   0.00000  Uiso   1.00
H226   H     0.80670   0.50306   0.22862   0.00000  Uiso   1.00
H227   H     0.69376   0.99694   0.22917   0.00000  Uiso   1.00
H228   H     0.69329   0.50306   0.10472   0.00000  Uiso   1.00
H229   H     0.80058   0.87789   0.22133   0.00000  Uiso   1.00
H230   H     0.69982   0.62211   0.22180   0.00000  Uiso   1.00
H231   H     0.69942   0.87789   0.11200   0.00000  Uiso   1.00
H232   H     0.61158   0.81073   0.11833   0.00000  Uiso   1.00
H233   H     0.88844   0.68927   0.11833   0.00000  Uiso   1.00
H234   H     0.88842   0.81073   0.21500   0.00000  Uiso   1.00
H235   H     0.61157   0.68927   0.21501   0.00000  Uiso   1.00
H236   H     0.99450   0.81195   0.10647   0.00000  Uiso   1.00
N237   N     0.75000   0.62623   0.16667   0.00000  Uiso   1.00
N238   N     0.75000   0.87376   0.16667   0.00000  Uiso   1.00
O239   O     0.68453   0.78974   0.16667   0.00000  Uiso   1.00
O240   O     0.97316   0.68179   0.10895   0.00000  Uiso   1.00
O241   O     0.97314   0.81821   0.22440   0.00000  Uiso   1.00
O242   O     0.52685   0.68179   0.22440   0.00000  Uiso   1.00
O243   O     0.80865   0.53166   0.10197   0.00000  Uiso   1.00
O244   O     0.80913   0.96834   0.23080   0.00000  Uiso   1.00
O245   O     0.69135   0.53166   0.23137   0.00000  Uiso   1.00
O246   O     0.69087   0.96834   0.10253   0.00000  Uiso   1.00
O247   O     0.81547   0.71026   0.16666   0.00000  Uiso   1.00
O248   O     0.81547   0.78974   0.16666   0.00000  Uiso   1.00
O249   O     0.68453   0.71026   0.16667   0.00000  Uiso   1.00
O250   O     0.75000   0.78973   0.09511   0.00000  Uiso   1.00
O251   O     0.75000   0.71027   0.23822   0.00000  Uiso   1.00
O252   O     0.75000   0.78973   0.23822   0.00000  Uiso   1.00
O253   O     0.75000   0.71027   0.09511   0.00000  Uiso   1.00
O254   O     0.52686   0.81821   0.10895   0.00000  Uiso   1.00
Zn255  Zn    0.75000   0.80307   0.16667   0.00000  Uiso   1.00
Zn256  Zn    0.75000   0.69693   0.16667   0.00000  Uiso   1.00
C257   C     0.16395   0.25000   0.50000   0.00000  Uiso   1.00
C258   C     0.22073   0.44732   0.46830   0.00000  Uiso   1.00
C259   C     0.25000   0.25000   0.40617   0.00000  Uiso   1.00
C260   C     0.25000   0.25000   0.59383   0.00000  Uiso   1.00
C261   C     0.25000   0.02669   0.50000   0.00000  Uiso   1.00
C262   C     0.25000   0.47331   0.50000   0.00000  Uiso   1.00
C263   C     0.25000   0.25000   0.35511   0.00000  Uiso   1.00
C264   C     0.25000   0.25000   0.64489   0.00000  Uiso   1.00
C265   C     0.04735   0.28433   0.47159   0.00000  Uiso   1.00
C266   C     0.45265   0.21567   0.47158   0.00000  Uiso   1.00
C267   C     0.45265   0.28433   0.52843   0.00000  Uiso   1.00
C268   C     0.33605   0.25000   0.50000   0.00000  Uiso   1.00
C269   C     0.04735   0.21567   0.52843   0.00000  Uiso   1.00
C270   C     0.09343   0.28442   0.47295   0.00000  Uiso   1.00
C271   C     0.40658   0.21558   0.47295   0.00000  Uiso   1.00
C272   C     0.40657   0.28442   0.52705   0.00000  Uiso   1.00
C273   C     0.09342   0.21558   0.52706   0.00000  Uiso   1.00
C274   C     0.11616   0.25000   0.50001   0.00000  Uiso   1.00
C275   C     0.38384   0.25000   0.50000   0.00000  Uiso   1.00
C276   C     0.02410   0.25000   0.50001   0.00000  Uiso   1.00
C277   C     0.47590   0.25000   0.50001   0.00000  Uiso   1.00
C278   C     0.27812   0.10235   0.46911   0.00000  Uiso   1.00
C279   C     0.27834   0.39765   0.53063   0.00000  Uiso   1.00
C280   C     0.22188   0.10235   0.53089   0.00000  Uiso   1.00
C281   C     0.22166   0.39764   0.46937   0.00000  Uiso   1.00
C282   C     0.27903   0.05268   0.46803   0.00000  Uiso   1.00
C283   C     0.27927   0.44732   0.53170   0.00000  Uiso   1.00
C284   C     0.22097   0.05268   0.53197   0.00000  Uiso   1.00
H285   H     0.30018   0.12211   0.44487   0.00000  Uiso   1.00
H286   H     0.00551   0.18806   0.43980   0.00000  Uiso   1.00
H287   H     0.00549   0.31194   0.56022   0.00000  Uiso   1.00
H288   H     0.49449   0.18805   0.56022   0.00000  Uiso   1.00
H289   H     0.30622   0.49694   0.43749   0.00000  Uiso   1.00
H290   H     0.30670   0.00306   0.56196   0.00000  Uiso   1.00
H291   H     0.19376   0.49694   0.56250   0.00000  Uiso   1.00
H292   H     0.19329   0.00306   0.43806   0.00000  Uiso   1.00
H293   H     0.30058   0.37789   0.55467   0.00000  Uiso   1.00
H294   H     0.19982   0.12211   0.55513   0.00000  Uiso   1.00
H295   H     0.19942   0.37789   0.44534   0.00000  Uiso   1.00
H296   H     0.11158   0.31073   0.45167   0.00000  Uiso   1.00
H297   H     0.38844   0.18927   0.45166   0.00000  Uiso   1.00
H298   H     0.38842   0.31073   0.54834   0.00000  Uiso   1.00
H299   H     0.11157   0.18927   0.54835   0.00000  Uiso   1.00
H300   H     0.49450   0.31195   0.43980   0.00000  Uiso   1.00
N301   N     0.25000   0.12623   0.50000   0.00000  Uiso   1.00
N302   N     0.25000   0.37376   0.50000   0.00000  Uiso   1.00
O303   O     0.18453   0.28974   0.50000   0.00000  Uiso   1.00
O304   O     0.47316   0.18179   0.44228   0.00000  Uiso   1.00
O305   O     0.47314   0.31821   0.55773   0.00000  Uiso   1.00
O306   O     0.02685   0.18179   0.55773   0.00000  Uiso   1.00
O307   O     0.30865   0.03166   0.43530   0.00000  Uiso   1.00
O308   O     0.30913   0.46834   0.56414   0.00000  Uiso   1.00
O309   O     0.19135   0.03166   0.56470   0.00000  Uiso   1.00
O310   O     0.19087   0.46834   0.43587   0.00000  Uiso   1.00
O311   O     0.31547   0.21026   0.50000   0.00000  Uiso   1.00
O312   O     0.31547   0.28974   0.50000   0.00000  Uiso   1.00
O313   O     0.18453   0.21026   0.50000   0.00000  Uiso   1.00
O314   O     0.25000   0.28973   0.42845   0.00000  Uiso   1.00
O315   O     0.25000   0.21027   0.57155   0.00000  Uiso   1.00
O316   O     0.25000   0.28973   0.57155   0.00000  Uiso   1.00
O317   O     0.25000   0.21027   0.42845   0.00000  Uiso   1.00
O318   O     0.02686   0.31821   0.44228   0.00000  Uiso   1.00
Zn319  Zn    0.25000   0.30307   0.50000   0.00000  Uiso   1.00
Zn320  Zn    0.25000   0.19693   0.50000   0.00000  Uiso   1.00
C321   C     0.66395   0.25000   0.50000   0.00000  Uiso   1.00
C322   C     0.72073   0.44732   0.46830   0.00000  Uiso   1.00
C323   C     0.75000   0.25000   0.40617   0.00000  Uiso   1.00
C324   C     0.75000   0.25000   0.59383   0.00000  Uiso   1.00
C325   C     0.75000   0.02669   0.50000   0.00000  Uiso   1.00
C326   C     0.75000   0.47331   0.50000   0.00000  Uiso   1.00
C327   C     0.75000   0.25000   0.35511   0.00000  Uiso   1.00
C328   C     0.75000   0.25000   0.64489   0.00000  Uiso   1.00
C329   C     0.54735   0.28433   0.47159   0.00000  Uiso   1.00
C330   C     0.95265   0.21567   0.47158   0.00000  Uiso   1.00
C331   C     0.95265   0.28433   0.52843   0.00000  Uiso   1.00
C332   C     0.83605   0.25000   0.50000   0.00000  Uiso   1.00
C333   C     0.54735   0.21567   0.52843   0.00000  Uiso   1.00
C334   C     0.59343   0.28442   0.47295   0.00000  Uiso   1.00
C335   C     0.90658   0.21558   0.47295   0.00000  Uiso   1.00
C336   C     0.90657   0.28442   0.52705   0.00000  Uiso   1.00
C337   C     0.59342   0.21558   0.52706   0.00000  Uiso   1.00
C338   C     0.61616   0.25000   0.50001   0.00000  Uiso   1.00
C339   C     0.88384   0.25000   0.50000   0.00000  Uiso   1.00
C340   C     0.52410   0.25000   0.50001   0.00000  Uiso   1.00
C341   C     0.97590   0.25000   0.50001   0.00000  Uiso   1.00
C342   C     0.77812   0.10235   0.46911   0.00000  Uiso   1.00
C343   C     0.77834   0.39765   0.53063   0.00000  Uiso   1.00
C344   C     0.72188   0.10235   0.53089   0.00000  Uiso   1.00
C345   C     0.72166   0.39764   0.46937   0.00000  Uiso   1.00
C346   C     0.77903   0.05268   0.46803   0.00000  Uiso   1.00
C347   C     0.77927   0.44732   0.53170   0.00000  Uiso   1.00
C348   C     0.72097   0.05268   0.53197   0.00000  Uiso   1.00
H349   H     0.80018   0.12211   0.44487   0.00000  Uiso   1.00
H350   H     0.50551   0.18806   0.43980   0.00000  Uiso   1.00
H351   H     0.50549   0.31194   0.56022   0.00000  Uiso   1.00
H352   H     0.99449   0.18805   0.56022   0.00000  Uiso   1.00
H353   H     0.80622   0.49694   0.43749   0.00000  Uiso   1.00
H354   H     0.80670   0.00306   0.56196   0.00000  Uiso   1.00
H355   H     0.69376   0.49694   0.56250   0.00000  Uiso   1.00
H356   H     0.69329   0.00306   0.43806   0.00000  Uiso   1.00
H357   H     0.80058   0.37789   0.55467   0.00000  Uiso   1.00
H358   H     0.69982   0.12211   0.55513   0.00000  Uiso   1.00
H359   H     0.69942   0.37789   0.44534   0.00000  Uiso   1.00
H360   H     0.61158   0.31073   0.45167   0.00000  Uiso   1.00
H361   H     0.88844   0.18927   0.45166   0.00000  Uiso   1.00
H362   H     0.88842   0.31073   0.54834   0.00000  Uiso   1.00
H363   H     0.61157   0.18927   0.54835   0.00000  Uiso   1.00
H364   H     0.99450   0.31195   0.43980   0.00000  Uiso   1.00
N365   N     0.75000   0.12623   0.50000   0.00000  Uiso   1.00
N366   N     0.75000   0.37376   0.50000   0.00000  Uiso   1.00
O367   O     0.68453   0.28974   0.50000   0.00000  Uiso   1.00
O368   O     0.97316   0.18179   0.44228   0.00000  Uiso   1.00
O369   O     0.97314   0.31821   0.55773   0.00000  Uiso   1.00
O370   O     0.52685   0.18179   0.55773   0.00000  Uiso   1.00
O371   O     0.80865   0.03166   0.43530   0.00000  Uiso   1.00
O372   O     0.80913   0.46834   0.56414   0.00000  Uiso   1.00
O373   O     0.69135   0.03166   0.56470   0.00000  Uiso   1.00
O374   O     0.69087   0.46834   0.43587   0.00000  Uiso   1.00
O375   O     0.81547   0.21026   0.50000   0.00000  Uiso   1.00
O376   O     0.81547   0.28974   0.50000   0.00000  Uiso   1.00
O377   O     0.68453   0.21026   0.50000   0.00000  Uiso   1.00
O378   O     0.75000   0.28973   0.42845   0.00000  Uiso   1.00
O379   O     0.75000   0.21027   0.57155   0.00000  Uiso   1.00
O380   O     0.75000   0.28973   0.57155   0.00000  Uiso   1.00
O381   O     0.75000   0.21027   0.42845   0.00000  Uiso   1.00
O382   O     0.52686   0.31821   0.44228   0.00000  Uiso   1.00
Zn383  Zn    0.75000   0.30307   0.50000   0.00000  Uiso   1.00
Zn384  Zn    0.75000   0.19693   0.50000   0.00000  Uiso   1.00
C385   C     0.16395   0.75000   0.50000   0.00000  Uiso   1.00
C386   C     0.22073   0.94732   0.46830   0.00000  Uiso   1.00
C387   C     0.25000   0.75000   0.40617   0.00000  Uiso   1.00
C388   C     0.25000   0.75000   0.59383   0.00000  Uiso   1.00
C389   C     0.25000   0.52669   0.50000   0.00000  Uiso   1.00
C390   C     0.25000   0.97331   0.50000   0.00000  Uiso   1.00
C391   C     0.25000   0.75000   0.35511   0.00000  Uiso   1.00
C392   C     0.25000   0.75000   0.64489   0.00000  Uiso   1.00
C393   C     0.04735   0.78433   0.47159   0.00000  Uiso   1.00
C394   C     0.45265   0.71567   0.47158   0.00000  Uiso   1.00
C395   C     0.45265   0.78433   0.52843   0.00000  Uiso   1.00
C396   C     0.33605   0.75000   0.50000   0.00000  Uiso   1.00
C397   C     0.04735   0.71567   0.52843   0.00000  Uiso   1.00
C398   C     0.09343   0.78442   0.47295   0.00000  Uiso   1.00
C399   C     0.40658   0.71558   0.47295   0.00000  Uiso   1.00
C400   C     0.40657   0.78442   0.52705   0.00000  Uiso   1.00
C401   C     0.09342   0.71558   0.52706   0.00000  Uiso   1.00
C402   C     0.11616   0.75000   0.50001   0.00000  Uiso   1.00
C403   C     0.38384   0.75000   0.50000   0.00000  Uiso   1.00
C404   C     0.02410   0.75000   0.50001   0.00000  Uiso   1.00
C405   C     0.47590   0.75000   0.50001   0.00000  Uiso   1.00
C406   C     0.27812   0.60235   0.46911   0.00000  Uiso   1.00
C407   C     0.27834   0.89765   0.53063   0.00000  Uiso   1.00
C408   C     0.22188   0.60235   0.53089   0.00000  Uiso   1.00
C409   C     0.22166   0.89764   0.46937   0.00000  Uiso   1.00
C410   C     0.27903   0.55268   0.46803   0.00000  Uiso   1.00
C411   C     0.27927   0.94732   0.53170   0.00000  Uiso   1.00
C412   C     0.22097   0.55268   0.53197   0.00000  Uiso   1.00
H413   H     0.30018   0.62211   0.44487   0.00000  Uiso   1.00
H414   H     0.00551   0.68806   0.43980   0.00000  Uiso   1.00
H415   H     0.00549   0.81194   0.56022   0.00000  Uiso   1.00
H416   H     0.49449   0.68805   0.56022   0.00000  Uiso   1.00
H417   H     0.30622   0.99694   0.43749   0.00000  Uiso   1.00
H418   H     0.30670   0.50306   0.56196   0.00000  Uiso   1.00
H419   H     0.19376   0.99694   0.56250   0.00000  Uiso   1.00
H420   H     0.19329   0.50306   0.43806   0.00000  Uiso   1.00
H421   H     0.30058   0.87789   0.55467   0.00000  Uiso   1.00
H422   H     0.19982   0.62211   0.55513   0.00000  Uiso   1.00
H423   H     0.19942   0.87789   0.44534   0.00000  Uiso   1.00
H424   H     0.11158   0.81073   0.45167   0.00000  Uiso   1.00
H425   H     0.38844   0.68927   0.45166   0.00000  Uiso   1.00
H426   H     0.38842   0.81073   0.54834   0.00000  Uiso   1.00
H427   H     0.11157   0.68927   0.54835   0.00000  Uiso   1.00
H428   H     0.49450   0.81195   0.43980   0.00000  Uiso   1.00
N429   N     0.25000   0.62623   0.50000   0.00000  Uiso   1.00
N430   N     0.25000   0.87376   0.50000   0.00000  Uiso   1.00
O431   O     0.18453   0.78974   0.50000   0.00000  Uiso   1.00
O432   O     0.47316   0.68179   0.44228   0.00000  Uiso   1.00
O433   O     0.47314   0.81821   0.55773   0.00000  Uiso   1.00
O434   O     0.02685   0.68179   0.55773   0.00000  Uiso   1.00
O435   O     0.30865   0.53166   0.43530   0.00000  Uiso   1.00
O436   O     0.30913   0.96834   0.56414   0.00000  Uiso   1.00
O437   O     0.19135   0.53166   0.56470   0.00000  Uiso   1.00
O438   O     0.19087   0.96834   0.43587   0.00000  Uiso   1.00
O439   O     0.31547   0.71026   0.50000   0.00000  Uiso   1.00
O440   O     0.31547   0.78974   0.50000   0.00000  Uiso   1.00
O441   O     0.18453   0.71026   0.50000   0.00000  Uiso   1.00
O442   O     0.25000   0.78973   0.42845   0.00000  Uiso   1.00
O443   O     0.25000   0.71027   0.57155   0.00000  Uiso   1.00
O444   O     0.25000   0.78973   0.57155   0.00000  Uiso   1.00
O445   O     0.25000   0.71027   0.42845   0.00000  Uiso   1.00
O446   O     0.02686   0.81821   0.44228   0.00000  Uiso   1.00
Zn447  Zn    0.25000   0.80307   0.50000   0.00000  Uiso   1.00
Zn448  Zn    0.25000   0.69693   0.50000   0.00000  Uiso   1.00
C449   C     0.66395   0.75000   0.50000   0.00000  Uiso   1.00
C450   C     0.72073   0.94732   0.46830   0.00000  Uiso   1.00
C451   C     0.75000   0.75000   0.40617   0.00000  Uiso   1.00
C452   C     0.75000   0.75000   0.59383   0.00000  Uiso   1.00
C453   C     0.75000   0.52669   0.50000   0.00000  Uiso   1.00
C454   C     0.75000   0.97331   0.50000   0.00000  Uiso   1.00
C455   C     0.75000   0.75000   0.35511   0.00000  Uiso   1.00
C456   C     0.75000   0.75000   0.64489   0.00000  Uiso   1.00
C457   C     0.54735   0.78433   0.47159   0.00000  Uiso   1.00
C458   C     0.95265   0.71567   0.47158   0.00000  Uiso   1.00
C459   C     0.95265   0.78433   0.52843   0.00000  Uiso   1.00
C460   C     0.83605   0.75000   0.50000   0.00000  Uiso   1.00
C461   C     0.54735   0.71567   0.52843   0.00000  Uiso   1.00
C462   C     0.59343   0.78442   0.47295   0.00000  Uiso   1.00
C463   C     0.90658   0.71558   0.47295   0.00000  Uiso   1.00
C464   C     0.90657   0.78442   0.52705   0.00000  Uiso   1.00
C465   C     0.59342   0.71558   0.52706   0.00000  Uiso   1.00
C466   C     0.61616   0.75000   0.50001   0.00000  Uiso   1.00
C467   C     0.88384   0.75000   0.50000   0.00000  Uiso   1.00
C468   C     0.52410   0.75000   0.50001   0.00000  Uiso   1.00
C469   C     0.97590   0.75000   0.50001   0.00000  Uiso   1.00
C470   C     0.77812   0.60235   0.46911   0.00000  Uiso   1.00
C471   C     0.77834   0.89765   0.53063   0.00000  Uiso   1.00
C472   C     0.72188   0.60235   0.53089   0.00000  Uiso   1.00
C473   C     0.72166   0.89764   0.46937   0.00000  Uiso   1.00
C474   C     0.77903   0.55268   0.46803   0.00000  Uiso   1.00
C475   C     0.77927   0.94732   0.53170   0.00000  Uiso   1.00
C476   C     0.72097   0.55268   0.53197   0.00000  Uiso   1.00
H477   H     0.80018   0.62211   0.44487   0.00000  Uiso   1.00
H478   H     0.50551   0.68806   0.43980   0.00000  Uiso   1.00
H479   H     0.50549   0.81194   0.56022   0.00000  Uiso   1.00
H480   H     0.99449   0.68805   0.56022   0.00000  Uiso   1.00
H481   H     0.80622   0.99694   0.43749   0.00000  Uiso   1.00
H482   H     0.80670   0.50306   0.56196   0.00000  Uiso   1.00
H483   H     0.69376   0.99694   0.56250   0.00000  Uiso   1.00
H484   H     0.69329   0.50306   0.43806   0.00000  Uiso   1.00
H485   H     0.80058   0.87789   0.55467   0.00000  Uiso   1.00
H486   H     0.69982   0.62211   0.55513   0.00000  Uiso   1.00
H487   H     0.69942   0.87789   0.44534   0.00000  Uiso   1.00
H488   H     0.61158   0.81073   0.45167   0.00000  Uiso   1.00
H489   H     0.88844   0.68927   0.45166   0.00000  Uiso   1.00
H490   H     0.88842   0.81073   0.54834   0.00000  Uiso   1.00
H491   H     0.61157   0.68927   0.54835   0.00000  Uiso   1.00
H492   H     0.99450   0.81195   0.43980   0.00000  Uiso   1.00
N493   N     0.75000   0.62623   0.50000   0.00000  Uiso   1.00
N494   N     0.75000   0.87376   0.50000   0.00000  Uiso   1.00
O495   O     0.68453   0.78974   0.50000   0.00000  Uiso   1.00
O496   O     0.97316   0.68179   0.44228   0.00000  Uiso   1.00
O497   O     0.97314   0.81821   0.55773   0.00000  Uiso   1.00
O498   O     0.52685   0.68179   0.55773   0.00000  Uiso   1.00
O499   O     0.80865   0.53166   0.43530   0.00000  Uiso   1.00
O500   O     0.80913   0.96834   0.56414   0.00000  Uiso   1.00
O501   O     0.69135   0.53166   0.56470   0.00000  Uiso   1.00
O502   O     0.69087   0.96834   0.43587   0.00000  Uiso   1.00
O503   O     0.81547   0.71026   0.50000   0.00000  Uiso   1.00
O504   O     0.81547   0.78974   0.50000   0.00000  Uiso   1.00
O505   O     0.68453   0.71026   0.50000   0.00000  Uiso   1.00
O506   O     0.75000   0.78973   0.42845   0.00000  Uiso   1.00
O507   O     0.75000   0.71027   0.57155   0.00000  Uiso   1.00
O508   O     0.75000   0.78973   0.57155   0.00000  Uiso   1.00
O509   O     0.75000   0.71027   0.42845   0.00000  Uiso   1.00
O510   O     0.52686   0.81821   0.44228   0.00000  Uiso   1.00
Zn511  Zn    0.75000   0.80307   0.50000   0.00000  Uiso   1.00
Zn512  Zn    0.75000   0.69693   0.50000   0.00000  Uiso   1.00
C513   C     0.16395   0.25000   0.83334   0.00000  Uiso   1.00
C514   C     0.22073   0.44732   0.80164   0.00000  Uiso   1.00
C515   C     0.25000   0.25000   0.73951   0.00000  Uiso   1.00
C516   C     0.25000   0.25000   0.92716   0.00000  Uiso   1.00
C517   C     0.25000   0.02669   0.83333   0.00000  Uiso   1.00
C518   C     0.25000   0.47331   0.83333   0.00000  Uiso   1.00
C519   C     0.25000   0.25000   0.68845   0.00000  Uiso   1.00
C520   C     0.25000   0.25000   0.97822   0.00000  Uiso   1.00
C521   C     0.04735   0.28433   0.80492   0.00000  Uiso   1.00
C522   C     0.45265   0.21567   0.80492   0.00000  Uiso   1.00
C523   C     0.45265   0.28433   0.86176   0.00000  Uiso   1.00
C524   C     0.33605   0.25000   0.83333   0.00000  Uiso   1.00
C525   C     0.04735   0.21567   0.86176   0.00000  Uiso   1.00
C526   C     0.09343   0.28442   0.80629   0.00000  Uiso   1.00
C527   C     0.40658   0.21558   0.80628   0.00000  Uiso   1.00
C528   C     0.40657   0.28442   0.86039   0.00000  Uiso   1.00
C529   C     0.09342   0.21558   0.86039   0.00000  Uiso   1.00
C530   C     0.11616   0.25000   0.83334   0.00000  Uiso   1.00
C531   C     0.38384   0.25000   0.83333   0.00000  Uiso   1.00
C532   C     0.02410   0.25000   0.83334   0.00000  Uiso   1.00
C533   C     0.47590   0.25000   0.83334   0.00000  Uiso   1.00
C534   C     0.27812   0.10235   0.80244   0.00000  Uiso   1.00
C535   C     0.27834   0.39765   0.86396   0.00000  Uiso   1.00
C536   C     0.22188   0.10235   0.86423   0.00000  Uiso   1.00
C537   C     0.22166   0.39764   0.80270   0.00000  Uiso   1.00
C538   C     0.27903   0.05268   0.80136   0.00000  Uiso   1.00
C539   C     0.27927   0.44732   0.86503   0.00000  Uiso   1.00
C540   C     0.22097   0.05268   0.86531   0.00000  Uiso   1.00
H541   H     0.30018   0.12211   0.77820   0.00000  Uiso   1.00
H542   H     0.00551   0.18806   0.77313   0.00000  Uiso   1.00
H543   H     0.00549   0.31194   0.89356   0.00000  Uiso   1.00
H544   H     0.49449   0.18805   0.89355   0.00000  Uiso   1.00
H545   H     0.30622   0.49694   0.77082   0.00000  Uiso   1.00
H546   H     0.30670   0.00306   0.89529   0.00000  Uiso   1.00
H547   H     0.19376   0.49694   0.89584   0.00000  Uiso   1.00
H548   H     0.19329   0.00306   0.77139   0.00000  Uiso   1.00
H549   H     0.30058   0.37789   0.88800   0.00000  Uiso   1.00
H550   H     0.19982   0.12211   0.88847   0.00000  Uiso   1.00
H551   H     0.19942   0.37789   0.77867   0.00000  Uiso   1.00
H552   H     0.11158   0.31073   0.78500   0.00000  Uiso   1.00
H553   H     0.38844   0.18927   0.78500   0.00000  Uiso   1.00
H554   H     0.38842   0.31073   0.88167   0.00000  Uiso   1.00
H555   H     0.11157   0.18927   0.88168   0.00000  Uiso   1.00
H556   H     0.49450   0.31195   0.77313   0.00000  Uiso   1.00
N557   N     0.25000   0.12623   0.83333   0.00000  Uiso   1.00
N558   N     0.25000   0.37376   0.83333   0.00000  Uiso   1.00
O559   O     0.18453   0.28974   0.83334   0.00000  Uiso   1.00
O560   O     0.47316   0.18179   0.77562   0.00000  Uiso   1.00
O561   O     0.47314   0.31821   0.89106   0.00000  Uiso   1.00
O562   O     0.02685   0.18179   0.89107   0.00000  Uiso   1.00
O563   O     0.30865   0.03166   0.76863   0.00000  Uiso   1.00
O564   O     0.30913   0.46834   0.89747   0.00000  Uiso   1.00
O565   O     0.19135   0.03166   0.89803   0.00000  Uiso   1.00
O566   O     0.19087   0.46834   0.76920   0.00000  Uiso   1.00
O567   O     0.31547   0.21026   0.83333   0.00000  Uiso   1.00
O568   O     0.31547   0.28974   0.83333   0.00000  Uiso   1.00
O569   O     0.18453   0.21026   0.83334   0.00000  Uiso   1.00
O570   O     0.25000   0.28973   0.76178   0.00000  Uiso   1.00
O571   O     0.25000   0.21027   0.90489   0.00000  Uiso   1.00
O572   O     0.25000   0.28973   0.90489   0.00000  Uiso   1.00
O573   O     0.25000   0.21027   0.76178   0.00000  Uiso   1.00
O574   O     0.02686   0.31821   0.77562   0.00000  Uiso   1.00
Zn575  Zn    0.25000   0.30307   0.83333   0.00000  Uiso   1.00
Zn576  Zn    0.25000   0.19693   0.83333   0.00000  Uiso   1.00
C577   C     0.66395   0.25000   0.83334   0.00000  Uiso   1.00
C578   C     0.72073   0.44732   0.80164   0.00000  Uiso   1.00
C579   C     0.75000   0.25000   0.73951   0.00000  Uiso   1.00
C580   C     0.75000   0.25000   0.92716   0.00000  Uiso   1.00
C581   C     0.75000   0.02669   0.83333   0.00000  Uiso   1.00
C582   C     0.75000   0.47331   0.83333   0.00000  Uiso   1.00
C583   C     0.75000   0.25000   0.68845   0.00000  Uiso   1.00
C584   C     0.75000   0.25000   0.97822   0.00000  Uiso   1.00
C585   C     0.54735   0.28433   0.80492   0.00000  Uiso   1.00
C586   C     0.95265   0.21567   0.80492   0.00000  Uiso   1.00
C587   C     0.95265   0.28433   0.86176   0.00000  Uiso   1.00
C588   C     0.83605   0.25000   0.83333   0.00000  Uiso   1.00
C589   C     0.54735   0.21567   0.86176   0.00000  Uiso   1.00
C590   C     0.59343   0.28442   0.80629   0.00000  Uiso   1.00
C591   C     0.90658   0.21558   0.80628   0.00000  Uiso   1.00
C592   C     0.90657   0.28442   0.86039   0.00000  Uiso   1.00
C593   C     0.59342   0.21558   0.86039   0.00000  Uiso   1.00
C594   C     0.61616   0.25000   0.83334   0.00000  Uiso   1.00
C595   C     0.88384   0.25000   0.83333   0.00000  Uiso   1.00
C596   C     0.52410   0.25000   0.83334   0.00000  Uiso   1.00
C597   C     0.97590   0.25000   0.83334   0.00000  Uiso   1.00
C598   C     0.77812   0.10235   0.80244   0.00000  Uiso   1.00
C599   C     0.77834   0.39765   0.86396   0.00000  Uiso   1.00
C600   C     0.72188   0.10235   0.86423   0.00000  Uiso   1.00
C601   C     0.72166   0.39764   0.80270   0.00000  Uiso   1.00
C602   C     0.77903   0.05268   0.80136   0.00000  Uiso   1.00
C603   C     0.77927   0.44732   0.86503   0.00000  Uiso   1.00
C604   C     0.72097   0.05268   0.86531   0.00000  Uiso   1.00
H605   H     0.80018   0.12211   0.77820   0.00000  Uiso   1.00
H606   H     0.50551   0.18806   0.77313   0.00000  Uiso   1.00
H607   H     0.50549   0.31194   0.89356   0.00000  Uiso   1.00
H608   H     0.99449   0.18805   0.89355   0.00000  Uiso   1.00
H609   H     0.80622   0.49694   0.77082   0.00000  Uiso   1.00
H610   H     0.80670   0.00306   0.89529   0.00000  Uiso   1.00
H611   H     0.69376   0.49694   0.89584   0.00000  Uiso   1.00
H612   H     0.69329   0.00306   0.77139   0.00000  Uiso   1.00
H613   H     0.80058   0.37789   0.88800   0.00000  Uiso   1.00
H614   H     0.69982   0.12211   0.88847   0.00000  Uiso   1.00
H615   H     0.69942   0.37789   0.77867   0.00000  Uiso   1.00
H616   H     0.61158   0.31073   0.78500   0.00000  Uiso   1.00
H617   H     0.88844   0.18927   0.78500   0.00000  Uiso   1.00
H618   H     0.88842   0.31073   0.88167   0.00000  Uiso   1.00
H619   H     0.61157   0.18927   0.88168   0.00000  Uiso   1.00
H620   H     0.99450   0.31195   0.77313   0.00000  Uiso   1.00
N621   N     0.75000   0.12623   0.83333   0.00000  Uiso   1.00
N622   N     0.75000   0.37376   0.83333   0.00000  Uiso   1.00
O623   O     0.68453   0.28974   0.83334   0.00000  Uiso   1.00
O624   O     0.97316   0.18179   0.77562   0.00000  Uiso   1.00
O625   O     0.97314   0.31821   0.89106   0.00000  Uiso   1.00
O626   O     0.52685   0.18179   0.89107   0.00000  Uiso   1.00
O627   O     0.80865   0.03166   0.76863   0.00000  Uiso   1.00
O628   O     0.80913   0.46834   0.89747   0.00000  Uiso   1.00
O629   O     0.69135   0.03166   0.89803   0.00000  Uiso   1.00
O630   O     0.69087   0.46834   0.76920   0.00000  Uiso   1.00
O631   O     0.81547   0.21026   0.83333   0.00000  Uiso   1.00
O632   O     0.81547   0.28974   0.83333   0.00000  Uiso   1.00
O633   O     0.68453   0.21026   0.83334   0.00000  Uiso   1.00
O634   O     0.75000   0.28973   0.76178   0.00000  Uiso   1.00
O635   O     0.75000   0.21027   0.90489   0.00000  Uiso   1.00
O636   O     0.75000   0.28973   0.90489   0.00000  Uiso   1.00
O637   O     0.75000   0.21027   0.76178   0.00000  Uiso   1.00
O638   O     0.52686   0.31821   0.77562   0.00000  Uiso   1.00
Zn639  Zn    0.75000   0.30307   0.83333   0.00000  Uiso   1.00
Zn640  Zn    0.75000   0.19693   0.83333   0.00000  Uiso   1.00
C641   C     0.16395   0.75000   0.83334   0.00000  Uiso   1.00
C642   C     0.22073   0.94732   0.80164   0.00000  Uiso   1.00
C643   C     0.25000   0.75000   0.73951   0.00000  Uiso   1.00
C644   C     0.25000   0.75000   0.92716   0.00000  Uiso   1.00
C645   C     0.25000   0.52669   0.83333   0.00000  Uiso   1.00
C646   C     0.25000   0.97331   0.83333   0.00000  Uiso   1.00
C647   C     0.25000   0.75000   0.68845   0.00000  Uiso   1.00
C648   C     0.25000   0.75000   0.97822   0.00000  Uiso   1.00
C649   C     0.04735   0.78433   0.80492   0.00000  Uiso   1.00
C650   C     0.45265   0.71567   0.80492   0.00000  Uiso   1.00
C651   C     0.45265   0.78433   0.86176   0.00000  Uiso   1.00
C652   C     0.33605   0.75000   0.83333   0.00000  Uiso   1.00
C653   C     0.04735   0.71567   0.86176   0.00000  Uiso   1.00
C654   C     0.09343   0.78442   0.80629   0.00000  Uiso   1.00
C655   C     0.40658   0.71558   0.80628   0.00000  Uiso   1.00
C656   C     0.40657   0.78442   0.86039   0.00000  Uiso   1.00
C657   C     0.09342   0.71558   0.86039   0.00000  Uiso   1.00
C658   C     0.11616   0.75000   0.83334   0.00000  Uiso   1.00
C659   C     0.38384   0.75000   0.83333   0.00000  Uiso   1.00
C660   C     0.02410   0.75000   0.83334   0.00000  Uiso   1.00
C661   C     0.47590   0.75000   0.83334   0.00000  Uiso   1.00
C662   C     0.27812   0.60235   0.80244   0.00000  Uiso   1.00
C663   C     0.27834   0.89765   0.86396   0.00000  Uiso   1.00
C664   C     0.22188   0.60235   0.86423   0.00000  Uiso   1.00
C665   C     0.22166   0.89764   0.80270   0.00000  Uiso   1.00
C666   C     0.27903   0.55268   0.80136   0.00000  Uiso   1.00
C667   C     0.27927   0.94732   0.86503   0.00000  Uiso   1.00
C668   C     0.22097   0.55268   0.86531   0.00000  Uiso   1.00
H669   H     0.30018   0.62211   0.77820   0.00000  Uiso   1.00
H670   H     0.00551   0.68806   0.77313   0.00000  Uiso   1.00
H671   H     0.00549   0.81194   0.89356   0.00000  Uiso   1.00
H672   H     0.49449   0.68805   0.89355   0.00000  Uiso   1.00
H673   H     0.30622   0.99694   0.77082   0.00000  Uiso   1.00
H674   H     0.30670   0.50306   0.89529   0.00000  Uiso   1.00
H675   H     0.19376   0.99694   0.89584   0.00000  Uiso   1.00
H676   H     0.19329   0.50306   0.77139   0.00000  Uiso   1.00
H677   H     0.30058   0.87789   0.88800   0.00000  Uiso   1.00
H678   H     0.19982   0.62211   0.88847   0.00000  Uiso   1.00
H679   H     0.19942   0.87789   0.77867   0.00000  Uiso   1.00
H680   H     0.11158   0.81073   0.78500   0.00000  Uiso   1.00
H681   H     0.38844   0.68927   0.78500   0.00000  Uiso   1.00
H682   H     0.38842   0.81073   0.88167   0.00000  Uiso   1.00
H683   H     0.11157   0.68927   0.88168   0.00000  Uiso   1.00
H684   H     0.49450   0.81195   0.77313   0.00000  Uiso   1.00
N685   N     0.25000   0.62623   0.83333   0.00000  Uiso   1.00
N686   N     0.25000   0.87376   0.83333   0.00000  Uiso   1.00
O687   O     0.18453   0.78974   0.83334   0.00000  Uiso   1.00
O688   O     0.47316   0.68179   0.77562   0.00000  Uiso   1.00
O689   O     0.47314   0.81821   0.89106   0.00000  Uiso   1.00
O690   O     0.02685   0.68179   0.89107   0.00000  Uiso   1.00
O691   O     0.30865   0.53166   0.76863   0.00000  Uiso   1.00
O692   O     0.30913   0.96834   0.89747   0.00000  Uiso   1.00
O693   O     0.19135   0.53166   0.89803   0.00000  Uiso   1.00
O694   O     0.19087   0.96834   0.76920   0.00000  Uiso   1.00
O695   O     0.31547   0.71026   0.83333   0.00000  Uiso   1.00
O696   O     0.31547   0.78974   0.83333   0.00000  Uiso   1.00
O697   O     0.18453   0.71026   0.83334   0.00000  Uiso   1.00
O698   O     0.25000   0.78973   0.76178   0.00000  Uiso   1.00
O699   O     0.25000   0.71027   0.90489   0.00000  Uiso   1.00
O700   O     0.25000   0.78973   0.90489   0.00000  Uiso   1.00
O701   O     0.25000   0.71027   0.76178   0.00000  Uiso   1.00
O702   O     0.02686   0.81821   0.77562   0.00000  Uiso   1.00
Zn703  Zn    0.25000   0.80307   0.83333   0.00000  Uiso   1.00
Zn704  Zn    0.25000   0.69693   0.83333   0.00000  Uiso   1.00
C705   C     0.66395   0.75000   0.83334   0.00000  Uiso   1.00
C706   C     0.72073   0.94732   0.80164   0.00000  Uiso   1.00
C707   C     0.75000   0.75000   0.73951   0.00000  Uiso   1.00
C708   C     0.75000   0.75000   0.92716   0.00000  Uiso   1.00
C709   C     0.75000   0.52669   0.83333   0.00000  Uiso   1.00
C710   C     0.75000   0.97331   0.83333   0.00000  Uiso   1.00
C711   C     0.75000   0.75000   0.68845   0.00000  Uiso   1.00
C712   C     0.75000   0.75000   0.97822   0.00000  Uiso   1.00
C713   C     0.54735   0.78433   0.80492   0.00000  Uiso   1.00
C714   C     0.95265   0.71567   0.80492   0.00000  Uiso   1.00
C715   C     0.95265   0.78433   0.86176   0.00000  Uiso   1.00
C716   C     0.83605   0.75000   0.83333   0.00000  Uiso   1.00
C717   C     0.54735   0.71567   0.86176   0.00000  Uiso   1.00
C718   C     0.59343   0.78442   0.80629   0.00000  Uiso   1.00
C719   C     0.90658   0.71558   0.80628   0.00000  Uiso   1.00
C720   C     0.90657   0.78442   0.86039   0.00000  Uiso   1.00
C721   C     0.59342   0.71558   0.86039   0.00000  Uiso   1.00
C722   C     0.61616   0.75000   0.83334   0.00000  Uiso   1.00
C723   C     0.88384   0.75000   0.83333   0.00000  Uiso   1.00
C724   C     0.52410   0.75000   0.83334   0.00000  Uiso   1.00
C725   C     0.97590   0.75000   0.83334   0.00000  Uiso   1.00
C726   C     0.77812   0.60235   0.80244   0.00000  Uiso   1.00
C727   C     0.77834   0.89765   0.86396   0.00000  Uiso   1.00
C728   C     0.72188   0.60235   0.86423   0.00000  Uiso   1.00
C729   C     0.72166   0.89764   0.80270   0.00000  Uiso   1.00
C730   C     0.77903   0.55268   0.80136   0.00000  Uiso   1.00
C731   C     0.77927   0.94732   0.86503   0.00000  Uiso   1.00
C732   C     0.72097   0.55268   0.86531   0.00000  Uiso   1.00
H733   H     0.80018   0.62211   0.77820   0.00000  Uiso   1.00
H734   H     0.50551   0.68806   0.77313   0.00000  Uiso   1.00
H735   H     0.50549   0.81194   0.89356   0.00000  Uiso   1.00
H736   H     0.99449   0.68805   0.89355   0.00000  Uiso   1.00
H737   H     0.80622   0.99694   0.77082   0.00000  Uiso   1.00
H738   H     0.80670   0.50306   0.89529   0.00000  Uiso   1.00
H739   H     0.69376   0.99694   0.89584   0.00000  Uiso   1.00
H740   H     0.69329   0.50306   0.77139   0.00000  Uiso   1.00
H741   H     0.80058   0.87789   0.88800   0.00000  Uiso   1.00
H742   H     0.69982   0.62211   0.88847   0.00000  Uiso   1.00
H743   H     0.69942   0.87789   0.77867   0.00000  Uiso   1.00
H744   H     0.61158   0.81073   0.78500   0.00000  Uiso   1.00
H745   H     0.88844   0.68927   0.78500   0.00000  Uiso   1.00
H746   H     0.88842   0.81073   0.88167   0.00000  Uiso   1.00
H747   H     0.61157   0.68927   0.88168   0.00000  Uiso   1.00
H748   H     0.99450   0.81195   0.77313   0.00000  Uiso   1.00
N749   N     0.75000   0.62623   0.83333   0.00000  Uiso   1.00
N750   N     0.75000   0.87376   0.83333   0.00000  Uiso   1.00
O751   O     0.68453   0.78974   0.83334   0.00000  Uiso   1.00
O752   O     0.97316   0.68179   0.77562   0.00000  Uiso   1.00
O753   O     0.97314   0.81821   0.89106   0.00000  Uiso   1.00
O754   O     0.52685   0.68179   0.89107   0.00000  Uiso   1.00
O755   O     0.80865   0.53166   0.76863   0.00000  Uiso   1.00
O756   O     0.80913   0.96834   0.89747   0.00000  Uiso   1.00
O757   O     0.69135   0.53166   0.89803   0.00000  Uiso   1.00
O758   O     0.69087   0.96834   0.76920   0.00000  Uiso   1.00
O759   O     0.81547   0.71026   0.83333   0.00000  Uiso   1.00
O760   O     0.81547   0.78974   0.83333   0.00000  Uiso   1.00
O761   O     0.68453   0.71026   0.83334   0.00000  Uiso   1.00
O762   O     0.75000   0.78973   0.76178   0.00000  Uiso   1.00
O763   O     0.75000   0.71027   0.90489   0.00000  Uiso   1.00
O764   O     0.75000   0.78973   0.90489   0.00000  Uiso   1.00
O765   O     0.75000   0.71027   0.76178   0.00000  Uiso   1.00
O766   O     0.52686   0.81821   0.77562   0.00000  Uiso   1.00
Zn767  Zn    0.75000   0.80307   0.83333   0.00000  Uiso   1.00
Zn768  Zn    0.75000   0.69693   0.83333   0.00000  Uiso   1.00
loop_
_geom_bond_atom_site_label_1
_geom_bond_atom_site_label_2
_geom_bond_distance
_geom_bond_site_symmetry_2
_ccdc_geom_bond_type
C1     O57     1.284   .     A
C1     C18     1.432   .     S
C1     O47     1.284   .     A
C2     C6      1.425   .     A
C2     C25     1.408   .     A
C2     O54     1.382   .     S
C3     C7      1.366   .     S
C3     O61     1.274   .     A
C3     O58     1.274   .     A
C4     C8      1.366   .     S
C4     O60     1.274   .     A
C4     O59     1.274   .     A
C5     C26     1.425   .     A
C5     C28     1.425   .     A
C5     C134    1.513   1_545 S
C6     C27     1.425   .     A
C6     C133    1.513   .     S
C7     C520    1.165   1_554 S
C8     C263    1.165   .     S
C9     C14     1.381   .     A
C9     C20     1.418   .     A
C9     O62     1.383   .     S
C10    O48     1.383   .     S
C10    C21     1.418   .     A
C10    C15     1.381   .     A
C11    O49     1.383   .     S
C11    C16     1.381   .     A
C11    C21     1.418   .     A
C12    O56     1.284   .     A
C12    O55     1.284   .     A
C12    C19     1.432   .     S
C13    C17     1.381   .     A
C13    O50     1.383   .     S
C13    C20     1.418   .     A
C14    C18     1.393   .     A
C14    H40     1.084   .     S
C15    C19     1.393   .     A
C15    H41     1.084   .     S
C16    H42     1.084   .     S
C16    C19     1.393   .     A
C17    H43     1.084   .     S
C17    C18     1.393   .     A
C20    C85     1.445   1_455 S
C21    C84     1.445   .     S
C22    H29     1.082   .     S
C22    N45     1.361   .     A
C22    C26     1.408   .     A
C23    N46     1.361   .     A
C23    C27     1.408   .     A
C23    H37     1.082   .     S
C24    H38     1.082   .     S
C24    C28     1.408   .     A
C24    N45     1.361   .     A
C25    N46     1.361   .     A
C25    H39     1.082   .     S
C26    O51     1.382   .     S
C27    O52     1.382   .     S
C28    O53     1.382   .     S
H30    O112    0.988   1_455 S
H31    O113    0.988   1_455 S
H32    O114    0.988   .     S
H33    O179    0.988   .     S
H34    O180    0.988   1_545 S
H35    O181    0.988   .     S
H36    O182    0.988   1_545 S
H44    O126    0.988   .     S
N45    Zn64    2.004   .     S
N46    Zn63    2.004   .     S
O47    Zn63    1.998   .     S
O48    H94     0.988   .     S
O49    H95     0.988   .     S
O50    H96     0.988   1_455 S
O51    H161    0.988   1_545 S
O52    H162    0.988   .     S
O53    H163    0.988   1_545 S
O54    H164    0.988   .     S
O55    Zn64    1.998   .     S
O56    Zn63    1.998   .     S
O57    Zn64    1.998   .     S
O58    Zn63    1.951   .     S
O59    Zn64    1.951   .     S
O60    Zn63    1.951   .     S
O61    Zn64    1.951   .     S
O62    H108    0.988   1_455 S
C65    O121    1.284   .     A
C65    C82     1.432   .     S
C65    O111    1.284   .     A
C66    C70     1.425   .     A
C66    C89     1.408   .     A
C66    O118    1.382   .     S
C67    C71     1.366   .     S
C67    O125    1.274   .     A
C67    O122    1.274   .     A
C68    C72     1.366   .     S
C68    O124    1.274   .     A
C68    O123    1.274   .     A
C69    C90     1.425   .     A
C69    C92     1.425   .     A
C69    C198    1.513   1_545 S
C70    C91     1.425   .     A
C70    C197    1.513   .     S
C71    C584    1.165   1_554 S
C72    C327    1.165   .     S
C73    C78     1.381   .     A
C73    C84     1.418   .     A
C73    O126    1.383   .     S
C74    O112    1.383   .     S
C74    C85     1.418   .     A
C74    C79     1.381   .     A
C75    O113    1.383   .     S
C75    C80     1.381   .     A
C75    C85     1.418   .     A
C76    O120    1.284   .     A
C76    O119    1.284   .     A
C76    C83     1.432   .     S
C77    C81     1.381   .     A
C77    O114    1.383   .     S
C77    C84     1.418   .     A
C78    C82     1.393   .     A
C78    H104    1.084   .     S
C79    C83     1.393   .     A
C79    H105    1.084   .     S
C80    H106    1.084   .     S
C80    C83     1.393   .     A
C81    H107    1.084   .     S
C81    C82     1.393   .     A
C85    C20     1.445   1_655 S
C86    H93     1.082   .     S
C86    N109    1.361   .     A
C86    C90     1.408   .     A
C87    N110    1.361   .     A
C87    C91     1.408   .     A
C87    H101    1.082   .     S
C88    H102    1.082   .     S
C88    C92     1.408   .     A
C88    N109    1.361   .     A
C89    N110    1.361   .     A
C89    H103    1.082   .     S
C90    O115    1.382   .     S
C91    O116    1.382   .     S
C92    O117    1.382   .     S
H96    O50     0.988   1_655 S
H97    O243    0.988   .     S
H98    O244    0.988   1_545 S
H99    O245    0.988   .     S
H100   O246    0.988   1_545 S
H108   O62     0.988   1_655 S
N109   Zn128   2.004   .     S
N110   Zn127   2.004   .     S
O111   Zn127   1.998   .     S
O112   H30     0.988   1_655 S
O113   H31     0.988   1_655 S
O115   H225    0.988   1_545 S
O116   H226    0.988   .     S
O117   H227    0.988   1_545 S
O118   H228    0.988   .     S
O119   Zn128   1.998   .     S
O120   Zn127   1.998   .     S
O121   Zn128   1.998   .     S
O122   Zn127   1.951   .     S
O123   Zn128   1.951   .     S
O124   Zn127   1.951   .     S
O125   Zn128   1.951   .     S
C129   O185    1.284   .     A
C129   C146    1.432   .     S
C129   O175    1.284   .     A
C130   C134    1.425   .     A
C130   C153    1.408   .     A
C130   O182    1.382   .     S
C131   C135    1.366   .     S
C131   O189    1.274   .     A
C131   O186    1.274   .     A
C132   C136    1.366   .     S
C132   O188    1.274   .     A
C132   O187    1.274   .     A
C133   C154    1.425   .     A
C133   C156    1.425   .     A
C134   C155    1.425   .     A
C134   C5      1.513   1_565 S
C135   C648    1.165   1_554 S
C136   C391    1.165   .     S
C137   C142    1.381   .     A
C137   C148    1.418   .     A
C137   O190    1.383   .     S
C138   O176    1.383   .     S
C138   C149    1.418   .     A
C138   C143    1.381   .     A
C139   O177    1.383   .     S
C139   C144    1.381   .     A
C139   C149    1.418   .     A
C140   O184    1.284   .     A
C140   O183    1.284   .     A
C140   C147    1.432   .     S
C141   C145    1.381   .     A
C141   O178    1.383   .     S
C141   C148    1.418   .     A
C142   C146    1.393   .     A
C142   H168    1.084   .     S
C143   C147    1.393   .     A
C143   H169    1.084   .     S
C144   H170    1.084   .     S
C144   C147    1.393   .     A
C145   H171    1.084   .     S
C145   C146    1.393   .     A
C148   C213    1.445   1_455 S
C149   C212    1.445   .     S
C150   H157    1.082   .     S
C150   N173    1.361   .     A
C150   C154    1.408   .     A
C151   N174    1.361   .     A
C151   C155    1.408   .     A
C151   H165    1.082   .     S
C152   H166    1.082   .     S
C152   C156    1.408   .     A
C152   N173    1.361   .     A
C153   N174    1.361   .     A
C153   H167    1.082   .     S
C154   O179    1.382   .     S
C155   O180    1.382   .     S
C156   O181    1.382   .     S
H158   O240    0.988   1_455 S
H159   O241    0.988   1_455 S
H160   O242    0.988   .     S
H161   O51     0.988   1_565 S
H163   O53     0.988   1_565 S
H172   O254    0.988   .     S
N173   Zn192   2.004   .     S
N174   Zn191   2.004   .     S
O175   Zn191   1.998   .     S
O176   H222    0.988   .     S
O177   H223    0.988   .     S
O178   H224    0.988   1_455 S
O180   H34     0.988   1_565 S
O182   H36     0.988   1_565 S
O183   Zn192   1.998   .     S
O184   Zn191   1.998   .     S
O185   Zn192   1.998   .     S
O186   Zn191   1.951   .     S
O187   Zn192   1.951   .     S
O188   Zn191   1.951   .     S
O189   Zn192   1.951   .     S
O190   H236    0.988   1_455 S
C193   O249    1.284   .     A
C193   C210    1.432   .     S
C193   O239    1.284   .     A
C194   C198    1.425   .     A
C194   C217    1.408   .     A
C194   O246    1.382   .     S
C195   C199    1.366   .     S
C195   O253    1.274   .     A
C195   O250    1.274   .     A
C196   C200    1.366   .     S
C196   O252    1.274   .     A
C196   O251    1.274   .     A
C197   C218    1.425   .     A
C197   C220    1.425   .     A
C198   C219    1.425   .     A
C198   C69     1.513   1_565 S
C199   C712    1.165   1_554 S
C200   C455    1.165   .     S
C201   C206    1.381   .     A
C201   C212    1.418   .     A
C201   O254    1.383   .     S
C202   O240    1.383   .     S
C202   C213    1.418   .     A
C202   C207    1.381   .     A
C203   O241    1.383   .     S
C203   C208    1.381   .     A
C203   C213    1.418   .     A
C204   O248    1.284   .     A
C204   O247    1.284   .     A
C204   C211    1.432   .     S
C205   C209    1.381   .     A
C205   O242    1.383   .     S
C205   C212    1.418   .     A
C206   C210    1.393   .     A
C206   H232    1.084   .     S
C207   C211    1.393   .     A
C207   H233    1.084   .     S
C208   H234    1.084   .     S
C208   C211    1.393   .     A
C209   H235    1.084   .     S
C209   C210    1.393   .     A
C213   C148    1.445   1_655 S
C214   H221    1.082   .     S
C214   N237    1.361   .     A
C214   C218    1.408   .     A
C215   N238    1.361   .     A
C215   C219    1.408   .     A
C215   H229    1.082   .     S
C216   H230    1.082   .     S
C216   C220    1.408   .     A
C216   N237    1.361   .     A
C217   N238    1.361   .     A
C217   H231    1.082   .     S
C218   O243    1.382   .     S
C219   O244    1.382   .     S
C220   O245    1.382   .     S
H224   O178    0.988   1_655 S
H225   O115    0.988   1_565 S
H227   O117    0.988   1_565 S
H236   O190    0.988   1_655 S
N237   Zn256   2.004   .     S
N238   Zn255   2.004   .     S
O239   Zn255   1.998   .     S
O240   H158    0.988   1_655 S
O241   H159    0.988   1_655 S
O244   H98     0.988   1_565 S
O246   H100    0.988   1_565 S
O247   Zn256   1.998   .     S
O248   Zn255   1.998   .     S
O249   Zn256   1.998   .     S
O250   Zn255   1.951   .     S
O251   Zn256   1.951   .     S
O252   Zn255   1.951   .     S
O253   Zn256   1.951   .     S
C257   O313    1.284   .     A
C257   C274    1.432   .     S
C257   O303    1.284   .     A
C258   C262    1.425   .     A
C258   C281    1.408   .     A
C258   O310    1.382   .     S
C259   C263    1.366   .     S
C259   O317    1.274   .     A
C259   O314    1.274   .     A
C260   C264    1.366   .     S
C260   O316    1.274   .     A
C260   O315    1.274   .     A
C261   C282    1.425   .     A
C261   C284    1.425   .     A
C261   C390    1.513   1_545 S
C262   C283    1.425   .     A
C262   C389    1.513   .     S
C264   C519    1.165   .     S
C265   C270    1.381   .     A
C265   C276    1.418   .     A
C265   O318    1.383   .     S
C266   O304    1.383   .     S
C266   C277    1.418   .     A
C266   C271    1.381   .     A
C267   O305    1.383   .     S
C267   C272    1.381   .     A
C267   C277    1.418   .     A
C268   O312    1.284   .     A
C268   O311    1.284   .     A
C268   C275    1.432   .     S
C269   C273    1.381   .     A
C269   O306    1.383   .     S
C269   C276    1.418   .     A
C270   C274    1.393   .     A
C270   H296    1.084   .     S
C271   C275    1.393   .     A
C271   H297    1.084   .     S
C272   H298    1.084   .     S
C272   C275    1.393   .     A
C273   H299    1.084   .     S
C273   C274    1.393   .     A
C276   C341    1.445   1_455 S
C277   C340    1.445   .     S
C278   H285    1.082   .     S
C278   N301    1.361   .     A
C278   C282    1.408   .     A
C279   N302    1.361   .     A
C279   C283    1.408   .     A
C279   H293    1.082   .     S
C280   H294    1.082   .     S
C280   C284    1.408   .     A
C280   N301    1.361   .     A
C281   N302    1.361   .     A
C281   H295    1.082   .     S
C282   O307    1.382   .     S
C283   O308    1.382   .     S
C284   O309    1.382   .     S
H286   O368    0.988   1_455 S
H287   O369    0.988   1_455 S
H288   O370    0.988   .     S
H289   O435    0.988   .     S
H290   O436    0.988   1_545 S
H291   O437    0.988   .     S
H292   O438    0.988   1_545 S
H300   O382    0.988   .     S
N301   Zn320   2.004   .     S
N302   Zn319   2.004   .     S
O303   Zn319   1.998   .     S
O304   H350    0.988   .     S
O305   H351    0.988   .     S
O306   H352    0.988   1_455 S
O307   H417    0.988   1_545 S
O308   H418    0.988   .     S
O309   H419    0.988   1_545 S
O310   H420    0.988   .     S
O311   Zn320   1.998   .     S
O312   Zn319   1.998   .     S
O313   Zn320   1.998   .     S
O314   Zn319   1.951   .     S
O315   Zn320   1.951   .     S
O316   Zn319   1.951   .     S
O317   Zn320   1.951   .     S
O318   H364    0.988   1_455 S
C321   O377    1.284   .     A
C321   C338    1.432   .     S
C321   O367    1.284   .     A
C322   C326    1.425   .     A
C322   C345    1.408   .     A
C322   O374    1.382   .     S
C323   C327    1.366   .     S
C323   O381    1.274   .     A
C323   O378    1.274   .     A
C324   C328    1.366   .     S
C324   O380    1.274   .     A
C324   O379    1.274   .     A
C325   C346    1.425   .     A
C325   C348    1.425   .     A
C325   C454    1.513   1_545 S
C326   C347    1.425   .     A
C326   C453    1.513   .     S
C328   C583    1.165   .     S
C329   C334    1.381   .     A
C329   C340    1.418   .     A
C329   O382    1.383   .     S
C330   O368    1.383   .     S
C330   C341    1.418   .     A
C330   C335    1.381   .     A
C331   O369    1.383   .     S
C331   C336    1.381   .     A
C331   C341    1.418   .     A
C332   O376    1.284   .     A
C332   O375    1.284   .     A
C332   C339    1.432   .     S
C333   C337    1.381   .     A
C333   O370    1.383   .     S
C333   C340    1.418   .     A
C334   C338    1.393   .     A
C334   H360    1.084   .     S
C335   C339    1.393   .     A
C335   H361    1.084   .     S
C336   H362    1.084   .     S
C336   C339    1.393   .     A
C337   H363    1.084   .     S
C337   C338    1.393   .     A
C341   C276    1.445   1_655 S
C342   H349    1.082   .     S
C342   N365    1.361   .     A
C342   C346    1.408   .     A
C343   N366    1.361   .     A
C343   C347    1.408   .     A
C343   H357    1.082   .     S
C344   H358    1.082   .     S
C344   C348    1.408   .     A
C344   N365    1.361   .     A
C345   N366    1.361   .     A
C345   H359    1.082   .     S
C346   O371    1.382   .     S
C347   O372    1.382   .     S
C348   O373    1.382   .     S
H352   O306    0.988   1_655 S
H353   O499    0.988   .     S
H354   O500    0.988   1_545 S
H355   O501    0.988   .     S
H356   O502    0.988   1_545 S
H364   O318    0.988   1_655 S
N365   Zn384   2.004   .     S
N366   Zn383   2.004   .     S
O367   Zn383   1.998   .     S
O368   H286    0.988   1_655 S
O369   H287    0.988   1_655 S
O371   H481    0.988   1_545 S
O372   H482    0.988   .     S
O373   H483    0.988   1_545 S
O374   H484    0.988   .     S
O375   Zn384   1.998   .     S
O376   Zn383   1.998   .     S
O377   Zn384   1.998   .     S
O378   Zn383   1.951   .     S
O379   Zn384   1.951   .     S
O380   Zn383   1.951   .     S
O381   Zn384   1.951   .     S
C385   O441    1.284   .     A
C385   C402    1.432   .     S
C385   O431    1.284   .     A
C386   C390    1.425   .     A
C386   C409    1.408   .     A
C386   O438    1.382   .     S
C387   C391    1.366   .     S
C387   O445    1.274   .     A
C387   O442    1.274   .     A
C388   C392    1.366   .     S
C388   O444    1.274   .     A
C388   O443    1.274   .     A
C389   C410    1.425   .     A
C389   C412    1.425   .     A
C390   C411    1.425   .     A
C390   C261    1.513   1_565 S
C392   C647    1.165   .     S
C393   C398    1.381   .     A
C393   C404    1.418   .     A
C393   O446    1.383   .     S
C394   O432    1.383   .     S
C394   C405    1.418   .     A
C394   C399    1.381   .     A
C395   O433    1.383   .     S
C395   C400    1.381   .     A
C395   C405    1.418   .     A
C396   O440    1.284   .     A
C396   O439    1.284   .     A
C396   C403    1.432   .     S
C397   C401    1.381   .     A
C397   O434    1.383   .     S
C397   C404    1.418   .     A
C398   C402    1.393   .     A
C398   H424    1.084   .     S
C399   C403    1.393   .     A
C399   H425    1.084   .     S
C400   H426    1.084   .     S
C400   C403    1.393   .     A
C401   H427    1.084   .     S
C401   C402    1.393   .     A
C404   C469    1.445   1_455 S
C405   C468    1.445   .     S
C406   H413    1.082   .     S
C406   N429    1.361   .     A
C406   C410    1.408   .     A
C407   N430    1.361   .     A
C407   C411    1.408   .     A
C407   H421    1.082   .     S
C408   H422    1.082   .     S
C408   C412    1.408   .     A
C408   N429    1.361   .     A
C409   N430    1.361   .     A
C409   H423    1.082   .     S
C410   O435    1.382   .     S
C411   O436    1.382   .     S
C412   O437    1.382   .     S
H414   O496    0.988   1_455 S
H415   O497    0.988   1_455 S
H416   O498    0.988   .     S
H417   O307    0.988   1_565 S
H419   O309    0.988   1_565 S
H428   O510    0.988   .     S
N429   Zn448   2.004   .     S
N430   Zn447   2.004   .     S
O431   Zn447   1.998   .     S
O432   H478    0.988   .     S
O433   H479    0.988   .     S
O434   H480    0.988   1_455 S
O436   H290    0.988   1_565 S
O438   H292    0.988   1_565 S
O439   Zn448   1.998   .     S
O440   Zn447   1.998   .     S
O441   Zn448   1.998   .     S
O442   Zn447   1.951   .     S
O443   Zn448   1.951   .     S
O444   Zn447   1.951   .     S
O445   Zn448   1.951   .     S
O446   H492    0.988   1_455 S
C449   O505    1.284   .     A
C449   C466    1.432   .     S
C449   O495    1.284   .     A
C450   C454    1.425   .     A
C450   C473    1.408   .     A
C450   O502    1.382   .     S
C451   C455    1.366   .     S
C451   O509    1.274   .     A
C451   O506    1.274   .     A
C452   C456    1.366   .     S
C452   O508    1.274   .     A
C452   O507    1.274   .     A
C453   C474    1.425   .     A
C453   C476    1.425   .     A
C454   C475    1.425   .     A
C454   C325    1.513   1_565 S
C456   C711    1.165   .     S
C457   C462    1.381   .     A
C457   C468    1.418   .     A
C457   O510    1.383   .     S
C458   O496    1.383   .     S
C458   C469    1.418   .     A
C458   C463    1.381   .     A
C459   O497    1.383   .     S
C459   C464    1.381   .     A
C459   C469    1.418   .     A
C460   O504    1.284   .     A
C460   O503    1.284   .     A
C460   C467    1.432   .     S
C461   C465    1.381   .     A
C461   O498    1.383   .     S
C461   C468    1.418   .     A
C462   C466    1.393   .     A
C462   H488    1.084   .     S
C463   C467    1.393   .     A
C463   H489    1.084   .     S
C464   H490    1.084   .     S
C464   C467    1.393   .     A
C465   H491    1.084   .     S
C465   C466    1.393   .     A
C469   C404    1.445   1_655 S
C470   H477    1.082   .     S
C470   N493    1.361   .     A
C470   C474    1.408   .     A
C471   N494    1.361   .     A
C471   C475    1.408   .     A
C471   H485    1.082   .     S
C472   H486    1.082   .     S
C472   C476    1.408   .     A
C472   N493    1.361   .     A
C473   N494    1.361   .     A
C473   H487    1.082   .     S
C474   O499    1.382   .     S
C475   O500    1.382   .     S
C476   O501    1.382   .     S
H480   O434    0.988   1_655 S
H481   O371    0.988   1_565 S
H483   O373    0.988   1_565 S
H492   O446    0.988   1_655 S
N493   Zn512   2.004   .     S
N494   Zn511   2.004   .     S
O495   Zn511   1.998   .     S
O496   H414    0.988   1_655 S
O497   H415    0.988   1_655 S
O500   H354    0.988   1_565 S
O502   H356    0.988   1_565 S
O503   Zn512   1.998   .     S
O504   Zn511   1.998   .     S
O505   Zn512   1.998   .     S
O506   Zn511   1.951   .     S
O507   Zn512   1.951   .     S
O508   Zn511   1.951   .     S
O509   Zn512   1.951   .     S
C513   O569    1.284   .     A
C513   C530    1.432   .     S
C513   O559    1.284   .     A
C514   C518    1.425   .     A
C514   C537    1.408   .     A
C514   O566    1.382   .     S
C515   C519    1.366   .     S
C515   O573    1.274   .     A
C515   O570    1.274   .     A
C516   C520    1.366   .     S
C516   O572    1.274   .     A
C516   O571    1.274   .     A
C517   C538    1.425   .     A
C517   C540    1.425   .     A
C517   C646    1.513   1_545 S
C518   C539    1.425   .     A
C518   C645    1.513   .     S
C520   C7      1.165   1_556 S
C521   C526    1.381   .     A
C521   C532    1.418   .     A
C521   O574    1.383   .     S
C522   O560    1.383   .     S
C522   C533    1.418   .     A
C522   C527    1.381   .     A
C523   O561    1.383   .     S
C523   C528    1.381   .     A
C523   C533    1.418   .     A
C524   O568    1.284   .     A
C524   O567    1.284   .     A
C524   C531    1.432   .     S
C525   C529    1.381   .     A
C525   O562    1.383   .     S
C525   C532    1.418   .     A
C526   C530    1.393   .     A
C526   H552    1.084   .     S
C527   C531    1.393   .     A
C527   H553    1.084   .     S
C528   H554    1.084   .     S
C528   C531    1.393   .     A
C529   H555    1.084   .     S
C529   C530    1.393   .     A
C532   C597    1.445   1_455 S
C533   C596    1.445   .     S
C534   H541    1.082   .     S
C534   N557    1.361   .     A
C534   C538    1.408   .     A
C535   N558    1.361   .     A
C535   C539    1.408   .     A
C535   H549    1.082   .     S
C536   H550    1.082   .     S
C536   C540    1.408   .     A
C536   N557    1.361   .     A
C537   N558    1.361   .     A
C537   H551    1.082   .     S
C538   O563    1.382   .     S
C539   O564    1.382   .     S
C540   O565    1.382   .     S
H542   O624    0.988   1_455 S
H543   O625    0.988   1_455 S
H544   O626    0.988   .     S
H545   O691    0.988   .     S
H546   O692    0.988   1_545 S
H547   O693    0.988   .     S
H548   O694    0.988   1_545 S
H556   O638    0.988   .     S
N557   Zn576   2.004   .     S
N558   Zn575   2.004   .     S
O559   Zn575   1.998   .     S
O560   H606    0.988   .     S
O561   H607    0.988   .     S
O562   H608    0.988   1_455 S
O563   H673    0.988   1_545 S
O564   H674    0.988   .     S
O565   H675    0.988   1_545 S
O566   H676    0.988   .     S
O567   Zn576   1.998   .     S
O568   Zn575   1.998   .     S
O569   Zn576   1.998   .     S
O570   Zn575   1.951   .     S
O571   Zn576   1.951   .     S
O572   Zn575   1.951   .     S
O573   Zn576   1.951   .     S
O574   H620    0.988   1_455 S
C577   O633    1.284   .     A
C577   C594    1.432   .     S
C577   O623    1.284   .     A
C578   C582    1.425   .     A
C578   C601    1.408   .     A
C578   O630    1.382   .     S
C579   C583    1.366   .     S
C579   O637    1.274   .     A
C579   O634    1.274   .     A
C580   C584    1.366   .     S
C580   O636    1.274   .     A
C580   O635    1.274   .     A
C581   C602    1.425   .     A
C581   C604    1.425   .     A
C581   C710    1.513   1_545 S
C582   C603    1.425   .     A
C582   C709    1.513   .     S
C584   C71     1.165   1_556 S
C585   C590    1.381   .     A
C585   C596    1.418   .     A
C585   O638    1.383   .     S
C586   O624    1.383   .     S
C586   C597    1.418   .     A
C586   C591    1.381   .     A
C587   O625    1.383   .     S
C587   C592    1.381   .     A
C587   C597    1.418   .     A
C588   O632    1.284   .     A
C588   O631    1.284   .     A
C588   C595    1.432   .     S
C589   C593    1.381   .     A
C589   O626    1.383   .     S
C589   C596    1.418   .     A
C590   C594    1.393   .     A
C590   H616    1.084   .     S
C591   C595    1.393   .     A
C591   H617    1.084   .     S
C592   H618    1.084   .     S
C592   C595    1.393   .     A
C593   H619    1.084   .     S
C593   C594    1.393   .     A
C597   C532    1.445   1_655 S
C598   H605    1.082   .     S
C598   N621    1.361   .     A
C598   C602    1.408   .     A
C599   N622    1.361   .     A
C599   C603    1.408   .     A
C599   H613    1.082   .     S
C600   H614    1.082   .     S
C600   C604    1.408   .     A
C600   N621    1.361   .     A
C601   N622    1.361   .     A
C601   H615    1.082   .     S
C602   O627    1.382   .     S
C603   O628    1.382   .     S
C604   O629    1.382   .     S
H608   O562    0.988   1_655 S
H609   O755    0.988   .     S
H610   O756    0.988   1_545 S
H611   O757    0.988   .     S
H612   O758    0.988   1_545 S
H620   O574    0.988   1_655 S
N621   Zn640   2.004   .     S
N622   Zn639   2.004   .     S
O623   Zn639   1.998   .     S
O624   H542    0.988   1_655 S
O625   H543    0.988   1_655 S
O627   H737    0.988   1_545 S
O628   H738    0.988   .     S
O629   H739    0.988   1_545 S
O630   H740    0.988   .     S
O631   Zn640   1.998   .     S
O632   Zn639   1.998   .     S
O633   Zn640   1.998   .     S
O634   Zn639   1.951   .     S
O635   Zn640   1.951   .     S
O636   Zn639   1.951   .     S
O637   Zn640   1.951   .     S
C641   O697    1.284   .     A
C641   C658    1.432   .     S
C641   O687    1.284   .     A
C642   C646    1.425   .     A
C642   C665    1.408   .     A
C642   O694    1.382   .     S
C643   C647    1.366   .     S
C643   O701    1.274   .     A
C643   O698    1.274   .     A
C644   C648    1.366   .     S
C644   O700    1.274   .     A
C644   O699    1.274   .     A
C645   C666    1.425   .     A
C645   C668    1.425   .     A
C646   C667    1.425   .     A
C646   C517    1.513   1_565 S
C648   C135    1.165   1_556 S
C649   C654    1.381   .     A
C649   C660    1.418   .     A
C649   O702    1.383   .     S
C650   O688    1.383   .     S
C650   C661    1.418   .     A
C650   C655    1.381   .     A
C651   O689    1.383   .     S
C651   C656    1.381   .     A
C651   C661    1.418   .     A
C652   O696    1.284   .     A
C652   O695    1.284   .     A
C652   C659    1.432   .     S
C653   C657    1.381   .     A
C653   O690    1.383   .     S
C653   C660    1.418   .     A
C654   C658    1.393   .     A
C654   H680    1.084   .     S
C655   C659    1.393   .     A
C655   H681    1.084   .     S
C656   H682    1.084   .     S
C656   C659    1.393   .     A
C657   H683    1.084   .     S
C657   C658    1.393   .     A
C660   C725    1.445   1_455 S
C661   C724    1.445   .     S
C662   H669    1.082   .     S
C662   N685    1.361   .     A
C662   C666    1.408   .     A
C663   N686    1.361   .     A
C663   C667    1.408   .     A
C663   H677    1.082   .     S
C664   H678    1.082   .     S
C664   C668    1.408   .     A
C664   N685    1.361   .     A
C665   N686    1.361   .     A
C665   H679    1.082   .     S
C666   O691    1.382   .     S
C667   O692    1.382   .     S
C668   O693    1.382   .     S
H670   O752    0.988   1_455 S
H671   O753    0.988   1_455 S
H672   O754    0.988   .     S
H673   O563    0.988   1_565 S
H675   O565    0.988   1_565 S
H684   O766    0.988   .     S
N685   Zn704   2.004   .     S
N686   Zn703   2.004   .     S
O687   Zn703   1.998   .     S
O688   H734    0.988   .     S
O689   H735    0.988   .     S
O690   H736    0.988   1_455 S
O692   H546    0.988   1_565 S
O694   H548    0.988   1_565 S
O695   Zn704   1.998   .     S
O696   Zn703   1.998   .     S
O697   Zn704   1.998   .     S
O698   Zn703   1.951   .     S
O699   Zn704   1.951   .     S
O700   Zn703   1.951   .     S
O701   Zn704   1.951   .     S
O702   H748    0.988   1_455 S
C705   O761    1.284   .     A
C705   C722    1.432   .     S
C705   O751    1.284   .     A
C706   C710    1.425   .     A
C706   C729    1.408   .     A
C706   O758    1.382   .     S
C707   C711    1.366   .     S
C707   O765    1.274   .     A
C707   O762    1.274   .     A
C708   C712    1.366   .     S
C708   O764    1.274   .     A
C708   O763    1.274   .     A
C709   C730    1.425   .     A
C709   C732    1.425   .     A
C710   C731    1.425   .     A
C710   C581    1.513   1_565 S
C712   C199    1.165   1_556 S
C713   C718    1.381   .     A
C713   C724    1.418   .     A
C713   O766    1.383   .     S
C714   O752    1.383   .     S
C714   C725    1.418   .     A
C714   C719    1.381   .     A
C715   O753    1.383   .     S
C715   C720    1.381   .     A
C715   C725    1.418   .     A
C716   O760    1.284   .     A
C716   O759    1.284   .     A
C716   C723    1.432   .     S
C717   C721    1.381   .     A
C717   O754    1.383   .     S
C717   C724    1.418   .     A
C718   C722    1.393   .     A
C718   H744    1.084   .     S
C719   C723    1.393   .     A
C719   H745    1.084   .     S
C720   H746    1.084   .     S
C720   C723    1.393   .     A
C721   H747    1.084   .     S
C721   C722    1.393   .     A
C725   C660    1.445   1_655 S
C726   H733    1.082   .     S
C726   N749    1.361   .     A
C726   C730    1.408   .     A
C727   N750    1.361   .     A
C727   C731    1.408   .     A
C727   H741    1.082   .     S
C728   H742    1.082   .     S
C728   C732    1.408   .     A
C728   N749    1.361   .     A
C729   N750    1.361   .     A
C729   H743    1.082   .     S
C730   O755    1.382   .     S
C731   O756    1.382   .     S
C732   O757    1.382   .     S
H736   O690    0.988   1_655 S
H737   O627    0.988   1_565 S
H739   O629    0.988   1_565 S
H748   O702    0.988   1_655 S
N749   Zn768   2.004   .     S
N750   Zn767   2.004   .     S
O751   Zn767   1.998   .     S
O752   H670    0.988   1_655 S
O753   H671    0.988   1_655 S
O756   H610    0.988   1_565 S
O758   H612    0.988   1_565 S
O759   Zn768   1.998   .     S
O760   Zn767   1.998   .     S
O761   Zn768   1.998   .     S
O762   Zn767   1.951   .     S
O763   Zn768   1.951   .     S
O764   Zn767   1.951   .     S
O765   Zn768   1.951   .     S
